# DDEC6 charges by PACMAN v1.1 (https://github.com/mtap-research/PACMAN-charge/)
data_2015[Tb][sra]3[FSR]3
_chemical_formula_sum              "Tb4 H80 C96 N4 O40"
_cell_length_a       10.902
_cell_length_b       16.715
_cell_length_c       19.201
_cell_angle_alpha    90
_cell_angle_beta     90
_cell_angle_gamma    90

_symmetry_space_group_name_H-M    "P 1"
_symmetry_Int_Tables_number       1

loop_
  _symmetry_equiv_pos_as_xyz
  'x, y, z'

loop_
  _atom_site_type_symbol
  _atom_site_label
  _atom_site_symmetry_multiplicity
  _atom_site_fract_x
  _atom_site_fract_y
  _atom_site_fract_z
  _atom_site_occupancy
  _atom_site_charge
Tb  Tb1       1.0  0.79233  0.25000  0.79635  1.0000 2.0672591132
Tb  Tb2       1.0  0.70767  0.75000  0.29635  1.0000 2.0672591132
Tb  Tb3       1.0  0.20767  0.75000  0.20365  1.0000 2.0672591132
Tb  Tb4       1.0  0.29233  0.25000  0.70365  1.0000 2.0672591132
H   H1        1.0  0.85440  0.25000  0.29570  1.0000 0.3766551119
H   H2        1.0  0.64560  0.75000  0.79570  1.0000 0.3766551119
H   H3        1.0  0.14560  0.75000  0.70430  1.0000 0.3766551119
H   H4        1.0  0.35440  0.25000  0.20430  1.0000 0.3766551119
H   H5        1.0  0.46210  0.25000  0.53580  1.0000 0.1454321396
H   H6        1.0  0.03790  0.75000  0.03580  1.0000 0.1454321396
H   H7        1.0  0.53790  0.75000  0.46420  1.0000 0.1454321396
H   H8        1.0  0.96210  0.25000  0.96420  1.0000 0.1454321396
H   H9        1.0  0.51830  0.25000  0.42030  1.0000 0.1199383629
H   H10       1.0  0.98170  0.75000  0.92030  1.0000 0.1199383629
H   H11       1.0  0.48170  0.75000  0.57970  1.0000 0.1199383629
H   H12       1.0  0.01830  0.25000  0.07970  1.0000 0.1199383629
H   H13       1.0  0.81750  0.25000  0.58830  1.0000 0.1199383629
H   H14       1.0  0.68250  0.75000  0.08830  1.0000 0.1199383629
H   H15       1.0  0.18250  0.75000  0.41170  1.0000 0.1199383629
H   H16       1.0  0.31750  0.25000  0.91170  1.0000 0.1199383629
H   H17       1.0  0.97480  0.17400  0.54120  1.0000 0.1029097688
H   H18       1.0  0.52520  0.82600  0.04120  1.0000 0.1029097688
H   H19       1.0  0.02520  0.67400  0.45880  1.0000 0.1029097688
H   H20       1.0  0.47480  0.32600  0.95880  1.0000 0.1029097688
H   H21       1.0  0.02520  0.82600  0.45880  1.0000 0.1029097688
H   H22       1.0  0.47480  0.17400  0.95880  1.0000 0.1029097688
H   H23       1.0  0.97480  0.32600  0.54120  1.0000 0.1029097688
H   H24       1.0  0.52520  0.67400  0.04120  1.0000 0.1029097688
H   H25       1.0  0.07330  0.18060  0.48180  1.0000 0.1199383629
H   H26       1.0  0.42670  0.81940  0.98180  1.0000 0.1199383629
H   H27       1.0  0.92670  0.68060  0.51820  1.0000 0.1199383629
H   H28       1.0  0.57330  0.31940  0.01820  1.0000 0.1199383629
H   H29       1.0  0.92670  0.81940  0.51820  1.0000 0.1199383629
H   H30       1.0  0.57330  0.18060  0.01820  1.0000 0.1199383629
H   H31       1.0  0.07330  0.31940  0.48180  1.0000 0.1199383629
H   H32       1.0  0.42670  0.68060  0.98180  1.0000 0.1199383629
H   H33       1.0  0.03850  0.10650  0.37010  1.0000 0.1199383629
H   H34       1.0  0.46150  0.89350  0.87010  1.0000 0.1199383629
H   H35       1.0  0.96150  0.60650  0.62990  1.0000 0.1199383629
H   H36       1.0  0.53850  0.39350  0.12990  1.0000 0.1199383629
H   H37       1.0  0.96150  0.89350  0.62990  1.0000 0.1199383629
H   H38       1.0  0.53850  0.10650  0.12990  1.0000 0.1199383629
H   H39       1.0  0.03850  0.39350  0.37010  1.0000 0.1199383629
H   H40       1.0  0.46150  0.60650  0.87010  1.0000 0.1199383629
H   H41       1.0  0.96650  0.98900  0.32050  1.0000 0.1095564728
H   H42       1.0  0.53350  0.01100  0.82050  1.0000 0.1095564728
H   H43       1.0  0.03350  0.48900  0.67950  1.0000 0.1095564728
H   H44       1.0  0.46650  0.51100  0.17950  1.0000 0.1095564728
H   H45       1.0  0.03350  0.01100  0.67950  1.0000 0.1095564728
H   H46       1.0  0.46650  0.98900  0.17950  1.0000 0.1095564728
H   H47       1.0  0.96650  0.51100  0.32050  1.0000 0.1095564728
H   H48       1.0  0.53350  0.48900  0.82050  1.0000 0.1095564728
H   H49       1.0  0.74990  0.95200  0.48600  1.0000 0.1199383629
H   H50       1.0  0.75010  0.04800  0.98600  1.0000 0.1199383629
H   H51       1.0  0.25010  0.45200  0.51400  1.0000 0.1199383629
H   H52       1.0  0.24990  0.54800  0.01400  1.0000 0.1199383629
H   H53       1.0  0.25010  0.04800  0.51400  1.0000 0.1199383629
H   H54       1.0  0.24990  0.95200  0.01400  1.0000 0.1199383629
H   H55       1.0  0.74990  0.54800  0.48600  1.0000 0.1199383629
H   H56       1.0  0.75010  0.45200  0.98600  1.0000 0.1199383629
H   H57       1.0  0.82170  0.07150  0.53600  1.0000 0.1199383629
H   H58       1.0  0.67830  0.92850  0.03600  1.0000 0.1199383629
H   H59       1.0  0.17830  0.57150  0.46400  1.0000 0.1199383629
H   H60       1.0  0.32170  0.42850  0.96400  1.0000 0.1199383629
H   H61       1.0  0.17830  0.92850  0.46400  1.0000 0.1199383629
H   H62       1.0  0.32170  0.07150  0.96400  1.0000 0.1199383629
H   H63       1.0  0.82170  0.42850  0.53600  1.0000 0.1199383629
H   H64       1.0  0.67830  0.57150  0.03600  1.0000 0.1199383629
H   H65       1.0  0.85800  0.12110  0.69880  1.0000 0.4217632253
H   H66       1.0  0.64200  0.87890  0.19880  1.0000 0.4217632253
H   H67       1.0  0.14200  0.62110  0.30120  1.0000 0.4217632253
H   H68       1.0  0.35800  0.37890  0.80120  1.0000 0.4217632253
H   H69       1.0  0.14200  0.87890  0.30120  1.0000 0.4217632253
H   H70       1.0  0.35800  0.12110  0.80120  1.0000 0.4217632253
H   H71       1.0  0.85800  0.37890  0.69880  1.0000 0.4217632253
H   H72       1.0  0.64200  0.62110  0.19880  1.0000 0.4217632253
H   H73       1.0  0.97540  0.14260  0.74540  1.0000 0.4217632253
H   H74       1.0  0.52460  0.85740  0.24540  1.0000 0.4217632253
H   H75       1.0  0.02460  0.64260  0.25460  1.0000 0.4217632253
H   H76       1.0  0.47540  0.35740  0.75460  1.0000 0.4217632253
H   H77       1.0  0.02460  0.85740  0.25460  1.0000 0.4217632253
H   H78       1.0  0.47540  0.14260  0.75460  1.0000 0.4217632253
H   H79       1.0  0.97540  0.35740  0.74540  1.0000 0.4217632253
H   H80       1.0  0.52460  0.64260  0.24540  1.0000 0.4217632253
C   C1        1.0  0.60650  0.25000  0.65140  1.0000 0.6661670905
C   C2        1.0  0.89350  0.75000  0.15140  1.0000 0.6661670905
C   C3        1.0  0.39350  0.75000  0.34860  1.0000 0.6661670905
C   C4        1.0  0.10650  0.25000  0.84860  1.0000 0.6661670905
C   C5        1.0  0.63500  0.25000  0.57150  1.0000 -0.0146029974
C   C6        1.0  0.86500  0.75000  0.07150  1.0000 -0.0146029974
C   C7        1.0  0.36500  0.75000  0.42850  1.0000 -0.0146029974
C   C8        1.0  0.13500  0.25000  0.92850  1.0000 -0.0152370996
C   C9        1.0  0.54440  0.25000  0.52290  1.0000 -0.0884267984
C   C10       1.0  0.95560  0.75000  0.02290  1.0000 -0.0884267984
C   C11       1.0  0.45560  0.75000  0.47710  1.0000 -0.0884267984
C   C12       1.0  0.04440  0.25000  0.97710  1.0000 -0.0884267984
C   C13       1.0  0.57870  0.25000  0.45440  1.0000 -0.1007007799
C   C14       1.0  0.92130  0.75000  0.95440  1.0000 -0.1007007799
C   C15       1.0  0.42130  0.75000  0.54560  1.0000 -0.1007007799
C   C16       1.0  0.07870  0.25000  0.04560  1.0000 -0.1007007799
C   C17       1.0  0.70200  0.25000  0.43420  1.0000 -0.1007007799
C   C18       1.0  0.79800  0.75000  0.93420  1.0000 -0.1007007799
C   C19       1.0  0.29800  0.75000  0.56580  1.0000 -0.1007007799
C   C20       1.0  0.20200  0.25000  0.06580  1.0000 -0.1007007799
C   C21       1.0  0.79160  0.25000  0.48590  1.0000 0.1443279487
C   C22       1.0  0.70840  0.75000  0.98590  1.0000 0.1443279487
C   C23       1.0  0.20840  0.75000  0.51410  1.0000 0.1443279487
C   C24       1.0  0.29160  0.25000  0.01410  1.0000 0.1443279487
C   C25       1.0  0.75790  0.25000  0.55360  1.0000 -0.2096731524
C   C26       1.0  0.74210  0.75000  0.05360  1.0000 -0.2096731524
C   C27       1.0  0.24210  0.75000  0.44640  1.0000 -0.2096731524
C   C28       1.0  0.25790  0.25000  0.94640  1.0000 -0.2096731524
C   C29       1.0  0.73030  0.25000  0.35730  1.0000 0.5522416037
C   C30       1.0  0.76970  0.75000  0.85730  1.0000 0.5522416037
C   C31       1.0  0.26970  0.75000  0.64270  1.0000 0.5522416037
C   C32       1.0  0.23030  0.25000  0.14270  1.0000 0.5522416037
C   C33       1.0  0.98600  0.17670  0.49110  1.0000 -0.1596882167
C   C34       1.0  0.51400  0.82330  0.99110  1.0000 -0.1596882167
C   C35       1.0  0.01400  0.67670  0.50890  1.0000 -0.1596882167
C   C36       1.0  0.48600  0.32330  0.00890  1.0000 -0.1596882167
C   C37       1.0  0.01400  0.82330  0.50890  1.0000 -0.1596882167
C   C38       1.0  0.48600  0.17670  0.00890  1.0000 -0.1596882167
C   C39       1.0  0.98600  0.32330  0.49110  1.0000 -0.1596882167
C   C40       1.0  0.51400  0.67670  0.99110  1.0000 -0.1596882167
C   C41       1.0  0.93540  0.10040  0.45760  1.0000 0.1199383629
C   C42       1.0  0.56460  0.89960  0.95760  1.0000 0.1199383629
C   C43       1.0  0.06460  0.60040  0.54240  1.0000 0.1199383629
C   C44       1.0  0.43540  0.39960  0.04240  1.0000 0.1199383629
C   C45       1.0  0.06460  0.89960  0.54240  1.0000 0.1199383629
C   C46       1.0  0.43540  0.10040  0.04240  1.0000 0.1199383629
C   C47       1.0  0.93540  0.39960  0.45760  1.0000 0.1199383629
C   C48       1.0  0.56460  0.60040  0.95760  1.0000 0.1199383629
C   C49       1.0  0.98040  0.07580  0.39330  1.0000 -0.1494157064
C   C50       1.0  0.51960  0.92420  0.89330  1.0000 -0.1494157064
C   C51       1.0  0.01960  0.57580  0.60670  1.0000 -0.1494157064
C   C52       1.0  0.48040  0.42420  0.10670  1.0000 -0.1494157064
C   C53       1.0  0.01960  0.92420  0.60670  1.0000 -0.1494157064
C   C54       1.0  0.48040  0.07580  0.10670  1.0000 -0.1494157064
C   C55       1.0  0.98040  0.42420  0.39330  1.0000 -0.1494157064
C   C56       1.0  0.51960  0.57580  0.89330  1.0000 -0.1494157064
C   C57       1.0  0.93770  0.00470  0.36400  1.0000 -0.0884267984
C   C58       1.0  0.56230  0.99530  0.86400  1.0000 -0.0884267984
C   C59       1.0  0.06230  0.50470  0.63600  1.0000 -0.0884267984
C   C60       1.0  0.43770  0.49530  0.13600  1.0000 -0.0884267984
C   C61       1.0  0.06230  0.99530  0.63600  1.0000 -0.0884267984
C   C62       1.0  0.43770  0.00470  0.13600  1.0000 -0.0884267984
C   C63       1.0  0.93770  0.49530  0.36400  1.0000 -0.0884267984
C   C64       1.0  0.56230  0.50470  0.86400  1.0000 -0.0884267984
C   C65       1.0  0.85360  0.95720  0.39830  1.0000 -0.0697006822
C   C66       1.0  0.64640  0.04280  0.89830  1.0000 -0.0697006822
C   C67       1.0  0.14640  0.45720  0.60170  1.0000 -0.0697006822
C   C68       1.0  0.35360  0.54280  0.10170  1.0000 -0.0697006822
C   C69       1.0  0.14640  0.04280  0.60170  1.0000 -0.0697006822
C   C70       1.0  0.35360  0.95720  0.10170  1.0000 -0.0697006822
C   C71       1.0  0.85360  0.54280  0.39830  1.0000 -0.0697006822
C   C72       1.0  0.64640  0.45720  0.89830  1.0000 -0.0697006822
C   C73       1.0  0.80820  0.98260  0.46280  1.0000 -0.0697006822
C   C74       1.0  0.69180  0.01740  0.96280  1.0000 -0.0697006822
C   C75       1.0  0.19180  0.48260  0.53720  1.0000 -0.0697006822
C   C76       1.0  0.30820  0.51740  0.03720  1.0000 -0.0697006822
C   C77       1.0  0.19180  0.01740  0.53720  1.0000 -0.0697006822
C   C78       1.0  0.30820  0.98260  0.03720  1.0000 -0.0697006822
C   C79       1.0  0.80820  0.51740  0.46280  1.0000 -0.0697006822
C   C80       1.0  0.69180  0.48260  0.96280  1.0000 -0.0697006822
C   C81       1.0  0.85080  0.05490  0.49280  1.0000 -0.1596882167
C   C82       1.0  0.64920  0.94510  0.99280  1.0000 -0.1596882167
C   C83       1.0  0.14920  0.55490  0.50720  1.0000 -0.1596882167
C   C84       1.0  0.35080  0.44510  0.00720  1.0000 -0.1596882167
C   C85       1.0  0.14920  0.94510  0.50720  1.0000 -0.1596882167
C   C86       1.0  0.35080  0.05490  0.00720  1.0000 -0.1596882167
C   C87       1.0  0.85080  0.44510  0.49280  1.0000 -0.1596882167
C   C88       1.0  0.64920  0.55490  0.99280  1.0000 -0.1596882167
C   C89       1.0  0.81220  0.88210  0.36760  1.0000 0.5648842853
C   C90       1.0  0.68780  0.11790  0.86760  1.0000 0.5652629536
C   C91       1.0  0.18780  0.38210  0.63240  1.0000 0.5648842853
C   C92       1.0  0.31220  0.61790  0.13240  1.0000 0.5648842853
C   C93       1.0  0.18780  0.11790  0.63240  1.0000 0.5648842853
C   C94       1.0  0.31220  0.88210  0.13240  1.0000 0.5648842853
C   C95       1.0  0.81220  0.61790  0.36760  1.0000 0.5648842853
C   C96       1.0  0.68780  0.38210  0.86760  1.0000 0.5652629536
N   N1        1.0  0.92250  0.25000  0.46330  1.0000 -0.1329738843
N   N2        1.0  0.57750  0.75000  0.96330  1.0000 -0.1329738843
N   N3        1.0  0.07750  0.75000  0.53670  1.0000 -0.1329738843
N   N4        1.0  0.42250  0.25000  0.03670  1.0000 -0.1329738843
O   O1        1.0  0.68920  0.25000  0.69410  1.0000 -0.6458554464
O   O2        1.0  0.81080  0.75000  0.19410  1.0000 -0.6458554464
O   O3        1.0  0.31080  0.75000  0.30590  1.0000 -0.6458554464
O   O4        1.0  0.18920  0.25000  0.80590  1.0000 -0.6458554464
O   O5        1.0  0.49000  0.25000  0.66400  1.0000 -0.6995721358
O   O6        1.0  0.01000  0.75000  0.16400  1.0000 -0.6995721358
O   O7        1.0  0.51000  0.75000  0.33600  1.0000 -0.6995721358
O   O8        1.0  0.99000  0.25000  0.83600  1.0000 -0.6995721358
O   O9        1.0  0.84950  0.25000  0.33830  1.0000 -0.4630950215
O   O10       1.0  0.65050  0.75000  0.83830  1.0000 -0.4630950215
O   O11       1.0  0.15050  0.75000  0.66170  1.0000 -0.4630950215
O   O12       1.0  0.34950  0.25000  0.16170  1.0000 -0.4630950215
O   O13       1.0  0.64790  0.25000  0.31490  1.0000 -0.4989678535
O   O14       1.0  0.85210  0.75000  0.81490  1.0000 -0.4989678535
O   O15       1.0  0.35210  0.75000  0.68510  1.0000 -0.4989678535
O   O16       1.0  0.14790  0.25000  0.18510  1.0000 -0.4989678535
O   O17       1.0  0.86510  0.85200  0.31350  1.0000 -0.678108235
O   O18       1.0  0.63490  0.14800  0.81350  1.0000 -0.678108235
O   O19       1.0  0.13490  0.35200  0.68650  1.0000 -0.678108235
O   O20       1.0  0.36510  0.64800  0.18650  1.0000 -0.678108235
O   O21       1.0  0.13490  0.14800  0.68650  1.0000 -0.678108235
O   O22       1.0  0.36510  0.85200  0.18650  1.0000 -0.678108235
O   O23       1.0  0.86510  0.64800  0.31350  1.0000 -0.678108235
O   O24       1.0  0.63490  0.35200  0.81350  1.0000 -0.678108235
O   O25       1.0  0.72010  0.84450  0.39320  1.0000 -0.6418143111
O   O26       1.0  0.77990  0.15550  0.89320  1.0000 -0.6418143111
O   O27       1.0  0.27990  0.34450  0.60680  1.0000 -0.6418143111
O   O28       1.0  0.22010  0.65550  0.10680  1.0000 -0.6418143111
O   O29       1.0  0.27990  0.15550  0.60680  1.0000 -0.6418143111
O   O30       1.0  0.22010  0.84450  0.10680  1.0000 -0.6418143111
O   O31       1.0  0.72010  0.65550  0.39320  1.0000 -0.6418143111
O   O32       1.0  0.77990  0.34450  0.89320  1.0000 -0.6418143111
O   O33       1.0  0.89100  0.14680  0.73210  1.0000 -0.8227367896
O   O34       1.0  0.60900  0.85320  0.23210  1.0000 -0.8227367896
O   O35       1.0  0.10900  0.64680  0.26790  1.0000 -0.8227367896
O   O36       1.0  0.39100  0.35320  0.76790  1.0000 -0.8227367896
O   O37       1.0  0.10900  0.85320  0.26790  1.0000 -0.8227367896
O   O38       1.0  0.39100  0.14680  0.76790  1.0000 -0.8227367896
O   O39       1.0  0.89100  0.35320  0.73210  1.0000 -0.8227367896
O   O40       1.0  0.60900  0.64680  0.23210  1.0000 -0.8227367896
