# DDEC6 charges by PACMAN v1.1 (https://github.com/mtap-research/PACMAN-charge/)
data_2015[Zr][pts]3[FSR]1
_chemical_formula_sum              "Zr2 H8 C28 N8 O12"
_cell_length_a       15.6152
_cell_length_b       15.6152
_cell_length_c       7.49628
_cell_angle_alpha    90
_cell_angle_beta     90
_cell_angle_gamma    90

_symmetry_space_group_name_H-M    "P 1"
_symmetry_Int_Tables_number       1

loop_
  _symmetry_equiv_pos_as_xyz
  'x, y, z'

loop_
  _atom_site_type_symbol
  _atom_site_label
  _atom_site_symmetry_multiplicity
  _atom_site_fract_x
  _atom_site_fract_y
  _atom_site_fract_z
  _atom_site_occupancy
  _atom_site_charge
Zr  Zr1       1.0  0.00000  0.00000  0.25000  1.0000 2.0122358323
Zr  Zr2       1.0  0.00000  0.00000  0.75000  1.0000 2.0122358323
H   H1        1.0  0.00000  0.30660  0.26802  1.0000 0.1518408031
H   H2        1.0  0.00000  0.69340  0.26802  1.0000 0.1518408031
H   H3        1.0  0.00000  0.69340  0.73198  1.0000 0.1518408031
H   H4        1.0  0.69340  0.00000  0.23198  1.0000 0.1518408031
H   H5        1.0  0.30660  0.00000  0.76802  1.0000 0.1518408031
H   H6        1.0  0.69340  0.00000  0.76802  1.0000 0.1518408031
H   H7        1.0  0.30660  0.00000  0.23198  1.0000 0.1518408031
H   H8        1.0  0.00000  0.30660  0.73198  1.0000 0.1518408031
C   C1        1.0  0.00000  0.41547  0.00000  1.0000 0.2800648631
C   C2        1.0  0.00000  0.58453  0.00000  1.0000 0.2800648631
C   C3        1.0  0.58453  0.00000  0.50000  1.0000 0.2800648631
C   C4        1.0  0.41547  0.00000  0.50000  1.0000 0.2800648631
C   C5        1.0  0.00000  0.32133  0.00000  1.0000 0.0294053126
C   C6        1.0  0.00000  0.67867  0.00000  1.0000 0.0294053126
C   C7        1.0  0.67867  0.00000  0.50000  1.0000 0.0294053126
C   C8        1.0  0.32133  0.00000  0.50000  1.0000 0.0294053126
C   C9        1.0  0.00000  0.27682  0.16058  1.0000 -0.1782948758
C   C10       1.0  0.00000  0.72318  0.16058  1.0000 -0.1782948758
C   C11       1.0  0.00000  0.72318  0.83942  1.0000 -0.1782948758
C   C12       1.0  0.72318  0.00000  0.33942  1.0000 -0.1782948758
C   C13       1.0  0.27682  0.00000  0.66058  1.0000 -0.1782948758
C   C14       1.0  0.72318  0.00000  0.66058  1.0000 -0.1782948758
C   C15       1.0  0.27682  0.00000  0.33942  1.0000 -0.1782948758
C   C16       1.0  0.00000  0.27682  0.83942  1.0000 -0.1782948758
C   C17       1.0  0.00000  0.18780  0.16058  1.0000 0.2252980144
C   C18       1.0  0.00000  0.81220  0.16058  1.0000 0.2252980144
C   C19       1.0  0.00000  0.81220  0.83942  1.0000 0.2242999197
C   C20       1.0  0.81220  0.00000  0.33942  1.0000 0.2252980144
C   C21       1.0  0.18780  0.00000  0.66058  1.0000 0.2252980144
C   C22       1.0  0.81220  0.00000  0.66058  1.0000 0.2252980144
C   C23       1.0  0.18780  0.00000  0.33942  1.0000 0.2252980144
C   C24       1.0  0.00000  0.18780  0.83942  1.0000 0.2242999197
C   C25       1.0  0.00000  0.14330  0.00000  1.0000 0.1798140974
C   C26       1.0  0.00000  0.85670  0.00000  1.0000 0.1798140974
C   C27       1.0  0.85670  0.00000  0.50000  1.0000 0.1798140974
C   C28       1.0  0.14330  0.00000  0.50000  1.0000 0.1798140974
N   N1        1.0  0.00000  0.45773  0.15250  1.0000 -0.167332518
N   N2        1.0  0.00000  0.54227  0.15250  1.0000 -0.167332518
N   N3        1.0  0.00000  0.54227  0.84750  1.0000 -0.167332518
N   N4        1.0  0.54227  0.00000  0.34750  1.0000 -0.1621399812
N   N5        1.0  0.45773  0.00000  0.65250  1.0000 -0.1621399812
N   N6        1.0  0.54227  0.00000  0.65250  1.0000 -0.1621399812
N   N7        1.0  0.45773  0.00000  0.34750  1.0000 -0.1621399812
N   N8        1.0  0.00000  0.45773  0.84750  1.0000 -0.167332518
O   O1        1.0  0.00000  0.14618  0.31077  1.0000 -0.5131803259
O   O2        1.0  0.00000  0.85382  0.31077  1.0000 -0.5131803259
O   O3        1.0  0.00000  0.85382  0.68923  1.0000 -0.5131803259
O   O4        1.0  0.85382  0.00000  0.18923  1.0000 -0.5131803259
O   O5        1.0  0.14618  0.00000  0.81077  1.0000 -0.5131803259
O   O6        1.0  0.85382  0.00000  0.81077  1.0000 -0.5131803259
O   O7        1.0  0.14618  0.00000  0.18923  1.0000 -0.5131803259
O   O8        1.0  0.00000  0.14618  0.68923  1.0000 -0.5131803259
O   O9        1.0  0.00000  0.06644  0.00000  1.0000 -0.5367578744
O   O10       1.0  0.00000  0.93356  0.00000  1.0000 -0.5367578744
O   O11       1.0  0.93356  0.00000  0.50000  1.0000 -0.5367578744
O   O12       1.0  0.06644  0.00000  0.50000  1.0000 -0.5367578744
