# DDEC6 charges by PACMAN v1.1 (https://github.com/mtap-research/PACMAN-charge/)
data_2015[Mg][ins]3[FSR]1
_chemical_formula_sum              "Mg4 P4 H12 C4 O28"
_cell_length_a       5.4134
_cell_length_b       15.259
_cell_length_c       10.1299
_cell_angle_alpha    90
_cell_angle_beta     117.477
_cell_angle_gamma    90

_symmetry_space_group_name_H-M    "P 1"
_symmetry_Int_Tables_number       1

loop_
  _symmetry_equiv_pos_as_xyz
  'x, y, z'

loop_
  _atom_site_type_symbol
  _atom_site_label
  _atom_site_symmetry_multiplicity
  _atom_site_fract_x
  _atom_site_fract_y
  _atom_site_fract_z
  _atom_site_occupancy
  _atom_site_charge
Mg  Mg1       1.0  0.68742  0.67327  0.50822  1.0000 1.4375697708
Mg  Mg2       1.0  0.31258  0.17327  0.99178  1.0000 1.4375697708
Mg  Mg3       1.0  0.31258  0.32673  0.49178  1.0000 1.4375697708
Mg  Mg4       1.0  0.68742  0.82673  0.00822  1.0000 1.4342400965
P   P1        1.0  0.38326  0.81834  0.23382  1.0000 1.5716451344
P   P2        1.0  0.61674  0.31834  0.26618  1.0000 1.5716451344
P   P3        1.0  0.61674  0.18166  0.76618  1.0000 1.5716451344
P   P4        1.0  0.38326  0.68166  0.73382  1.0000 1.5716451344
H   H1        1.0  0.21490  0.93960  0.19900  1.0000 0.4044409927
H   H2        1.0  0.78510  0.43960  0.30100  1.0000 0.4044409927
H   H3        1.0  0.78510  0.06040  0.80100  1.0000 0.4044409927
H   H4        1.0  0.21490  0.56040  0.69900  1.0000 0.4044409927
H   H5        1.0  0.95160  0.62960  0.35770  1.0000 0.3723987948
H   H6        1.0  0.04840  0.12960  0.14230  1.0000 0.3723987948
H   H7        1.0  0.04840  0.37040  0.64230  1.0000 0.3723987948
H   H8        1.0  0.95160  0.87040  0.85770  1.0000 0.3723987948
H   H9        1.0  0.76410  0.69120  0.27640  1.0000 0.380990864
H   H10       1.0  0.23590  0.19120  0.22360  1.0000 0.380990864
H   H11       1.0  0.23590  0.30880  0.72360  1.0000 0.380990864
H   H12       1.0  0.76410  0.80880  0.77640  1.0000 0.380990864
C   C1        1.0  0.64830  0.48590  0.55510  1.0000 0.5053819876
C   C2        1.0  0.35170  0.98590  0.94490  1.0000 0.5053819876
C   C3        1.0  0.35170  0.51410  0.44490  1.0000 0.5053819876
C   C4        1.0  0.64830  0.01410  0.05510  1.0000 0.5053819876
O   O1        1.0  0.50600  0.78509  0.39350  1.0000 -0.7745462719
O   O2        1.0  0.49400  0.28509  0.10650  1.0000 -0.7755338017
O   O3        1.0  0.49400  0.21491  0.60650  1.0000 -0.7755338017
O   O4        1.0  0.50600  0.71491  0.89350  1.0000 -0.7755338017
O   O5        1.0  0.08760  0.78660  0.13920  1.0000 -0.8042308155
O   O6        1.0  0.91240  0.28660  0.36080  1.0000 -0.8103459342
O   O7        1.0  0.91240  0.21340  0.86080  1.0000 -0.8103459342
O   O8        1.0  0.08760  0.71340  0.63920  1.0000 -0.8042308155
O   O9        1.0  0.57800  0.79556  0.16900  1.0000 -0.8103459342
O   O10       1.0  0.42200  0.29556  0.33100  1.0000 -0.8103459342
O   O11       1.0  0.42200  0.20444  0.83100  1.0000 -0.8103459342
O   O12       1.0  0.57800  0.70444  0.66900  1.0000 -0.8103459342
O   O13       1.0  0.37640  0.92252  0.24320  1.0000 -0.588158882
O   O14       1.0  0.62360  0.42252  0.25680  1.0000 -0.588158882
O   O15       1.0  0.62360  0.07748  0.75680  1.0000 -0.588158882
O   O16       1.0  0.37640  0.57748  0.74320  1.0000 -0.588158882
O   O17       1.0  0.83140  0.54410  0.59160  1.0000 -0.5062019888
O   O18       1.0  0.16860  0.04410  0.90840  1.0000 -0.5062019888
O   O19       1.0  0.16860  0.45590  0.40840  1.0000 -0.5062019888
O   O20       1.0  0.83140  0.95590  0.09160  1.0000 -0.5062019888
O   O21       1.0  0.68070  0.40806  0.59860  1.0000 -0.4846716139
O   O22       1.0  0.31930  0.90806  0.90140  1.0000 -0.4846716139
O   O23       1.0  0.31930  0.59194  0.40140  1.0000 -0.4846716139
O   O24       1.0  0.68070  0.09194  0.09860  1.0000 -0.4846716139
O   O25       1.0  0.78560  0.64639  0.33060  1.0000 -0.6996414128
O   O26       1.0  0.21440  0.14639  0.16940  1.0000 -0.6996414128
O   O27       1.0  0.21440  0.35361  0.66940  1.0000 -0.6996414128
O   O28       1.0  0.78560  0.85361  0.83060  1.0000 -0.6996414128
