# DDEC6 charges by PACMAN v1.1 (https://github.com/mtap-research/PACMAN-charge/)
data_2015[Zn][fsc]3[FSR]1
_chemical_formula_sum              "Zn2 H34 C54 N2 O8"
_cell_length_a       9.8824
_cell_length_b       11.548
_cell_length_c       15.648
_cell_angle_alpha    89.784
_cell_angle_beta     103.559
_cell_angle_gamma    104.397

_symmetry_space_group_name_H-M    "P 1"
_symmetry_Int_Tables_number       1

loop_
  _symmetry_equiv_pos_as_xyz
  'x, y, z'

loop_
  _atom_site_type_symbol
  _atom_site_label
  _atom_site_symmetry_multiplicity
  _atom_site_fract_x
  _atom_site_fract_y
  _atom_site_fract_z
  _atom_site_occupancy
  _atom_site_charge
Zn  Zn1       1.0  0.15965  0.02646  0.02325  1.0000 0.8364616889
Zn  Zn2       1.0  0.84035  0.97354  0.97675  1.0000 0.8364616889
H   H1        1.0  0.18680  0.72900  0.85210  1.0000 0.1121749073
H   H2        1.0  0.81320  0.27100  0.14790  1.0000 0.1121749073
H   H3        1.0  0.17990  0.61000  0.73180  1.0000 0.1121749073
H   H4        1.0  0.82010  0.39000  0.26820  1.0000 0.1121749073
H   H5        1.0  0.79760  0.66490  0.61030  1.0000 0.1198031656
H   H6        1.0  0.20240  0.33510  0.38970  1.0000 0.1198031656
H   H7        1.0  0.79870  0.77560  0.73370  1.0000 0.1198031656
H   H8        1.0  0.20130  0.22440  0.26630  1.0000 0.1198031656
H   H9        1.0  0.04530  0.31320  0.50540  1.0000 0.1198031656
H   H10       1.0  0.95470  0.68680  0.49460  1.0000 0.1198031656
H   H11       1.0  0.38560  0.89320  0.03080  1.0000 0.1121749073
H   H12       1.0  0.61440  0.10680  0.96920  1.0000 0.1121749073
H   H13       1.0  0.59640  0.87720  0.12400  1.0000 0.1426838893
H   H14       1.0  0.40360  0.12280  0.87600  1.0000 0.1426838893
H   H15       1.0  0.80040  0.95460  0.25580  1.0000 0.1198031656
H   H16       1.0  0.19960  0.04540  0.74420  1.0000 0.1198031656
H   H17       1.0  0.59930  0.17020  0.26170  1.0000 0.1293990161
H   H18       1.0  0.40070  0.82980  0.73830  1.0000 0.1293990161
H   H19       1.0  0.39140  0.18030  0.16310  1.0000 0.1198031656
H   H20       1.0  0.60860  0.81970  0.83690  1.0000 0.1198031656
H   H21       1.0  0.23750  0.38440  0.68800  1.0000 0.1198031656
H   H22       1.0  0.76250  0.61560  0.31200  1.0000 0.1198031656
H   H23       1.0  0.82360  0.22340  0.78080  1.0000 0.1293990161
H   H24       1.0  0.17640  0.77660  0.21920  1.0000 0.1293990161
H   H25       1.0  0.81610  0.34300  0.66140  1.0000 0.1198031656
H   H26       1.0  0.18390  0.65700  0.33860  1.0000 0.1198031656
H   H27       1.0  0.24780  0.27410  0.81170  1.0000 0.1198031656
H   H28       1.0  0.75220  0.72590  0.18830  1.0000 0.1198031656
H   H29       1.0  0.73220  0.09850  0.36940  1.0000 0.1121749073
H   H30       1.0  0.26780  0.90150  0.63060  1.0000 0.1121749073
H   H31       1.0  0.83640  0.10140  0.52350  1.0000 0.1121749073
H   H32       1.0  0.16360  0.89860  0.47650  1.0000 0.1121749073
H   H33       1.0  0.99500  0.93630  0.35830  1.0000 0.1121749073
H   H34       1.0  0.00500  0.06370  0.64170  1.0000 0.1121749073
C   C1        1.0  0.00022  0.84458  0.88268  1.0000 0.582826953
C   C2        1.0  0.99978  0.15542  0.11732  1.0000 0.582826953
C   C3        1.0  0.99358  0.76474  0.80519  1.0000 -0.0331334606
C   C4        1.0  0.00642  0.23526  0.19481  1.0000 -0.0331334606
C   C5        1.0  0.10768  0.71501  0.80400  1.0000 -0.1009870641
C   C6        1.0  0.89232  0.28499  0.19600  1.0000 -0.1009870641
C   C7        1.0  0.10420  0.64457  0.73149  1.0000 -0.1577101217
C   C8        1.0  0.89580  0.35543  0.26851  1.0000 -0.1577101217
C   C9        1.0  0.98780  0.62526  0.65808  1.0000 0.0732833218
C   C10       1.0  0.01220  0.37474  0.34192  1.0000 0.0732833218
C   C11       1.0  0.87500  0.67625  0.65925  1.0000 -0.1577101217
C   C12       1.0  0.12500  0.32375  0.34075  1.0000 -0.1577101217
C   C13       1.0  0.87640  0.74409  0.73291  1.0000 -0.1009870641
C   C14       1.0  0.12360  0.25591  0.26709  1.0000 -0.1009870641
C   C15       1.0  0.99040  0.55716  0.57736  1.0000 0.023608414
C   C16       1.0  0.00960  0.44284  0.42264  1.0000 0.023608414
C   C17       1.0  0.02660  0.38837  0.50309  1.0000 -0.1970850755
C   C18       1.0  0.97340  0.61163  0.49691  1.0000 -0.1970850755
C   C19       1.0  0.01652  0.44290  0.58009  1.0000 0.023608414
C   C20       1.0  0.98348  0.55710  0.41991  1.0000 0.023608414
C   C21       1.0  0.42860  0.94900  0.07818  1.0000 0.0847078818
C   C22       1.0  0.57140  0.05100  0.92182  1.0000 0.0847078818
C   C23       1.0  0.55490  0.93800  0.13465  1.0000 -0.1916495752
C   C24       1.0  0.44510  0.06200  0.86535  1.0000 -0.1916495752
C   C25       1.0  0.61980  0.01837  0.20764  1.0000 0.1676274199
C   C26       1.0  0.38020  0.98163  0.79236  1.0000 0.1676274199
C   C27       1.0  0.74490  0.00023  0.27294  1.0000 -0.1492937745
C   C28       1.0  0.25510  0.99977  0.72706  1.0000 -0.1492937745
C   C29       1.0  0.55700  0.11171  0.21598  1.0000 -0.1970850755
C   C30       1.0  0.44300  0.88829  0.78402  1.0000 -0.1970850755
C   C31       1.0  0.43180  0.11730  0.15620  1.0000 0.0875772345
C   C32       1.0  0.56820  0.88270  0.84380  1.0000 0.0875772345
C   C33       1.0  0.02528  0.37376  0.66157  1.0000 0.0732833218
C   C34       1.0  0.97472  0.62624  0.33843  1.0000 0.0732833218
C   C35       1.0  0.15410  0.35293  0.70698  1.0000 -0.1577101217
C   C36       1.0  0.84590  0.64707  0.29302  1.0000 -0.1577101217
C   C37       1.0  0.03960  0.15571  0.88430  1.0000 0.582826953
C   C38       1.0  0.96040  0.84429  0.11570  1.0000 0.582826953
C   C39       1.0  0.03670  0.23535  0.80807  1.0000 -0.0400599208
C   C40       1.0  0.96330  0.76465  0.19193  1.0000 -0.0400599208
C   C41       1.0  0.90750  0.25660  0.76272  1.0000 -0.1009870641
C   C42       1.0  0.09250  0.74340  0.23728  1.0000 -0.1009870641
C   C43       1.0  0.90260  0.32720  0.69037  1.0000 -0.1492937745
C   C44       1.0  0.09740  0.67280  0.30963  1.0000 -0.1492937745
C   C45       1.0  0.16010  0.28554  0.78064  1.0000 -0.1009870641
C   C46       1.0  0.83990  0.71446  0.21936  1.0000 -0.1009870641
C   C47       1.0  0.78290  0.04606  0.35583  1.0000 -0.1311045032
C   C48       1.0  0.21710  0.95394  0.64417  1.0000 -0.1311045032
C   C49       1.0  0.89597  0.02269  0.42772  1.0000 0.104967888
C   C50       1.0  0.10403  0.97731  0.57228  1.0000 0.104967888
C   C51       1.0  0.90210  0.06047  0.51398  1.0000 -0.1492937745
C   C52       1.0  0.09790  0.93953  0.48602  1.0000 -0.1492937745
C   C53       1.0  0.99650  0.96180  0.41492  1.0000 -0.1370134991
C   C54       1.0  0.00350  0.03820  0.58508  1.0000 -0.1370134991
N   N1        1.0  0.36558  0.03636  0.08870  1.0000 -0.2279952508
N   N2        1.0  0.63442  0.96364  0.91130  1.0000 -0.2279952508
O   O1        1.0  0.16025  0.14349  0.92657  1.0000 -0.5417889994
O   O2        1.0  0.83975  0.85651  0.07343  1.0000 -0.5417889994
O   O3        1.0  0.92141  0.10627  0.90003  1.0000 -0.5470577073
O   O4        1.0  0.07859  0.89373  0.09997  1.0000 -0.5470577073
O   O5        1.0  0.88267  0.85662  0.89464  1.0000 -0.5577454608
O   O6        1.0  0.11733  0.14338  0.10536  1.0000 -0.5577454608
O   O7        1.0  0.12352  0.89425  0.92928  1.0000 -0.5470577073
O   O8        1.0  0.87648  0.10575  0.07072  1.0000 -0.5470577073
