# DDEC6 charges by PACMAN v1.1 (https://github.com/mtap-research/PACMAN-charge/)
data_2015[Co][dia]3[FSR]4
_chemical_formula_sum              "Co12 H24 C24 O48"
_cell_length_a       11.3729
_cell_length_b       9.9463
_cell_length_c       18.2365
_cell_angle_alpha    90
_cell_angle_beta     127.292
_cell_angle_gamma    90

_symmetry_space_group_name_H-M    "P 1"
_symmetry_Int_Tables_number       1

loop_
  _symmetry_equiv_pos_as_xyz
  'x, y, z'

loop_
  _atom_site_type_symbol
  _atom_site_label
  _atom_site_symmetry_multiplicity
  _atom_site_fract_x
  _atom_site_fract_y
  _atom_site_fract_z
  _atom_site_occupancy
  _atom_site_charge
Co  Co1       1.0  0.12124  0.42208  0.86647  1.0000 0.9692286413
Co  Co2       1.0  0.87876  0.92208  0.63353  1.0000 0.9692286413
Co  Co3       1.0  0.87876  0.57792  0.13353  1.0000 0.9692286413
Co  Co4       1.0  0.12124  0.07792  0.36647  1.0000 0.9692286413
Co  Co5       1.0  0.50000  0.50000  0.00000  1.0000 0.9985078733
Co  Co6       1.0  0.50000  0.00000  0.50000  1.0000 0.9985078733
Co  Co7       1.0  0.00000  0.50000  0.00000  1.0000 0.9859275382
Co  Co8       1.0  1.00000  0.00000  0.50000  1.0000 0.984624223
Co  Co9       1.0  0.93003  0.61426  0.69082  1.0000 0.9524000894
Co  Co10      1.0  0.06997  0.11426  0.80918  1.0000 0.9524000894
Co  Co11      1.0  0.06997  0.38574  0.30918  1.0000 0.9524000894
Co  Co12      1.0  0.93003  0.88574  0.19082  1.0000 0.9524000894
H   H1        1.0  0.24500  0.71030  0.77660  1.0000 0.0981766649
H   H2        1.0  0.75500  0.21030  0.72340  1.0000 0.0981766649
H   H3        1.0  0.75500  0.28970  0.22340  1.0000 0.0981766649
H   H4        1.0  0.24500  0.78970  0.27660  1.0000 0.0981766649
H   H5        1.0  0.26900  0.65600  0.07340  1.0000 0.0910718741
H   H6        1.0  0.73100  0.15600  0.42660  1.0000 0.0910718741
H   H7        1.0  0.73100  0.34400  0.92660  1.0000 0.0910718741
H   H8        1.0  0.26900  0.84400  0.57340  1.0000 0.0910718741
H   H9        1.0  0.02070  0.12130  0.95960  1.0000 0.0910718741
H   H10       1.0  0.97930  0.62130  0.54040  1.0000 0.0910718741
H   H11       1.0  0.97930  0.87870  0.04040  1.0000 0.0910718741
H   H12       1.0  0.02070  0.37870  0.45960  1.0000 0.0910718741
H   H13       1.0  0.96760  0.25880  0.62640  1.0000 0.0910718741
H   H14       1.0  0.03240  0.75880  0.87360  1.0000 0.0910718741
H   H15       1.0  0.03240  0.74120  0.37360  1.0000 0.0910718741
H   H16       1.0  0.96760  0.24120  0.12640  1.0000 0.0910718741
H   H17       1.0  0.48030  0.21250  0.97600  1.0000 0.0981766649
H   H18       1.0  0.51970  0.71250  0.52400  1.0000 0.0981766649
H   H19       1.0  0.51970  0.78750  0.02400  1.0000 0.0981766649
H   H20       1.0  0.48030  0.28750  0.47600  1.0000 0.0981766649
H   H21       1.0  0.71210  0.54000  0.73560  1.0000 0.0910718741
H   H22       1.0  0.28790  0.04000  0.76440  1.0000 0.0910718741
H   H23       1.0  0.28790  0.46000  0.26440  1.0000 0.0910718741
H   H24       1.0  0.71210  0.96000  0.23560  1.0000 0.0910718741
C   C1        1.0  0.26407  0.64291  0.81951  1.0000 0.4742445584
C   C2        1.0  0.73593  0.14291  0.68049  1.0000 0.4742445584
C   C3        1.0  0.73593  0.35709  0.18049  1.0000 0.4742445584
C   C4        1.0  0.26407  0.85709  0.31951  1.0000 0.4742445584
C   C5        1.0  0.27493  0.59905  0.03395  1.0000 0.4957064351
C   C6        1.0  0.72507  0.09905  0.46605  1.0000 0.4957064351
C   C7        1.0  0.72507  0.40095  0.96605  1.0000 0.4957064351
C   C8        1.0  0.27493  0.90095  0.53395  1.0000 0.4957064351
C   C9        1.0  0.02967  0.21420  0.95167  1.0000 0.4797674913
C   C10       1.0  0.97033  0.71420  0.54833  1.0000 0.4797674913
C   C11       1.0  0.97033  0.78580  0.04833  1.0000 0.4797674913
C   C12       1.0  0.02967  0.28580  0.45167  1.0000 0.4797674913
C   C13       1.0  0.98396  0.33055  0.66599  1.0000 0.4914807042
C   C14       1.0  0.01604  0.83055  0.83401  1.0000 0.4914807042
C   C15       1.0  0.01604  0.66945  0.33401  1.0000 0.4914807042
C   C16       1.0  0.98396  0.16945  0.16599  1.0000 0.4914807042
C   C17       1.0  0.37674  0.22800  0.93877  1.0000 0.4957064351
C   C18       1.0  0.62326  0.72800  0.56123  1.0000 0.4914807042
C   C19       1.0  0.62326  0.77200  0.06123  1.0000 0.4957064351
C   C20       1.0  0.37674  0.27200  0.43877  1.0000 0.4914807042
C   C21       1.0  0.80722  0.51772  0.78990  1.0000 0.4797674913
C   C22       1.0  0.19278  0.01772  0.71010  1.0000 0.4797674913
C   C23       1.0  0.19278  0.48228  0.21010  1.0000 0.4797674913
C   C24       1.0  0.80722  0.98228  0.28990  1.0000 0.4797674913
O   O1        1.0  0.15231  0.58268  0.80426  1.0000 -0.5630318362
O   O2        1.0  0.84769  0.08268  0.69574  1.0000 -0.5630318362
O   O3        1.0  0.84769  0.41732  0.19574  1.0000 -0.5630318362
O   O4        1.0  0.15231  0.91732  0.30426  1.0000 -0.5630318362
O   O5        1.0  0.39437  0.62210  0.88453  1.0000 -0.4896469925
O   O6        1.0  0.60563  0.12210  0.61547  1.0000 -0.4896469925
O   O7        1.0  0.60563  0.37790  0.11547  1.0000 -0.4896469925
O   O8        1.0  0.39437  0.87790  0.38453  1.0000 -0.4896469925
O   O9        1.0  0.16195  0.52599  0.97703  1.0000 -0.5668130913
O   O10       1.0  0.83805  0.02599  0.52297  1.0000 -0.5630318362
O   O11       1.0  0.83805  0.47401  0.02297  1.0000 -0.5668130913
O   O12       1.0  0.16195  0.97401  0.47703  1.0000 -0.5668130913
O   O13       1.0  0.39117  0.60206  0.04212  1.0000 -0.5103360329
O   O14       1.0  0.60883  0.10206  0.45788  1.0000 -0.5103360329
O   O15       1.0  0.60883  0.39794  0.95788  1.0000 -0.5103360329
O   O16       1.0  0.39117  0.89794  0.54212  1.0000 -0.5103360329
O   O17       1.0  0.04901  0.24471  0.89165  1.0000 -0.5668130913
O   O18       1.0  0.95099  0.74471  0.60835  1.0000 -0.5668130913
O   O19       1.0  0.95099  0.75529  0.10835  1.0000 -0.5668130913
O   O20       1.0  0.04901  0.25529  0.39165  1.0000 -0.5668130913
O   O21       1.0  0.02153  0.29386  0.00060  1.0000 -0.5103360329
O   O22       1.0  0.97847  0.79386  0.49940  1.0000 -0.5103360329
O   O23       1.0  0.97847  0.70614  0.99940  1.0000 -0.5103360329
O   O24       1.0  0.02153  0.20614  0.50060  1.0000 -0.5103360329
O   O25       1.0  0.05602  0.30342  0.75163  1.0000 -0.5668130913
O   O26       1.0  0.94398  0.80342  0.74837  1.0000 -0.5668130913
O   O27       1.0  0.94398  0.69658  0.24837  1.0000 -0.5668130913
O   O28       1.0  0.05602  0.19658  0.25163  1.0000 -0.5668130913
O   O29       1.0  0.93343  0.44243  0.62989  1.0000 -0.4982568064
O   O30       1.0  0.06657  0.94243  0.87011  1.0000 -0.4982568064
O   O31       1.0  0.06657  0.55757  0.37011  1.0000 -0.4982568064
O   O32       1.0  0.93343  0.05757  0.12989  1.0000 -0.4982568064
O   O33       1.0  0.33497  0.34919  0.93364  1.0000 -0.5542933185
O   O34       1.0  0.66503  0.84919  0.56636  1.0000 -0.5542933185
O   O35       1.0  0.66503  0.65081  0.06636  1.0000 -0.5542933185
O   O36       1.0  0.33497  0.15081  0.43364  1.0000 -0.5542933185
O   O37       1.0  0.29569  0.12863  0.90008  1.0000 -0.4982568064
O   O38       1.0  0.70431  0.62863  0.59992  1.0000 -0.4982568064
O   O39       1.0  0.70431  0.87137  0.09992  1.0000 -0.4982568064
O   O40       1.0  0.29569  0.37137  0.40008  1.0000 -0.4982568064
O   O41       1.0  0.91121  0.50825  0.78253  1.0000 -0.5668130913
O   O42       1.0  0.08879  0.00825  0.71747  1.0000 -0.5668130913
O   O43       1.0  0.08879  0.49175  0.21747  1.0000 -0.5668130913
O   O44       1.0  0.91121  0.99175  0.28253  1.0000 -0.5668130913
O   O45       1.0  0.81811  0.50074  0.86083  1.0000 -0.4982568064
O   O46       1.0  0.18189  0.00074  0.63917  1.0000 -0.4982568064
O   O47       1.0  0.18189  0.49926  0.13917  1.0000 -0.4982568064
O   O48       1.0  0.81811  0.99926  0.36083  1.0000 -0.4982568064
