# DDEC6 charges by PACMAN v1.1 (https://github.com/mtap-research/PACMAN-charge/)
data_2015[Mg][nan]3[FSR]8
_chemical_formula_sum              "Mg6 H16 C28 N4 O20"
_cell_length_a       11.0577
_cell_length_b       11.0577
_cell_length_c       11.0514
_cell_angle_alpha    78.8915
_cell_angle_beta     101.109
_cell_angle_gamma    107.259

_symmetry_space_group_name_H-M    "P 1"
_symmetry_Int_Tables_number       1

loop_
  _symmetry_equiv_pos_as_xyz
  'x, y, z'

loop_
  _atom_site_type_symbol
  _atom_site_label
  _atom_site_symmetry_multiplicity
  _atom_site_fract_x
  _atom_site_fract_y
  _atom_site_fract_z
  _atom_site_occupancy
  _atom_site_charge
Mg  Mg1       1.0  0.37935  0.55259  0.45653  1.0000 1.317015647
Mg  Mg2       1.0  0.55259  0.37935  0.04347  1.0000 1.317015647
Mg  Mg3       1.0  0.62065  0.44741  0.54347  1.0000 1.317015647
Mg  Mg4       1.0  0.44741  0.62065  0.95653  1.0000 1.317015647
Mg  Mg5       1.0  0.40498  0.40498  0.25000  1.0000 1.3755345932
Mg  Mg6       1.0  0.59502  0.59502  0.75000  1.0000 1.3755345932
H   H1        1.0  0.39700  0.33100  0.47200  1.0000 0.3841114333
H   H2        1.0  0.33100  0.39700  0.02800  1.0000 0.3841114333
H   H3        1.0  0.60300  0.66900  0.52800  1.0000 0.3841114333
H   H4        1.0  0.66900  0.60300  0.97200  1.0000 0.3841114333
H   H5        1.0  0.45400  0.94800  0.12300  1.0000 0.1463943934
H   H6        1.0  0.94800  0.45400  0.37700  1.0000 0.1463943934
H   H7        1.0  0.54600  0.05200  0.87700  1.0000 0.1463943934
H   H8        1.0  0.05200  0.54600  0.62300  1.0000 0.1463943934
H   H9        1.0  0.35700  0.02700  0.44500  1.0000 0.1267736247
H   H10       1.0  0.02700  0.35700  0.05500  1.0000 0.1267736247
H   H11       1.0  0.64300  0.97300  0.55500  1.0000 0.1267736247
H   H12       1.0  0.97300  0.64300  0.94500  1.0000 0.1267736247
H   H13       1.0  0.33600  0.80400  0.52500  1.0000 0.1060992768
H   H14       1.0  0.80400  0.33600  0.97500  1.0000 0.1060992768
H   H15       1.0  0.66400  0.19600  0.47500  1.0000 0.1060992768
H   H16       1.0  0.19600  0.66400  0.02500  1.0000 0.1060992768
C   C1        1.0  0.41646  0.79834  0.26970  1.0000 0.0992742935
C   C2        1.0  0.79834  0.41646  0.23030  1.0000 0.0992742935
C   C3        1.0  0.58354  0.20166  0.73030  1.0000 0.0992742935
C   C4        1.0  0.20166  0.58354  0.76970  1.0000 0.0992742935
C   C5        1.0  0.43179  0.92421  0.21260  1.0000 -0.1605348894
C   C6        1.0  0.92421  0.43179  0.28740  1.0000 -0.1605348894
C   C7        1.0  0.56821  0.07579  0.78740  1.0000 -0.1605348894
C   C8        1.0  0.07579  0.56821  0.71260  1.0000 -0.1605348894
C   C9        1.0  0.40889  0.01051  0.27620  1.0000 0.0277366331
C   C10       1.0  0.01051  0.40889  0.22380  1.0000 0.0277366331
C   C11       1.0  0.59111  0.98949  0.72380  1.0000 0.0277366331
C   C12       1.0  0.98949  0.59111  0.77620  1.0000 0.0277366331
C   C13       1.0  0.36951  0.96589  0.39270  1.0000 -0.1605348894
C   C14       1.0  0.96589  0.36951  0.10730  1.0000 -0.1605348894
C   C15       1.0  0.63049  0.03411  0.60730  1.0000 -0.1605348894
C   C16       1.0  0.03411  0.63049  0.89270  1.0000 -0.1605348894
C   C17       1.0  0.35834  0.83926  0.44350  1.0000 0.0928754425
C   C18       1.0  0.83926  0.35834  0.05650  1.0000 0.0928754425
C   C19       1.0  0.64166  0.16074  0.55650  1.0000 0.0928754425
C   C20       1.0  0.16074  0.64166  0.94350  1.0000 0.0928754425
C   C21       1.0  0.43665  0.69675  0.20790  1.0000 0.5869557103
C   C22       1.0  0.69675  0.43665  0.29210  1.0000 0.5869557103
C   C23       1.0  0.56335  0.30325  0.79210  1.0000 0.5869557103
C   C24       1.0  0.30325  0.56335  0.70790  1.0000 0.5869557103
C   C25       1.0  0.42780  0.15060  0.22280  1.0000 0.5869557103
C   C26       1.0  0.15060  0.42780  0.27720  1.0000 0.5869557103
C   C27       1.0  0.57220  0.84940  0.77720  1.0000 0.5869557103
C   C28       1.0  0.84940  0.57220  0.72280  1.0000 0.5869557103
N   N1        1.0  0.38203  0.75557  0.38450  1.0000 -0.322097958
N   N2        1.0  0.75557  0.38203  0.11550  1.0000 -0.322097958
N   N3        1.0  0.61797  0.24443  0.61550  1.0000 -0.322097958
N   N4        1.0  0.24443  0.61797  0.88450  1.0000 -0.322097958
O   O1        1.0  0.43799  0.59229  0.27771  1.0000 -0.6810741434
O   O2        1.0  0.59229  0.43799  0.22229  1.0000 -0.6810741434
O   O3        1.0  0.56201  0.40771  0.72229  1.0000 -0.6810741434
O   O4        1.0  0.40771  0.56201  0.77771  1.0000 -0.6810741434
O   O5        1.0  0.44971  0.72141  0.09568  1.0000 -0.5863369116
O   O6        1.0  0.72141  0.44971  0.40432  1.0000 -0.5848261127
O   O7        1.0  0.55029  0.27859  0.90432  1.0000 -0.5863369116
O   O8        1.0  0.27859  0.55029  0.59568  1.0000 -0.5863369116
O   O9        1.0  0.48899  0.19213  0.13240  1.0000 -0.6132724294
O   O10       1.0  0.19213  0.48899  0.36760  1.0000 -0.6132724294
O   O11       1.0  0.51101  0.80787  0.86760  1.0000 -0.6132724294
O   O12       1.0  0.80787  0.51101  0.63240  1.0000 -0.6132724294
O   O13       1.0  0.38075  0.21297  0.27600  1.0000 -0.631489546
O   O14       1.0  0.21297  0.38075  0.22400  1.0000 -0.631489546
O   O15       1.0  0.61925  0.78703  0.72400  1.0000 -0.631489546
O   O16       1.0  0.78703  0.61925  0.77600  1.0000 -0.631489546
O   O17       1.0  0.43681  0.39429  0.44620  1.0000 -1.0069963941
O   O18       1.0  0.39429  0.43681  0.05380  1.0000 -1.0069963941
O   O19       1.0  0.56319  0.60571  0.55380  1.0000 -1.0069963941
O   O20       1.0  0.60571  0.56319  0.94620  1.0000 -1.0069963941
