# DDEC6 charges by PACMAN v1.1 (https://github.com/mtap-research/PACMAN-charge/)
data_2015[Mg][nan]3[FSR]9
_chemical_formula_sum              "Mg6 H16 C28 N4 O20"
_cell_length_a       11.0308
_cell_length_b       11.0308
_cell_length_c       11.021
_cell_angle_alpha    79.593
_cell_angle_beta     100.407
_cell_angle_gamma    110.864

_symmetry_space_group_name_H-M    "P 1"
_symmetry_Int_Tables_number       1

loop_
  _symmetry_equiv_pos_as_xyz
  'x, y, z'

loop_
  _atom_site_type_symbol
  _atom_site_label
  _atom_site_symmetry_multiplicity
  _atom_site_fract_x
  _atom_site_fract_y
  _atom_site_fract_z
  _atom_site_occupancy
  _atom_site_charge
Mg  Mg1       1.0  0.90085  0.90085  0.75000  1.0000 1.3819794328
Mg  Mg2       1.0  0.09915  0.09915  0.25000  1.0000 1.3819794328
Mg  Mg3       1.0  0.87941  0.04795  0.95981  1.0000 1.3333618314
Mg  Mg4       1.0  0.04795  0.87941  0.54019  1.0000 1.3333618314
Mg  Mg5       1.0  0.12059  0.95205  0.04019  1.0000 1.3333618314
Mg  Mg6       1.0  0.95205  0.12059  0.45981  1.0000 1.3333618314
H   H1        1.0  0.88890  0.81310  0.97200  1.0000 0.3910284311
H   H2        1.0  0.81310  0.88890  0.52800  1.0000 0.3910284311
H   H3        1.0  0.11110  0.18690  0.02800  1.0000 0.3910284311
H   H4        1.0  0.18690  0.11110  0.47200  1.0000 0.3910284311
H   H5        1.0  0.95190  0.44410  0.64500  1.0000 0.1501143695
H   H6        1.0  0.44410  0.95190  0.85500  1.0000 0.1501143695
H   H7        1.0  0.04810  0.55590  0.35500  1.0000 0.1501143695
H   H8        1.0  0.55590  0.04810  0.14500  1.0000 0.1501143695
H   H9        1.0  0.84550  0.51250  0.93900  1.0000 0.1337743968
H   H10       1.0  0.51250  0.84550  0.56100  1.0000 0.1337743968
H   H11       1.0  0.15450  0.48750  0.06100  1.0000 0.1337743968
H   H12       1.0  0.48750  0.15450  0.43900  1.0000 0.1337743968
H   H13       1.0  0.83580  0.30020  0.02900  1.0000 0.1075605609
H   H14       1.0  0.30020  0.83580  0.47100  1.0000 0.1075605609
H   H15       1.0  0.16420  0.69980  0.97100  1.0000 0.1075605609
H   H16       1.0  0.69980  0.16420  0.52900  1.0000 0.1075605609
C   C1        1.0  0.91924  0.29674  0.77390  1.0000 0.0899243894
C   C2        1.0  0.29674  0.91924  0.72610  1.0000 0.0899243894
C   C3        1.0  0.08076  0.70326  0.22610  1.0000 0.0899243894
C   C4        1.0  0.70326  0.08076  0.27390  1.0000 0.0899243894
C   C5        1.0  0.93037  0.42063  0.71620  1.0000 -0.1431997634
C   C6        1.0  0.42063  0.93037  0.78380  1.0000 -0.1431997634
C   C7        1.0  0.06963  0.57937  0.28380  1.0000 -0.1431997634
C   C8        1.0  0.57937  0.06963  0.21620  1.0000 -0.1431997634
C   C9        1.0  0.90380  0.50526  0.77820  1.0000 0.0204513118
C   C10       1.0  0.50526  0.90380  0.72180  1.0000 0.0204513118
C   C11       1.0  0.09620  0.49474  0.22180  1.0000 0.0204513118
C   C12       1.0  0.49474  0.09620  0.27820  1.0000 0.0204513118
C   C13       1.0  0.86419  0.45941  0.89540  1.0000 -0.1606381267
C   C14       1.0  0.45941  0.86419  0.60460  1.0000 -0.1606381267
C   C15       1.0  0.13581  0.54059  0.10460  1.0000 -0.1606381267
C   C16       1.0  0.54059  0.13581  0.39540  1.0000 -0.1606381267
C   C17       1.0  0.85663  0.33377  0.94760  1.0000 0.0899243894
C   C18       1.0  0.33377  0.85663  0.55240  1.0000 0.0899243894
C   C19       1.0  0.14337  0.66623  0.05240  1.0000 0.0899243894
C   C20       1.0  0.66623  0.14337  0.44760  1.0000 0.0899243894
C   C21       1.0  0.94258  0.19644  0.71240  1.0000 0.5905739636
C   C22       1.0  0.19644  0.94258  0.78760  1.0000 0.5905739636
C   C23       1.0  0.05742  0.80356  0.28760  1.0000 0.5905739636
C   C24       1.0  0.80356  0.05742  0.21240  1.0000 0.5905739636
C   C25       1.0  0.91904  0.64566  0.72250  1.0000 0.5905739636
C   C26       1.0  0.64566  0.91904  0.77750  1.0000 0.5905739636
C   C27       1.0  0.08096  0.35434  0.27750  1.0000 0.5905739636
C   C28       1.0  0.35434  0.08096  0.22250  1.0000 0.5905739636
N   N1        1.0  0.88402  0.25224  0.88963  1.0000 -0.3218255594
N   N2        1.0  0.25224  0.88402  0.61037  1.0000 -0.3218255594
N   N3        1.0  0.11598  0.74776  0.11037  1.0000 -0.3218255594
N   N4        1.0  0.74776  0.11598  0.38963  1.0000 -0.3218255594
O   O1        1.0  0.94105  0.09159  0.78111  1.0000 -0.6687853664
O   O2        1.0  0.09159  0.94105  0.71889  1.0000 -0.6687853664
O   O3        1.0  0.05895  0.90841  0.21889  1.0000 -0.6687853664
O   O4        1.0  0.90841  0.05895  0.28111  1.0000 -0.6687853664
O   O5        1.0  0.95795  0.22215  0.60064  1.0000 -0.5816864102
O   O6        1.0  0.22215  0.95795  0.89936  1.0000 -0.5816864102
O   O7        1.0  0.04205  0.77785  0.39936  1.0000 -0.5816864102
O   O8        1.0  0.77785  0.04205  0.10064  1.0000 -0.5816864102
O   O9        1.0  0.97915  0.68879  0.62982  1.0000 -0.6070551753
O   O10       1.0  0.68879  0.97915  0.87018  1.0000 -0.6070551753
O   O11       1.0  0.02085  0.31121  0.37018  1.0000 -0.6070551753
O   O12       1.0  0.31121  0.02085  0.12982  1.0000 -0.6070551753
O   O13       1.0  0.87169  0.70553  0.77596  1.0000 -0.6220244496
O   O14       1.0  0.70553  0.87169  0.72404  1.0000 -0.6220244496
O   O15       1.0  0.12831  0.29447  0.22404  1.0000 -0.6220244496
O   O16       1.0  0.29447  0.12831  0.27596  1.0000 -0.6220244496
O   O17       1.0  0.93241  0.89079  0.94579  1.0000 -1.0830624728
O   O18       1.0  0.89079  0.93241  0.55421  1.0000 -1.0830624728
O   O19       1.0  0.06759  0.10921  0.05421  1.0000 -1.0830624728
O   O20       1.0  0.10921  0.06759  0.44579  1.0000 -1.0830624728
