# DDEC6 charges by PACMAN v1.1 (https://github.com/mtap-research/PACMAN-charge/)
data_2015[Dy][nan]3[FSR]3
_chemical_formula_sum              "Dy8 H96 C124 O64"
_cell_length_a       14.4821
_cell_length_b       16.7137
_cell_length_c       20.163
_cell_angle_alpha    90
_cell_angle_beta     115.035
_cell_angle_gamma    90

_symmetry_space_group_name_H-M    "P 1"
_symmetry_Int_Tables_number       1

loop_
  _symmetry_equiv_pos_as_xyz
  'x, y, z'

loop_
  _atom_site_type_symbol
  _atom_site_label
  _atom_site_symmetry_multiplicity
  _atom_site_fract_x
  _atom_site_fract_y
  _atom_site_fract_z
  _atom_site_occupancy
  _atom_site_charge
Dy  Dy1       1.0  0.99240  0.34370  0.66881  1.0000 1.9674121103
Dy  Dy2       1.0  0.00760  0.84370  0.83119  1.0000 1.9674121103
Dy  Dy3       1.0  0.00760  0.65630  0.33119  1.0000 1.9674121103
Dy  Dy4       1.0  0.99240  0.15630  0.16881  1.0000 1.9674121103
Dy  Dy5       1.0  0.69365  0.36380  0.77104  1.0000 1.9413340053
Dy  Dy6       1.0  0.30635  0.86380  0.72896  1.0000 1.9413340053
Dy  Dy7       1.0  0.30635  0.63620  0.22896  1.0000 1.9413340053
Dy  Dy8       1.0  0.69365  0.13620  0.27104  1.0000 1.9413340053
H   H1        1.0  0.92930  0.30550  0.93800  1.0000 0.1407765845
H   H2        1.0  0.07070  0.80550  0.56200  1.0000 0.1452417931
H   H3        1.0  0.07070  0.69450  0.06200  1.0000 0.1452417931
H   H4        1.0  0.92930  0.19450  0.43800  1.0000 0.1407765845
H   H5        1.0  0.21110  0.22100  0.05030  1.0000 0.1304619134
H   H6        1.0  0.78890  0.72100  0.44970  1.0000 0.1304619134
H   H7        1.0  0.78890  0.77900  0.94970  1.0000 0.1304619134
H   H8        1.0  0.21110  0.27900  0.55030  1.0000 0.1304619134
H   H9        1.0  0.14000  0.33090  0.85750  1.0000 0.1304619134
H   H10       1.0  0.86000  0.83090  0.64250  1.0000 0.1304619134
H   H11       1.0  0.86000  0.66910  0.14250  1.0000 0.1304619134
H   H12       1.0  0.14000  0.16910  0.35750  1.0000 0.1304619134
H   H13       1.0  0.54000  0.19450  0.07670  1.0000 0.1304619134
H   H14       1.0  0.46000  0.69450  0.42330  1.0000 0.1304619134
H   H15       1.0  0.46000  0.80550  0.92330  1.0000 0.1304619134
H   H16       1.0  0.54000  0.30550  0.57670  1.0000 0.1304619134
H   H17       1.0  0.76070  0.25490  0.01520  1.0000 0.1407765845
H   H18       1.0  0.23930  0.75490  0.48480  1.0000 0.1407765845
H   H19       1.0  0.23930  0.74510  0.98480  1.0000 0.1407765845
H   H20       1.0  0.76070  0.24510  0.51520  1.0000 0.1407765845
H   H21       1.0  0.46560  0.30830  0.88700  1.0000 0.1407765845
H   H22       1.0  0.53440  0.80830  0.61300  1.0000 0.1407765845
H   H23       1.0  0.53440  0.69170  0.11300  1.0000 0.1407765845
H   H24       1.0  0.46560  0.19170  0.38700  1.0000 0.1407765845
H   H25       1.0  0.32050  0.42270  0.87760  1.0000 0.1304619134
H   H26       1.0  0.67950  0.92270  0.62240  1.0000 0.1304619134
H   H27       1.0  0.67950  0.57730  0.12240  1.0000 0.1304619134
H   H28       1.0  0.32050  0.07730  0.37760  1.0000 0.1304619134
H   H29       1.0  0.45250  0.63610  0.89400  1.0000 0.1208398357
H   H30       1.0  0.54750  0.13610  0.60600  1.0000 0.1208398357
H   H31       1.0  0.54750  0.36390  0.10600  1.0000 0.1208398357
H   H32       1.0  0.45250  0.86390  0.39400  1.0000 0.1208398357
H   H33       1.0  0.20140  0.58320  0.71470  1.0000 0.1407765845
H   H34       1.0  0.79860  0.08320  0.78530  1.0000 0.1407765845
H   H35       1.0  0.79860  0.41680  0.28530  1.0000 0.1407765845
H   H36       1.0  0.20140  0.91680  0.21470  1.0000 0.1407765845
H   H37       1.0  0.74920  0.46020  0.51860  1.0000 0.1018118671
H   H38       1.0  0.25080  0.96020  0.98140  1.0000 0.1018118671
H   H39       1.0  0.25080  0.53980  0.48140  1.0000 0.1018118671
H   H40       1.0  0.74920  0.03980  0.01860  1.0000 0.1018118671
H   H41       1.0  0.81890  0.48390  0.47980  1.0000 0.1208398357
H   H42       1.0  0.18110  0.98390  0.02020  1.0000 0.1208398357
H   H43       1.0  0.18110  0.51610  0.52020  1.0000 0.1208398357
H   H44       1.0  0.81890  0.01610  0.97980  1.0000 0.1208398357
H   H45       1.0  0.78540  0.39460  0.47940  1.0000 0.1071692927
H   H46       1.0  0.21460  0.89460  0.02060  1.0000 0.1071692927
H   H47       1.0  0.21460  0.60540  0.52060  1.0000 0.1071692927
H   H48       1.0  0.78540  0.10540  0.97940  1.0000 0.1071692927
H   H49       1.0  0.94580  0.12420  0.69310  1.0000 0.1407765845
H   H50       1.0  0.05420  0.62420  0.80690  1.0000 0.1407765845
H   H51       1.0  0.05420  0.87580  0.30690  1.0000 0.1407765845
H   H52       1.0  0.94580  0.37580  0.19310  1.0000 0.1407765845
H   H53       1.0  0.04720  0.10590  0.76230  1.0000 0.1304619134
H   H54       1.0  0.95280  0.60590  0.73770  1.0000 0.1304619134
H   H55       1.0  0.95280  0.89410  0.23770  1.0000 0.1304619134
H   H56       1.0  0.04720  0.39410  0.26230  1.0000 0.1304619134
H   H57       1.0  0.96260  0.15880  0.76960  1.0000 0.1208398357
H   H58       1.0  0.03740  0.65880  0.73040  1.0000 0.1208398357
H   H59       1.0  0.03740  0.84120  0.23040  1.0000 0.1208398357
H   H60       1.0  0.96260  0.34120  0.26960  1.0000 0.1208398357
H   H61       1.0  0.82270  0.53750  0.91130  1.0000 0.1407765845
H   H62       1.0  0.17730  0.03750  0.58870  1.0000 0.1407765845
H   H63       1.0  0.17730  0.46250  0.08870  1.0000 0.1407765845
H   H64       1.0  0.82270  0.96250  0.41130  1.0000 0.1407765845
H   H65       1.0  0.75390  0.60540  0.86060  1.0000 0.1304619134
H   H66       1.0  0.24610  0.10540  0.63940  1.0000 0.1304619134
H   H67       1.0  0.24610  0.39460  0.13940  1.0000 0.1304619134
H   H68       1.0  0.75390  0.89460  0.36060  1.0000 0.1304619134
H   H69       1.0  0.71690  0.55710  0.91150  1.0000 0.1304619134
H   H70       1.0  0.28310  0.05710  0.58850  1.0000 0.1304619134
H   H71       1.0  0.28310  0.44290  0.08850  1.0000 0.1304619134
H   H72       1.0  0.71690  0.94290  0.41150  1.0000 0.1304619134
H   H73       1.0  0.53820  0.50900  0.60560  1.0000 0.1407765845
H   H74       1.0  0.46180  0.00900  0.89440  1.0000 0.1407765845
H   H75       1.0  0.46180  0.49100  0.39440  1.0000 0.1407765845
H   H76       1.0  0.53820  0.99100  0.10560  1.0000 0.1407765845
H   H77       1.0  0.42980  0.48260  0.59690  1.0000 0.1304619134
H   H78       1.0  0.57020  0.98260  0.90310  1.0000 0.1304619134
H   H79       1.0  0.57020  0.51740  0.40310  1.0000 0.1304619134
H   H80       1.0  0.42980  0.01740  0.09690  1.0000 0.1304619134
H   H81       1.0  0.49200  0.54620  0.65620  1.0000 0.1208398357
H   H82       1.0  0.50800  0.04620  0.84380  1.0000 0.1208398357
H   H83       1.0  0.50800  0.45380  0.34380  1.0000 0.1208398357
H   H84       1.0  0.49200  0.95380  0.15620  1.0000 0.1208398357
H   H85       1.0  0.08610  0.22940  0.76680  1.0000 0.3302847151
H   H86       1.0  0.91390  0.72940  0.73320  1.0000 0.3302847151
H   H87       1.0  0.91390  0.77060  0.23320  1.0000 0.3302847151
H   H88       1.0  0.08610  0.27060  0.26680  1.0000 0.3302847151
H   H89       1.0  0.64780  0.50390  0.78270  1.0000 0.3248510918
H   H90       1.0  0.35220  0.00390  0.71730  1.0000 0.3302847151
H   H91       1.0  0.35220  0.49610  0.21730  1.0000 0.3302847151
H   H92       1.0  0.64780  0.99610  0.28270  1.0000 0.3302847151
H   H93       1.0  0.51520  0.43910  0.71490  1.0000 0.3432525358
H   H94       1.0  0.48480  0.93910  0.78510  1.0000 0.3432525358
H   H95       1.0  0.48480  0.56090  0.28510  1.0000 0.3432525358
H   H96       1.0  0.51520  0.06090  0.21490  1.0000 0.3432525358
C   C1        1.0  0.02080  0.32580  0.88620  1.0000 -0.0533360402
C   C2        1.0  0.97920  0.82580  0.61380  1.0000 -0.0533360402
C   C3        1.0  0.97920  0.67420  0.11380  1.0000 -0.0533360402
C   C4        1.0  0.02080  0.17420  0.38620  1.0000 -0.0533360402
C   C5        1.0  0.99540  0.29820  0.94260  1.0000 -0.0734730193
C   C6        1.0  0.00460  0.79820  0.55740  1.0000 -0.0751132929
C   C7        1.0  0.00460  0.70180  0.05740  1.0000 -0.0751132929
C   C8        1.0  0.99540  0.20180  0.44260  1.0000 -0.0751132929
C   C9        1.0  0.06590  0.26030  0.00470  1.0000 -0.027202759
C   C10       1.0  0.93410  0.76030  0.49530  1.0000 -0.027202759
C   C11       1.0  0.93410  0.73970  0.99530  1.0000 -0.027202759
C   C12       1.0  0.06590  0.23970  0.50470  1.0000 -0.027202759
C   C13       1.0  0.16360  0.24800  0.01000  1.0000 -0.1410528519
C   C14       1.0  0.83640  0.74800  0.49000  1.0000 -0.1410528519
C   C15       1.0  0.83640  0.75200  0.99000  1.0000 -0.1410528519
C   C16       1.0  0.16360  0.25200  0.51000  1.0000 -0.1410528519
C   C17       1.0  0.19130  0.27530  0.95610  1.0000 0.1208398357
C   C18       1.0  0.80870  0.77530  0.54390  1.0000 0.1208398357
C   C19       1.0  0.80870  0.72470  0.04390  1.0000 0.1208398357
C   C20       1.0  0.19130  0.22470  0.45610  1.0000 0.1208398357
C   C21       1.0  0.12100  0.31360  0.89380  1.0000 -0.1694396475
C   C22       1.0  0.87900  0.81360  0.60620  1.0000 -0.1694396475
C   C23       1.0  0.87900  0.68640  0.10620  1.0000 -0.1694396475
C   C24       1.0  0.12100  0.18640  0.39380  1.0000 -0.1694396475
C   C25       1.0  0.95090  0.37250  0.82380  1.0000 0.6428573093
C   C26       1.0  0.04910  0.87250  0.67620  1.0000 0.6428573093
C   C27       1.0  0.04910  0.62750  0.17620  1.0000 0.6428573093
C   C28       1.0  0.95090  0.12750  0.32380  1.0000 0.6428573093
C   C29       1.0  0.03800  0.22430  0.05990  1.0000 0.5469834095
C   C30       1.0  0.96200  0.72430  0.44010  1.0000 0.5469834095
C   C31       1.0  0.96200  0.77570  0.94010  1.0000 0.5469834095
C   C32       1.0  0.03800  0.27570  0.55990  1.0000 0.5469834095
C   C33       1.0  0.29490  0.26140  0.96330  1.0000 -0.0896048417
C   C34       1.0  0.70510  0.76140  0.53670  1.0000 -0.0896048417
C   C35       1.0  0.70510  0.73860  0.03670  1.0000 -0.0896048417
C   C36       1.0  0.29490  0.23860  0.46330  1.0000 -0.0896048417
C   C37       1.0  0.37800  0.25220  0.96940  1.0000 -0.0896048417
C   C38       1.0  0.62200  0.75220  0.53060  1.0000 -0.0896048417
C   C39       1.0  0.62200  0.74780  0.03060  1.0000 -0.0896048417
C   C40       1.0  0.37800  0.24780  0.46940  1.0000 -0.0896048417
C   C41       1.0  0.48150  0.25070  0.97720  1.0000 0.1208398357
C   C42       1.0  0.51850  0.75070  0.52280  1.0000 0.1208398357
C   C43       1.0  0.51850  0.74930  0.02280  1.0000 0.1208398357
C   C44       1.0  0.48150  0.24930  0.47720  1.0000 0.1208398357
C   C45       1.0  0.55790  0.21760  0.04180  1.0000 -0.1410528519
C   C46       1.0  0.44210  0.71760  0.45820  1.0000 -0.1410528519
C   C47       1.0  0.44210  0.78240  0.95820  1.0000 -0.1410528519
C   C48       1.0  0.55790  0.28240  0.54180  1.0000 -0.1410528519
C   C49       1.0  0.65890  0.21940  0.05320  1.0000 -0.0533360402
C   C50       1.0  0.34110  0.71940  0.44680  1.0000 -0.0533360402
C   C51       1.0  0.34110  0.78060  0.94680  1.0000 -0.0533360402
C   C52       1.0  0.65890  0.28060  0.55320  1.0000 -0.0533360402
C   C53       1.0  0.69210  0.25390  0.00580  1.0000 -0.0734730193
C   C54       1.0  0.30790  0.75390  0.49420  1.0000 -0.0734730193
C   C55       1.0  0.30790  0.74610  0.99420  1.0000 -0.0734730193
C   C56       1.0  0.69210  0.24610  0.50580  1.0000 -0.0734730193
C   C57       1.0  0.61570  0.28840  0.94080  1.0000 -0.0406349051
C   C58       1.0  0.38430  0.78840  0.55920  1.0000 -0.0406349051
C   C59       1.0  0.38430  0.71160  0.05920  1.0000 -0.0406349051
C   C60       1.0  0.61570  0.21160  0.44080  1.0000 -0.0406349051
C   C61       1.0  0.51420  0.28540  0.92950  1.0000 -0.1410528519
C   C62       1.0  0.48580  0.78540  0.57050  1.0000 -0.1410528519
C   C63       1.0  0.48580  0.71460  0.07050  1.0000 -0.1410528519
C   C64       1.0  0.51420  0.21460  0.42950  1.0000 -0.1410528519
C   C65       1.0  0.73920  0.18710  0.12130  1.0000 0.6614216528
C   C66       1.0  0.26080  0.68710  0.37870  1.0000 0.6614216528
C   C67       1.0  0.26080  0.81290  0.87870  1.0000 0.6614216528
C   C68       1.0  0.73920  0.31290  0.62130  1.0000 0.6614216528
C   C69       1.0  0.64150  0.32300  0.88560  1.0000 0.5364357046
C   C70       1.0  0.35850  0.82300  0.61440  1.0000 0.5364357046
C   C71       1.0  0.35850  0.67700  0.11440  1.0000 0.5364357046
C   C72       1.0  0.64150  0.17700  0.38560  1.0000 0.5364357046
C   C73       1.0  0.24500  0.49290  0.78880  1.0000 0.0025071417
C   C74       1.0  0.75500  0.99290  0.71120  1.0000 0.0025071417
C   C75       1.0  0.75500  0.50710  0.21120  1.0000 0.0025071417
C   C76       1.0  0.24500  0.00710  0.28880  1.0000 0.0025071417
C   C77       1.0  0.32130  0.47300  0.85820  1.0000 -0.1410528519
C   C78       1.0  0.67870  0.97300  0.64180  1.0000 -0.1410528519
C   C79       1.0  0.67870  0.52700  0.14180  1.0000 -0.1410528519
C   C80       1.0  0.32130  0.02700  0.35820  1.0000 -0.1410528519
C   C81       1.0  0.39750  0.52650  0.89830  1.0000 0.1208398357
C   C82       1.0  0.60250  0.02650  0.60170  1.0000 0.1208398357
C   C83       1.0  0.60250  0.47350  0.10170  1.0000 0.1208398357
C   C84       1.0  0.39750  0.97350  0.39830  1.0000 0.1208398357
C   C85       1.0  0.40020  0.60060  0.86810  1.0000 -0.1410528519
C   C86       1.0  0.59980  0.10060  0.63190  1.0000 -0.1410528519
C   C87       1.0  0.59980  0.39940  0.13190  1.0000 -0.1410528519
C   C88       1.0  0.40020  0.89940  0.36810  1.0000 -0.1410528519
C   C89       1.0  0.32550  0.62270  0.79910  1.0000 -0.0143379756
C   C90       1.0  0.67450  0.12270  0.70090  1.0000 -0.0143379756
C   C91       1.0  0.67450  0.37730  0.20090  1.0000 -0.0143379756
C   C92       1.0  0.32550  0.87730  0.29910  1.0000 -0.0143379756
C   C93       1.0  0.25030  0.56890  0.76070  1.0000 -0.1110375264
C   C94       1.0  0.74970  0.06890  0.73930  1.0000 -0.1110375264
C   C95       1.0  0.74970  0.43110  0.23930  1.0000 -0.1110375264
C   C96       1.0  0.25030  0.93110  0.26070  1.0000 -0.1110375264
C   C97       1.0  0.16050  0.43780  0.74280  1.0000 0.5640446505
C   C98       1.0  0.83950  0.93780  0.75720  1.0000 0.5640446505
C   C99       1.0  0.83950  0.56220  0.25720  1.0000 0.5640446505
C   C100      1.0  0.16050  0.06220  0.24280  1.0000 0.5640446505
C   C101      1.0  0.31920  0.70260  0.76630  1.0000 0.5469834095
C   C102      1.0  0.68080  0.20260  0.73370  1.0000 0.5469834095
C   C103      1.0  0.68080  0.29740  0.23370  1.0000 0.5469834095
C   C104      1.0  0.31920  0.79740  0.26630  1.0000 0.5469834095
C   C105      1.0  0.47070  0.50850  0.97070  1.0000 -0.0896048417
C   C106      1.0  0.52930  0.00850  0.52930  1.0000 -0.0896048417
C   C107      1.0  0.52930  0.49150  0.02930  1.0000 -0.0896048417
C   C108      1.0  0.47070  0.99150  0.47070  1.0000 -0.0896048417
C   C109      1.0  0.80430  0.44310  0.50750  1.0000 -0.1694396475
C   C110      1.0  0.19570  0.94310  0.99250  1.0000 -0.1694396475
C   C111      1.0  0.19570  0.55690  0.49250  1.0000 -0.1694396475
C   C112      1.0  0.80430  0.05690  0.00750  1.0000 -0.1694396475
C   C113      1.0  0.99530  0.14530  0.73850  1.0000 -0.1804782339
C   C114      1.0  0.00470  0.64530  0.76150  1.0000 -0.1804782339
C   C115      1.0  0.00470  0.85470  0.26150  1.0000 -0.1804782339
C   C116      1.0  0.99530  0.35470  0.23850  1.0000 -0.1804782339
C   C117      1.0  0.75380  0.55390  0.88170  1.0000 -0.1804782339
C   C118      1.0  0.24620  0.05390  0.61830  1.0000 -0.1856574156
C   C119      1.0  0.24620  0.44610  0.11830  1.0000 -0.1856574156
C   C120      1.0  0.75380  0.94610  0.38170  1.0000 -0.1804782339
C   C121      1.0  0.49670  0.49860  0.63120  1.0000 -0.1995173508
C   C122      1.0  0.50330  0.99860  0.86880  1.0000 -0.1995173508
C   C123      1.0  0.50330  0.50140  0.36880  1.0000 -0.1995173508
C   C124      1.0  0.49670  0.00140  0.13120  1.0000 -0.1995173508
O   O1        1.0  0.97367  0.38550  0.77307  1.0000 -0.6059377083
O   O2        1.0  0.02633  0.88550  0.72693  1.0000 -0.6059377083
O   O3        1.0  0.02633  0.61450  0.22693  1.0000 -0.6059377083
O   O4        1.0  0.97367  0.11450  0.27307  1.0000 -0.6059377083
O   O5        1.0  0.86430  0.38880  0.82080  1.0000 -0.644679431
O   O6        1.0  0.13570  0.88880  0.67920  1.0000 -0.644679431
O   O7        1.0  0.13570  0.61120  0.17920  1.0000 -0.644679431
O   O8        1.0  0.86430  0.11120  0.32080  1.0000 -0.644679431
O   O9        1.0  0.95520  0.24230  0.06140  1.0000 -0.5711492935
O   O10       1.0  0.04480  0.74230  0.43860  1.0000 -0.5711492935
O   O11       1.0  0.04480  0.75770  0.93860  1.0000 -0.5711492935
O   O12       1.0  0.95520  0.25770  0.56140  1.0000 -0.5711492935
O   O13       1.0  0.09970  0.18090  0.10610  1.0000 -0.5603387171
O   O14       1.0  0.90030  0.68090  0.39390  1.0000 -0.5603387171
O   O15       1.0  0.90030  0.81910  0.89390  1.0000 -0.5603387171
O   O16       1.0  0.09970  0.31910  0.60610  1.0000 -0.5603387171
O   O17       1.0  0.71300  0.13900  0.16250  1.0000 -0.7235370019
O   O18       1.0  0.28700  0.63900  0.33750  1.0000 -0.7235370019
O   O19       1.0  0.28700  0.86100  0.83750  1.0000 -0.7235370019
O   O20       1.0  0.71300  0.36100  0.66250  1.0000 -0.7235370019
O   O21       1.0  0.83330  0.20550  0.14080  1.0000 -0.650027942
O   O22       1.0  0.16670  0.70550  0.35920  1.0000 -0.650027942
O   O23       1.0  0.16670  0.79450  0.85920  1.0000 -0.650027942
O   O24       1.0  0.83330  0.29450  0.64080  1.0000 -0.650027942
O   O25       1.0  0.73070  0.32560  0.89770  1.0000 -0.5088092425
O   O26       1.0  0.26930  0.82560  0.60230  1.0000 -0.5088092425
O   O27       1.0  0.26930  0.67440  0.10230  1.0000 -0.5088092425
O   O28       1.0  0.73070  0.17440  0.39770  1.0000 -0.5088092425
O   O29       1.0  0.58180  0.34830  0.82700  1.0000 -0.5603387171
O   O30       1.0  0.41820  0.84830  0.67300  1.0000 -0.5603387171
O   O31       1.0  0.41820  0.65170  0.17300  1.0000 -0.5603387171
O   O32       1.0  0.58180  0.15170  0.32700  1.0000 -0.5603387171
O   O33       1.0  0.16995  0.36480  0.76145  1.0000 -0.650027942
O   O34       1.0  0.83005  0.86480  0.73855  1.0000 -0.650027942
O   O35       1.0  0.83005  0.63520  0.23855  1.0000 -0.650027942
O   O36       1.0  0.16995  0.13520  0.26145  1.0000 -0.650027942
O   O37       1.0  0.08040  0.46660  0.69580  1.0000 -0.5803017655
O   O38       1.0  0.91960  0.96660  0.80420  1.0000 -0.5803017655
O   O39       1.0  0.91960  0.53340  0.30420  1.0000 -0.5803017655
O   O40       1.0  0.08040  0.03340  0.19580  1.0000 -0.5803017655
O   O41       1.0  0.24400  0.72950  0.72070  1.0000 -0.5157691875
O   O42       1.0  0.75600  0.22950  0.77930  1.0000 -0.5157691875
O   O43       1.0  0.75600  0.27050  0.27930  1.0000 -0.5157691875
O   O44       1.0  0.24400  0.77050  0.22070  1.0000 -0.5157691875
O   O45       1.0  0.40530  0.74520  0.78990  1.0000 -0.6615480819
O   O46       1.0  0.59470  0.24520  0.71010  1.0000 -0.6615480819
O   O47       1.0  0.59470  0.25480  0.21010  1.0000 -0.6615480819
O   O48       1.0  0.40530  0.75480  0.28990  1.0000 -0.6615480819
O   O49       1.0  0.89210  0.42900  0.57350  1.0000 -0.5157691875
O   O50       1.0  0.10790  0.92900  0.92650  1.0000 -0.5157691875
O   O51       1.0  0.10790  0.57100  0.42650  1.0000 -0.5157691875
O   O52       1.0  0.89210  0.07100  0.07350  1.0000 -0.5157691875
O   O53       1.0  0.04210  0.21730  0.72410  1.0000 -0.4810534307
O   O54       1.0  0.95790  0.71730  0.77590  1.0000 -0.4810534307
O   O55       1.0  0.95790  0.78270  0.27590  1.0000 -0.4810534307
O   O56       1.0  0.04210  0.28270  0.22410  1.0000 -0.4810534307
O   O57       1.0  0.70220  0.49250  0.82020  1.0000 -0.4810534307
O   O58       1.0  0.29780  0.99250  0.67980  1.0000 -0.4810534307
O   O59       1.0  0.29780  0.50750  0.17980  1.0000 -0.4810534307
O   O60       1.0  0.70220  0.00750  0.32020  1.0000 -0.4810534307
O   O61       1.0  0.54510  0.43130  0.68720  1.0000 -0.4642429092
O   O62       1.0  0.45490  0.93130  0.81280  1.0000 -0.4642429092
O   O63       1.0  0.45490  0.56870  0.31280  1.0000 -0.4642429092
O   O64       1.0  0.54510  0.06870  0.18720  1.0000 -0.4642429092
