# DDEC6 charges by PACMAN v1.1 (https://github.com/mtap-research/PACMAN-charge/)
data_2015[Eu][nan]3[FSR]9
_chemical_formula_sum              "Eu3 H45 C99 O21"
_cell_length_a       20.8382
_cell_length_b       20.8382
_cell_length_c       20.8382
_cell_angle_alpha    115.475
_cell_angle_beta     115.475
_cell_angle_gamma    115.475

_symmetry_space_group_name_H-M    "P 1"
_symmetry_Int_Tables_number       1

loop_
  _symmetry_equiv_pos_as_xyz
  'x, y, z'

loop_
  _atom_site_type_symbol
  _atom_site_label
  _atom_site_symmetry_multiplicity
  _atom_site_fract_x
  _atom_site_fract_y
  _atom_site_fract_z
  _atom_site_occupancy
  _atom_site_charge
Eu  Eu1       1.0  0.67572  0.32428  0.00000  1.0000 2.0130810791
Eu  Eu2       1.0  0.32428  0.00000  0.67572  1.0000 2.0130810791
Eu  Eu3       1.0  0.00000  0.67572  0.32428  1.0000 2.0130810791
H   H1        1.0  0.07305  0.66725  0.15653  1.0000 0.1011242399
H   H2        1.0  0.66725  0.15653  0.07305  1.0000 0.1011242399
H   H3        1.0  0.15653  0.07305  0.66725  1.0000 0.1011242399
H   H4        1.0  0.92695  0.84347  0.33275  1.0000 0.1011242399
H   H5        1.0  0.33275  0.92695  0.84347  1.0000 0.1011242399
H   H6        1.0  0.84347  0.33275  0.92695  1.0000 0.1011242399
H   H7        1.0  0.14030  0.66725  0.08928  1.0000 0.1118013971
H   H8        1.0  0.66725  0.08928  0.14030  1.0000 0.1118013971
H   H9        1.0  0.08928  0.14030  0.66725  1.0000 0.1118013971
H   H10       1.0  0.85970  0.91072  0.33275  1.0000 0.1118013971
H   H11       1.0  0.33275  0.85970  0.91072  1.0000 0.1118013971
H   H12       1.0  0.91072  0.33275  0.85970  1.0000 0.1118013971
H   H13       1.0  0.19169  0.43639  0.88351  1.0000 0.1302796849
H   H14       1.0  0.43639  0.88351  0.19169  1.0000 0.1302796849
H   H15       1.0  0.88351  0.19169  0.43639  1.0000 0.1302796849
H   H16       1.0  0.80831  0.11649  0.56361  1.0000 0.1302796849
H   H17       1.0  0.56361  0.80831  0.11649  1.0000 0.1302796849
H   H18       1.0  0.11649  0.56361  0.80831  1.0000 0.1302796849
H   H19       1.0  0.25287  0.50000  0.74713  1.0000 0.1383288937
H   H20       1.0  0.50000  0.74713  0.25287  1.0000 0.1383288937
H   H21       1.0  0.74713  0.25287  0.50000  1.0000 0.1383288937
H   H22       1.0  0.25502  0.24470  0.79406  1.0000 0.1118013971
H   H23       1.0  0.24470  0.79406  0.25502  1.0000 0.1118013971
H   H24       1.0  0.79406  0.25502  0.24470  1.0000 0.1118013971
H   H25       1.0  0.74498  0.20594  0.75530  1.0000 0.1118013971
H   H26       1.0  0.75530  0.74498  0.20594  1.0000 0.1118013971
H   H27       1.0  0.20594  0.75530  0.74498  1.0000 0.1118013971
H   H28       1.0  0.33487  0.19134  0.80207  1.0000 0.1302796849
H   H29       1.0  0.19134  0.80207  0.33487  1.0000 0.1302796849
H   H30       1.0  0.80207  0.33487  0.19134  1.0000 0.1302796849
H   H31       1.0  0.66513  0.19793  0.80866  1.0000 0.1302796849
H   H32       1.0  0.80866  0.66513  0.19793  1.0000 0.1302796849
H   H33       1.0  0.19793  0.80866  0.66513  1.0000 0.1302796849
H   H34       1.0  0.56355  0.43906  0.87399  1.0000 0.1302796849
H   H35       1.0  0.43906  0.87399  0.56355  1.0000 0.1302796849
H   H36       1.0  0.87399  0.56355  0.43906  1.0000 0.1302796849
H   H37       1.0  0.43645  0.12601  0.56094  1.0000 0.1302796849
H   H38       1.0  0.56094  0.43645  0.12601  1.0000 0.1302796849
H   H39       1.0  0.12601  0.56094  0.43645  1.0000 0.1302796849
H   H40       1.0  0.48370  0.49242  0.86598  1.0000 0.1237520381
H   H41       1.0  0.49242  0.86598  0.48370  1.0000 0.1237520381
H   H42       1.0  0.86598  0.48370  0.49242  1.0000 0.1237520381
H   H43       1.0  0.51630  0.13402  0.50758  1.0000 0.1237520381
H   H44       1.0  0.50758  0.51630  0.13402  1.0000 0.1237520381
H   H45       1.0  0.13402  0.50758  0.51630  1.0000 0.1237520381
C   C1        1.0  0.91467  0.50000  0.08533  1.0000 0.6014712705
C   C2        1.0  0.50000  0.08533  0.91467  1.0000 0.6014712705
C   C3        1.0  0.08533  0.91467  0.50000  1.0000 0.6014712705
C   C4        1.0  0.95639  0.50000  0.04361  1.0000 -0.0486566321
C   C5        1.0  0.50000  0.04361  0.95639  1.0000 -0.0486566321
C   C6        1.0  0.04361  0.95639  0.50000  1.0000 -0.0486566321
C   C7        1.0  0.04012  0.59668  0.09259  1.0000 -0.0889322275
C   C8        1.0  0.59668  0.09259  0.04012  1.0000 -0.0889322275
C   C9        1.0  0.09259  0.04012  0.59668  1.0000 -0.0889322275
C   C10       1.0  0.95988  0.90741  0.40332  1.0000 -0.0889322275
C   C11       1.0  0.40332  0.95988  0.90741  1.0000 -0.0889322275
C   C12       1.0  0.90741  0.40332  0.95988  1.0000 -0.0889322275
C   C13       1.0  0.07900  0.59668  0.05371  1.0000 -0.1550094432
C   C14       1.0  0.59668  0.05371  0.07900  1.0000 -0.1550094432
C   C15       1.0  0.05371  0.07900  0.59668  1.0000 -0.1550094432
C   C16       1.0  0.92100  0.94629  0.40332  1.0000 -0.1550094432
C   C17       1.0  0.40332  0.92100  0.94629  1.0000 -0.1550094432
C   C18       1.0  0.94629  0.40332  0.92100  1.0000 -0.1550094432
C   C19       1.0  0.03362  0.50000  0.96638  1.0000 0.1383288937
C   C20       1.0  0.50000  0.96638  0.03362  1.0000 0.1383288937
C   C21       1.0  0.96638  0.03362  0.50000  1.0000 0.1383288937
C   C22       1.0  0.07400  0.50000  0.92600  1.0000 -0.0889322275
C   C23       1.0  0.50000  0.92600  0.07400  1.0000 -0.0889322275
C   C24       1.0  0.92600  0.07400  0.50000  1.0000 -0.0889322275
C   C25       1.0  0.10692  0.50000  0.89308  1.0000 -0.0776113276
C   C26       1.0  0.50000  0.89308  0.10692  1.0000 -0.0776113276
C   C27       1.0  0.89308  0.10692  0.50000  1.0000 -0.0776113276
C   C28       1.0  0.14729  0.50000  0.85271  1.0000 0.1383288937
C   C29       1.0  0.50000  0.85271  0.14729  1.0000 0.1383288937
C   C30       1.0  0.85271  0.14729  0.50000  1.0000 0.1383288937
C   C31       1.0  0.18936  0.46323  0.85411  1.0000 -0.1834057739
C   C32       1.0  0.46323  0.85411  0.18936  1.0000 -0.1834057739
C   C33       1.0  0.85411  0.18936  0.46323  1.0000 -0.1834057739
C   C34       1.0  0.81064  0.14589  0.53677  1.0000 -0.1834057739
C   C35       1.0  0.53677  0.81064  0.14589  1.0000 -0.1834057739
C   C36       1.0  0.14589  0.53677  0.81064  1.0000 -0.1834057739
C   C37       1.0  0.22768  0.46323  0.81579  1.0000 0.1302796849
C   C38       1.0  0.46323  0.81579  0.22768  1.0000 0.1302796849
C   C39       1.0  0.81579  0.22768  0.46323  1.0000 0.1302796849
C   C40       1.0  0.77232  0.18421  0.53677  1.0000 0.1302796849
C   C41       1.0  0.53677  0.77232  0.18421  1.0000 0.1302796849
C   C42       1.0  0.18421  0.53677  0.77232  1.0000 0.1302796849
C   C43       1.0  0.22449  0.50000  0.77551  1.0000 -0.1851340777
C   C44       1.0  0.50000  0.77551  0.22449  1.0000 -0.1851340777
C   C45       1.0  0.77551  0.22449  0.50000  1.0000 -0.1851340777
C   C46       1.0  0.27687  0.43036  0.82073  1.0000 -0.0776113276
C   C47       1.0  0.43036  0.82073  0.27687  1.0000 -0.0776113276
C   C48       1.0  0.82073  0.27687  0.43036  1.0000 -0.0776113276
C   C49       1.0  0.72313  0.17927  0.56964  1.0000 -0.0776113276
C   C50       1.0  0.56964  0.72313  0.17927  1.0000 -0.0776113276
C   C51       1.0  0.17927  0.56964  0.72313  1.0000 -0.0776113276
C   C52       1.0  0.31562  0.40447  0.82462  1.0000 -0.0889322275
C   C53       1.0  0.40447  0.82462  0.31562  1.0000 -0.0889322275
C   C54       1.0  0.82462  0.31562  0.40447  1.0000 -0.0889322275
C   C55       1.0  0.68438  0.17538  0.59553  1.0000 -0.0889322275
C   C56       1.0  0.59553  0.68438  0.17538  1.0000 -0.0889322275
C   C57       1.0  0.17538  0.59553  0.68438  1.0000 -0.0889322275
C   C58       1.0  0.36380  0.37227  0.82946  1.0000 0.1118013971
C   C59       1.0  0.37227  0.82946  0.36380  1.0000 0.1118013971
C   C60       1.0  0.82946  0.36380  0.37227  1.0000 0.1118013971
C   C61       1.0  0.63620  0.17054  0.62773  1.0000 0.1118013971
C   C62       1.0  0.62773  0.63620  0.17054  1.0000 0.1118013971
C   C63       1.0  0.17054  0.62773  0.63620  1.0000 0.1118013971
C   C64       1.0  0.32011  0.28570  0.81092  1.0000 -0.1199914145
C   C65       1.0  0.28570  0.81092  0.32011  1.0000 -0.1199914145
C   C66       1.0  0.81092  0.32011  0.28570  1.0000 -0.1199914145
C   C67       1.0  0.67989  0.18908  0.71430  1.0000 -0.1199914145
C   C68       1.0  0.71430  0.67989  0.18908  1.0000 -0.1199914145
C   C69       1.0  0.18908  0.71430  0.67989  1.0000 -0.1199914145
C   C70       1.0  0.36627  0.25486  0.81556  1.0000 -0.1199914145
C   C71       1.0  0.25486  0.81556  0.36627  1.0000 -0.1199914145
C   C72       1.0  0.81556  0.36627  0.25486  1.0000 -0.1199914145
C   C73       1.0  0.63373  0.18444  0.74514  1.0000 -0.1199914145
C   C74       1.0  0.74514  0.63373  0.18444  1.0000 -0.1199914145
C   C75       1.0  0.18444  0.74514  0.63373  1.0000 -0.1199914145
C   C76       1.0  0.45477  0.31148  0.83859  1.0000 -0.0094308927
C   C77       1.0  0.31148  0.83859  0.45477  1.0000 -0.0094308927
C   C78       1.0  0.83859  0.45477  0.31148  1.0000 -0.0094308927
C   C79       1.0  0.54523  0.16141  0.68852  1.0000 -0.0094308927
C   C80       1.0  0.68852  0.54523  0.16141  1.0000 -0.0094308927
C   C81       1.0  0.16141  0.68852  0.54523  1.0000 -0.0094308927
C   C82       1.0  0.49846  0.39805  0.85713  1.0000 -0.0889322275
C   C83       1.0  0.39805  0.85713  0.49846  1.0000 -0.0889322275
C   C84       1.0  0.85713  0.49846  0.39805  1.0000 -0.0889322275
C   C85       1.0  0.50154  0.14287  0.60195  1.0000 -0.0889322275
C   C86       1.0  0.60195  0.50154  0.14287  1.0000 -0.0889322275
C   C87       1.0  0.14287  0.60195  0.50154  1.0000 -0.0889322275
C   C88       1.0  0.45230  0.42890  0.85249  1.0000 -0.1427863783
C   C89       1.0  0.42890  0.85249  0.45230  1.0000 -0.1427863783
C   C90       1.0  0.85249  0.45230  0.42890  1.0000 -0.1427863783
C   C91       1.0  0.54770  0.14751  0.57110  1.0000 -0.1427863783
C   C92       1.0  0.57110  0.54770  0.14751  1.0000 -0.1427863783
C   C93       1.0  0.14751  0.57110  0.54770  1.0000 -0.1427863783
C   C94       1.0  0.50396  0.27861  0.84353  1.0000 0.5739358717
C   C95       1.0  0.27861  0.84353  0.50396  1.0000 0.5739358717
C   C96       1.0  0.84353  0.50396  0.27861  1.0000 0.5739358717
C   C97       1.0  0.49604  0.15647  0.72139  1.0000 0.5739358717
C   C98       1.0  0.72139  0.49604  0.15647  1.0000 0.5739358717
C   C99       1.0  0.15647  0.72139  0.49604  1.0000 0.5739358717
O   O1        1.0  0.74952  0.25048  0.00000  1.0000 -0.2291474959
O   O2        1.0  0.25048  0.00000  0.74952  1.0000 -0.2355117893
O   O3        1.0  0.00000  0.74952  0.25048  1.0000 -0.2291474959
O   O4        1.0  0.84089  0.41302  0.04610  1.0000 -0.5980524466
O   O5        1.0  0.41302  0.04610  0.84089  1.0000 -0.5980524466
O   O6        1.0  0.04610  0.84089  0.41302  1.0000 -0.5980524466
O   O7        1.0  0.15911  0.95390  0.58698  1.0000 -0.5980524466
O   O8        1.0  0.58698  0.15911  0.95390  1.0000 -0.5980524466
O   O9        1.0  0.95390  0.58698  0.15911  1.0000 -0.5980524466
O   O10       1.0  0.45148  0.20847  0.83532  1.0000 -0.6335247999
O   O11       1.0  0.20847  0.83532  0.45148  1.0000 -0.6335247999
O   O12       1.0  0.83532  0.45148  0.20847  1.0000 -0.6335247999
O   O13       1.0  0.54852  0.16468  0.79153  1.0000 -0.6335247999
O   O14       1.0  0.79153  0.54852  0.16468  1.0000 -0.6335247999
O   O15       1.0  0.16468  0.79153  0.54852  1.0000 -0.6335247999
O   O16       1.0  0.59707  0.34611  0.89493  1.0000 -0.5477024263
O   O17       1.0  0.34611  0.89493  0.59707  1.0000 -0.5477024263
O   O18       1.0  0.89493  0.59707  0.34611  1.0000 -0.5477024263
O   O19       1.0  0.40293  0.10507  0.65389  1.0000 -0.5477024263
O   O20       1.0  0.65389  0.40293  0.10507  1.0000 -0.5477024263
O   O21       1.0  0.10507  0.65389  0.40293  1.0000 -0.5477024263
