# DDEC6 charges by PACMAN v1.1 (https://github.com/mtap-research/PACMAN-charge/)
data_2015[Cu][crb]3[FSR]1
_chemical_formula_sum              "Cu4 H32 C60 N16 O16"
_cell_length_a       9.866
_cell_length_b       17.646
_cell_length_c       14.6511
_cell_angle_alpha    90
_cell_angle_beta     126.029
_cell_angle_gamma    90

_symmetry_space_group_name_H-M    "P 1"
_symmetry_Int_Tables_number       1

loop_
  _symmetry_equiv_pos_as_xyz
  'x, y, z'

loop_
  _atom_site_type_symbol
  _atom_site_label
  _atom_site_symmetry_multiplicity
  _atom_site_fract_x
  _atom_site_fract_y
  _atom_site_fract_z
  _atom_site_occupancy
  _atom_site_charge
Cu  Cu1       1.0  0.07629  0.54365  0.65226  1.0000 0.7304542517
Cu  Cu2       1.0  0.92371  0.04365  0.84774  1.0000 0.7304542517
Cu  Cu3       1.0  0.92371  0.45635  0.34774  1.0000 0.7304542517
Cu  Cu4       1.0  0.07629  0.95635  0.15226  1.0000 0.7304542517
H   H1        1.0  0.44210  0.06970  0.83850  1.0000 0.1408796358
H   H2        1.0  0.55790  0.56970  0.66150  1.0000 0.1408796358
H   H3        1.0  0.55790  0.93030  0.16150  1.0000 0.1408796358
H   H4        1.0  0.44210  0.43030  0.33850  1.0000 0.1408796358
H   H5        1.0  0.06100  0.22090  0.70620  1.0000 0.1408796358
H   H6        1.0  0.93900  0.72090  0.79380  1.0000 0.1408796358
H   H7        1.0  0.93900  0.77910  0.29380  1.0000 0.1408796358
H   H8        1.0  0.06100  0.27910  0.20620  1.0000 0.1408796358
H   H9        1.0  0.45070  0.26070  0.68950  1.0000 0.1408796358
H   H10       1.0  0.54930  0.76070  0.81050  1.0000 0.1408796358
H   H11       1.0  0.54930  0.73930  0.31050  1.0000 0.1408796358
H   H12       1.0  0.45070  0.23930  0.18950  1.0000 0.1408796358
H   H13       1.0  0.08790  0.29910  0.47000  1.0000 0.1518871566
H   H14       1.0  0.91210  0.79910  0.03000  1.0000 0.1518871566
H   H15       1.0  0.91210  0.70090  0.53000  1.0000 0.1518871566
H   H16       1.0  0.08790  0.20090  0.97000  1.0000 0.1518871566
H   H17       1.0  0.34110  0.31390  0.88110  1.0000 0.1408796358
H   H18       1.0  0.65890  0.81390  0.61890  1.0000 0.1408796358
H   H19       1.0  0.65890  0.68610  0.11890  1.0000 0.1408796358
H   H20       1.0  0.34110  0.18610  0.38110  1.0000 0.1408796358
H   H21       1.0  0.42180  0.36410  0.05290  1.0000 0.1227892381
H   H22       1.0  0.57820  0.86410  0.44710  1.0000 0.1227892381
H   H23       1.0  0.57820  0.63590  0.94710  1.0000 0.1227892381
H   H24       1.0  0.42180  0.13590  0.55290  1.0000 0.1227892381
H   H25       1.0  0.34380  0.48780  0.06080  1.0000 0.1408796358
H   H26       1.0  0.65620  0.98780  0.43920  1.0000 0.1408796358
H   H27       1.0  0.65620  0.51220  0.93920  1.0000 0.1408796358
H   H28       1.0  0.34380  0.01220  0.56080  1.0000 0.1408796358
H   H29       1.0  0.20300  0.56060  0.89770  1.0000 0.1227892381
H   H30       1.0  0.79700  0.06060  0.60230  1.0000 0.1227892381
H   H31       1.0  0.79700  0.43940  0.10230  1.0000 0.1227892381
H   H32       1.0  0.20300  0.93940  0.39770  1.0000 0.1227892381
C   C1        1.0  0.15960  0.09003  0.82110  1.0000 0.5329670166
C   C2        1.0  0.84040  0.59003  0.67890  1.0000 0.5329670166
C   C3        1.0  0.84040  0.90997  0.17890  1.0000 0.5329670166
C   C4        1.0  0.15960  0.40997  0.32110  1.0000 0.5329670166
C   C5        1.0  0.63340  0.13500  0.78410  1.0000 0.5405523335
C   C6        1.0  0.36660  0.63500  0.71590  1.0000 0.5405523335
C   C7        1.0  0.36660  0.86500  0.21590  1.0000 0.5405523335
C   C8        1.0  0.63340  0.36500  0.28410  1.0000 0.5405523335
C   C9        1.0  0.39210  0.11546  0.80030  1.0000 -0.1159312596
C   C10       1.0  0.60790  0.61546  0.69970  1.0000 -0.1159312596
C   C11       1.0  0.60790  0.88454  0.19970  1.0000 -0.1149054314
C   C12       1.0  0.39210  0.38454  0.30030  1.0000 -0.1159312596
C   C13       1.0  0.24190  0.13761  0.78050  1.0000 0.0129112378
C   C14       1.0  0.75810  0.63761  0.71950  1.0000 0.0129112378
C   C15       1.0  0.75810  0.86239  0.21950  1.0000 0.0129112378
C   C16       1.0  0.24190  0.36239  0.28050  1.0000 0.0129112378
C   C17       1.0  0.47080  0.15952  0.76490  1.0000 0.0129112378
C   C18       1.0  0.52920  0.65952  0.73510  1.0000 0.0129112378
C   C19       1.0  0.52920  0.84048  0.23510  1.0000 0.0129112378
C   C20       1.0  0.47080  0.34048  0.26490  1.0000 0.0129112378
C   C21       1.0  0.16430  0.20560  0.72240  1.0000 -0.2172859194
C   C22       1.0  0.83570  0.70560  0.77760  1.0000 -0.2172859194
C   C23       1.0  0.83570  0.79440  0.27760  1.0000 -0.2172859194
C   C24       1.0  0.16430  0.29440  0.22240  1.0000 -0.2172859194
C   C25       1.0  0.39770  0.22875  0.71100  1.0000 -0.2172859194
C   C26       1.0  0.60230  0.72875  0.78900  1.0000 -0.2172859194
C   C27       1.0  0.60230  0.77125  0.28900  1.0000 -0.2172859194
C   C28       1.0  0.39770  0.27125  0.21100  1.0000 -0.2172859194
C   C29       1.0  0.24690  0.24931  0.68990  1.0000 0.1408796358
C   C30       1.0  0.75310  0.74931  0.81010  1.0000 0.1408796358
C   C31       1.0  0.75310  0.75069  0.31010  1.0000 0.1408796358
C   C32       1.0  0.24690  0.25069  0.18990  1.0000 0.1408796358
C   C33       1.0  0.09830  0.33464  0.52160  1.0000 0.1408796358
C   C34       1.0  0.90170  0.83464  0.97840  1.0000 0.1408796358
C   C35       1.0  0.90170  0.66536  0.47840  1.0000 0.1408796358
C   C36       1.0  0.09830  0.16536  0.02160  1.0000 0.1408796358
C   C37       1.0  0.16020  0.38753  0.67540  1.0000 0.2166514253
C   C38       1.0  0.83980  0.88753  0.82460  1.0000 0.2166514253
C   C39       1.0  0.83980  0.61247  0.32460  1.0000 0.2166514253
C   C40       1.0  0.16020  0.11247  0.17540  1.0000 0.2166514253
C   C41       1.0  0.22230  0.40891  0.79040  1.0000 0.1518871566
C   C42       1.0  0.77770  0.90891  0.70960  1.0000 0.1518871566
C   C43       1.0  0.77770  0.59109  0.20960  1.0000 0.1518871566
C   C44       1.0  0.22230  0.09109  0.29040  1.0000 0.1518871566
C   C45       1.0  0.31260  0.36390  0.88560  1.0000 -0.1675107623
C   C46       1.0  0.68740  0.86390  0.61440  1.0000 -0.1675107623
C   C47       1.0  0.68740  0.63610  0.11440  1.0000 -0.1675107623
C   C48       1.0  0.31260  0.13610  0.38560  1.0000 -0.1675107623
C   C49       1.0  0.35980  0.39370  0.98710  1.0000 -0.020358575
C   C50       1.0  0.64020  0.89370  0.51290  1.0000 -0.020358575
C   C51       1.0  0.64020  0.60630  0.01290  1.0000 -0.020358575
C   C52       1.0  0.35980  0.10630  0.48710  1.0000 -0.020358575
C   C53       1.0  0.31600  0.46740  0.99250  1.0000 -0.1367037366
C   C54       1.0  0.68400  0.96740  0.50750  1.0000 -0.1367037366
C   C55       1.0  0.68400  0.53260  0.00750  1.0000 -0.1367037366
C   C56       1.0  0.31600  0.03260  0.49250  1.0000 -0.1367037366
C   C57       1.0  0.23010  0.51010  0.89440  1.0000 0.1048386549
C   C58       1.0  0.76990  0.01010  0.60560  1.0000 0.105230168
C   C59       1.0  0.76990  0.48990  0.10560  1.0000 0.105230168
C   C60       1.0  0.23010  0.98990  0.39440  1.0000 0.1048386549
N   N1        1.0  0.17040  0.32071  0.63200  1.0000 -0.0355302053
N   N2        1.0  0.82960  0.82071  0.86800  1.0000 -0.0355302053
N   N3        1.0  0.82960  0.67929  0.36800  1.0000 -0.034981321
N   N4        1.0  0.17040  0.17929  0.13200  1.0000 -0.0355302053
N   N5        1.0  0.04480  0.40488  0.49670  1.0000 -0.1367037366
N   N6        1.0  0.95520  0.90488  0.00330  1.0000 -0.1367037366
N   N7        1.0  0.95520  0.59512  0.50330  1.0000 -0.1367037366
N   N8        1.0  0.04480  0.09512  0.99670  1.0000 -0.1367037366
N   N9        1.0  0.08360  0.43815  0.59460  1.0000 -0.2018057625
N   N10       1.0  0.91640  0.93815  0.90540  1.0000 -0.2018057625
N   N11       1.0  0.91640  0.56185  0.40540  1.0000 -0.2018057625
N   N12       1.0  0.08360  0.06185  0.09460  1.0000 -0.2018057625
N   N13       1.0  0.18450  0.48214  0.79560  1.0000 -0.2342380281
N   N14       1.0  0.81550  0.98214  0.70440  1.0000 -0.2342380281
N   N15       1.0  0.81550  0.51786  0.20440  1.0000 -0.2342380281
N   N16       1.0  0.18450  0.01786  0.29560  1.0000 -0.2342380281
O   O1        1.0  0.22860  0.03143  0.87540  1.0000 -0.5423909793
O   O2        1.0  0.77140  0.53143  0.62460  1.0000 -0.5423909793
O   O3        1.0  0.77140  0.96857  0.12460  1.0000 -0.5423909793
O   O4        1.0  0.22860  0.46857  0.37540  1.0000 -0.5423909793
O   O5        1.0  0.01980  0.11453  0.79660  1.0000 -0.5423909793
O   O6        1.0  0.98020  0.61453  0.70340  1.0000 -0.5423909793
O   O7        1.0  0.98020  0.88547  0.20340  1.0000 -0.5423909793
O   O8        1.0  0.01980  0.38547  0.29660  1.0000 -0.5423909793
O   O9        1.0  0.67960  0.06711  0.81200  1.0000 -0.5687410379
O   O10       1.0  0.32040  0.56711  0.68800  1.0000 -0.5687410379
O   O11       1.0  0.32040  0.93289  0.18800  1.0000 -0.5687410379
O   O12       1.0  0.67960  0.43289  0.31200  1.0000 -0.5687410379
O   O13       1.0  0.70840  0.18074  0.76570  1.0000 -0.5505089308
O   O14       1.0  0.29160  0.68074  0.73430  1.0000 -0.5505089308
O   O15       1.0  0.29160  0.81926  0.23430  1.0000 -0.5505089308
O   O16       1.0  0.70840  0.31926  0.26570  1.0000 -0.5505089308
