# DDEC6 charges by PACMAN v1.1 (https://github.com/mtap-research/PACMAN-charge/)
data_2015[Co][sqc]3[FSR]1
_chemical_formula_sum              "Co12 H148 C164 N8 O66"
_cell_length_a       16.5811
_cell_length_b       16.5811
_cell_length_c       23.199
_cell_angle_alpha    87.4848
_cell_angle_beta     92.5152
_cell_angle_gamma    120.797

_symmetry_space_group_name_H-M    "P 1"
_symmetry_Int_Tables_number       1

loop_
  _symmetry_equiv_pos_as_xyz
  'x, y, z'

loop_
  _atom_site_type_symbol
  _atom_site_label
  _atom_site_symmetry_multiplicity
  _atom_site_fract_x
  _atom_site_fract_y
  _atom_site_fract_z
  _atom_site_occupancy
  _atom_site_charge
Co  Co1       1.0  0.48331  0.07943  0.96484  1.0000 1.0638085988
Co  Co2       1.0  0.07943  0.48331  0.53516  1.0000 1.0638085988
Co  Co3       1.0  0.51669  0.92057  0.03516  1.0000 1.0638085988
Co  Co4       1.0  0.92057  0.51669  0.46484  1.0000 1.0638085988
Co  Co5       1.0  0.59854  0.18876  0.84334  1.0000 1.0254201677
Co  Co6       1.0  0.18876  0.59854  0.65666  1.0000 1.0244320419
Co  Co7       1.0  0.40146  0.81124  0.15666  1.0000 1.0244320419
Co  Co8       1.0  0.81124  0.40146  0.34334  1.0000 1.0254201677
Co  Co9       1.0  0.53569  0.95337  0.87019  1.0000 0.9881662514
Co  Co10      1.0  0.95337  0.53569  0.62981  1.0000 0.9881662514
Co  Co11      1.0  0.46431  0.04663  0.12981  1.0000 0.9881662514
Co  Co12      1.0  0.04663  0.46431  0.37019  1.0000 0.9881662514
H   H1        1.0  0.62060  0.09520  0.91870  1.0000 0.3603400898
H   H2        1.0  0.09520  0.62060  0.58130  1.0000 0.3603400898
H   H3        1.0  0.37940  0.90480  0.08130  1.0000 0.3603400898
H   H4        1.0  0.90480  0.37940  0.41870  1.0000 0.3603400898
H   H5        1.0  0.71050  0.01250  0.82620  1.0000 0.3603400898
H   H6        1.0  0.01250  0.71050  0.67380  1.0000 0.3603400898
H   H7        1.0  0.28950  0.98750  0.17380  1.0000 0.3603400898
H   H8        1.0  0.98750  0.28950  0.32620  1.0000 0.3603400898
H   H9        1.0  0.69010  0.08190  0.84110  1.0000 0.3373538938
H   H10       1.0  0.08190  0.69010  0.65890  1.0000 0.3373538938
H   H11       1.0  0.30990  0.91810  0.15890  1.0000 0.3373538938
H   H12       1.0  0.91810  0.30990  0.34110  1.0000 0.3373538938
H   H13       1.0  0.78020  0.45360  0.93510  1.0000 0.1124668021
H   H14       1.0  0.45360  0.78020  0.56490  1.0000 0.1124668021
H   H15       1.0  0.21980  0.54640  0.06490  1.0000 0.1124668021
H   H16       1.0  0.54640  0.21980  0.43510  1.0000 0.1124668021
H   H17       1.0  0.83150  0.60250  0.97140  1.0000 0.147786683
H   H18       1.0  0.60250  0.83150  0.52860  1.0000 0.147786683
H   H19       1.0  0.16850  0.39750  0.02860  1.0000 0.147786683
H   H20       1.0  0.39750  0.16850  0.47140  1.0000 0.147786683
H   H21       1.0  0.59110  0.49550  0.05950  1.0000 0.1394287483
H   H22       1.0  0.49550  0.59110  0.44050  1.0000 0.1394287483
H   H23       1.0  0.40890  0.50450  0.94050  1.0000 0.1394287483
H   H24       1.0  0.50450  0.40890  0.55950  1.0000 0.1394287483
H   H25       1.0  0.54200  0.34620  0.02450  1.0000 0.119886497
H   H26       1.0  0.34620  0.54200  0.47550  1.0000 0.119886497
H   H27       1.0  0.45800  0.65380  0.97550  1.0000 0.119886497
H   H28       1.0  0.65380  0.45800  0.52450  1.0000 0.119886497
H   H29       1.0  0.61330  0.72710  0.89060  1.0000 0.119886497
H   H30       1.0  0.72710  0.61330  0.60940  1.0000 0.119886497
H   H31       1.0  0.38670  0.27290  0.10940  1.0000 0.119886497
H   H32       1.0  0.27290  0.38670  0.39060  1.0000 0.119886497
H   H33       1.0  0.66930  0.63450  0.93380  1.0000 0.1308779722
H   H34       1.0  0.63450  0.66930  0.56620  1.0000 0.1308779722
H   H35       1.0  0.33070  0.36550  0.06620  1.0000 0.1308779722
H   H36       1.0  0.36550  0.33070  0.43380  1.0000 0.1308779722
H   H37       1.0  0.74240  0.78940  0.07780  1.0000 0.1308779722
H   H38       1.0  0.78940  0.74240  0.42220  1.0000 0.1308779722
H   H39       1.0  0.25760  0.21060  0.92220  1.0000 0.1308779722
H   H40       1.0  0.21060  0.25760  0.57780  1.0000 0.1308779722
H   H41       1.0  0.68220  0.87820  0.03580  1.0000 0.119886497
H   H42       1.0  0.87820  0.68220  0.46420  1.0000 0.119886497
H   H43       1.0  0.31780  0.12180  0.96420  1.0000 0.119886497
H   H44       1.0  0.12180  0.31780  0.53580  1.0000 0.119886497
H   H45       1.0  0.20750  0.00150  0.89230  1.0000 0.119886497
H   H46       1.0  0.00150  0.20750  0.60770  1.0000 0.119886497
H   H47       1.0  0.79250  0.99850  0.10770  1.0000 0.119886497
H   H48       1.0  0.99850  0.79250  0.39230  1.0000 0.119886497
H   H49       1.0  0.07210  0.98390  0.84620  1.0000 0.1394287483
H   H50       1.0  0.98390  0.07210  0.65380  1.0000 0.1394287483
H   H51       1.0  0.92790  0.01610  0.15380  1.0000 0.1394287483
H   H52       1.0  0.01610  0.92790  0.34620  1.0000 0.1394287483
H   H53       1.0  0.22760  0.14720  0.71250  1.0000 0.1394287483
H   H54       1.0  0.14720  0.22760  0.78750  1.0000 0.1394287483
H   H55       1.0  0.77240  0.85280  0.28750  1.0000 0.1394287483
H   H56       1.0  0.85280  0.77240  0.21250  1.0000 0.1394287483
H   H57       1.0  0.36390  0.16630  0.76010  1.0000 0.1308779722
H   H58       1.0  0.16630  0.36390  0.73990  1.0000 0.1308779722
H   H59       1.0  0.63610  0.83370  0.23990  1.0000 0.1308779722
H   H60       1.0  0.83370  0.63610  0.26010  1.0000 0.1308779722
H   H61       1.0  0.24000  0.69280  0.91180  1.0000 0.119886497
H   H62       1.0  0.69280  0.24000  0.58820  1.0000 0.119886497
H   H63       1.0  0.76000  0.30720  0.08820  1.0000 0.119886497
H   H64       1.0  0.30720  0.76000  0.41180  1.0000 0.119886497
H   H65       1.0  0.09210  0.59090  0.95050  1.0000 0.1308779722
H   H66       1.0  0.59090  0.09210  0.54950  1.0000 0.1308779722
H   H67       1.0  0.90790  0.40910  0.04950  1.0000 0.1308779722
H   H68       1.0  0.40910  0.90790  0.45050  1.0000 0.1308779722
H   H69       1.0  0.11860  0.80180  0.04670  1.0000 0.1394287483
H   H70       1.0  0.80180  0.11860  0.45330  1.0000 0.1394287483
H   H71       1.0  0.88140  0.19820  0.95330  1.0000 0.1394287483
H   H72       1.0  0.19820  0.88140  0.54670  1.0000 0.1394287483
H   H73       1.0  0.26790  0.90310  0.00990  1.0000 0.1308779722
H   H74       1.0  0.90310  0.26790  0.49010  1.0000 0.1308779722
H   H75       1.0  0.73210  0.09690  0.99010  1.0000 0.1308779722
H   H76       1.0  0.09690  0.73210  0.50990  1.0000 0.1308779722
H   H77       1.0  0.12740  0.57060  0.18800  1.0000 0.1124668021
H   H78       1.0  0.57060  0.12740  0.31200  1.0000 0.1124668021
H   H79       1.0  0.87260  0.42940  0.81200  1.0000 0.1124668021
H   H80       1.0  0.42940  0.87260  0.68800  1.0000 0.1124668021
H   H81       1.0  0.14300  0.63320  0.09410  1.0000 0.1394287483
H   H82       1.0  0.63320  0.14300  0.40590  1.0000 0.1394287483
H   H83       1.0  0.85700  0.36680  0.90590  1.0000 0.1394287483
H   H84       1.0  0.36680  0.85700  0.59410  1.0000 0.1394287483
H   H85       1.0  0.86600  0.54960  0.08910  1.0000 0.1394287483
H   H86       1.0  0.54960  0.86600  0.41090  1.0000 0.1394287483
H   H87       1.0  0.13400  0.45040  0.91090  1.0000 0.1394287483
H   H88       1.0  0.45040  0.13400  0.58910  1.0000 0.1394287483
H   H89       1.0  0.85160  0.48800  0.18320  1.0000 0.119886497
H   H90       1.0  0.48800  0.85160  0.31680  1.0000 0.119886497
H   H91       1.0  0.14840  0.51200  0.81680  1.0000 0.119886497
H   H92       1.0  0.51200  0.14840  0.68320  1.0000 0.119886497
H   H93       1.0  0.68810  0.40550  0.82410  1.0000 0.1034576681
H   H94       1.0  0.40550  0.68810  0.67590  1.0000 0.1034576681
H   H95       1.0  0.31190  0.59450  0.17590  1.0000 0.1034576681
H   H96       1.0  0.59450  0.31190  0.32410  1.0000 0.1034576681
H   H97       1.0  0.62420  0.34660  0.68160  1.0000 0.1308779722
H   H98       1.0  0.34660  0.62420  0.81840  1.0000 0.1308779722
H   H99       1.0  0.37580  0.65340  0.31840  1.0000 0.1308779722
H   H100      1.0  0.65340  0.37580  0.18160  1.0000 0.1308779722
H   H101      1.0  0.67900  0.45220  0.65630  1.0000 0.1394287483
H   H102      1.0  0.45220  0.67900  0.84370  1.0000 0.1394287483
H   H103      1.0  0.32100  0.54780  0.34370  1.0000 0.1394287483
H   H104      1.0  0.54780  0.32100  0.15630  1.0000 0.1394287483
H   H105      1.0  0.73450  0.39790  0.67070  1.0000 0.147786683
H   H106      1.0  0.39790  0.73450  0.82930  1.0000 0.147786683
H   H107      1.0  0.26550  0.60210  0.32930  1.0000 0.147786683
H   H108      1.0  0.60210  0.26550  0.17070  1.0000 0.147786683
H   H109      1.0  0.77870  0.55430  0.79200  1.0000 0.1308779722
H   H110      1.0  0.55430  0.77870  0.70800  1.0000 0.1308779722
H   H111      1.0  0.22130  0.44570  0.20800  1.0000 0.1308779722
H   H112      1.0  0.44570  0.22130  0.29200  1.0000 0.1308779722
H   H113      1.0  0.82840  0.56240  0.73270  1.0000 0.147786683
H   H114      1.0  0.56240  0.82840  0.76730  1.0000 0.147786683
H   H115      1.0  0.17160  0.43760  0.26730  1.0000 0.147786683
H   H116      1.0  0.43760  0.17160  0.23270  1.0000 0.147786683
H   H117      1.0  0.74130  0.57870  0.73290  1.0000 0.1308779722
H   H118      1.0  0.57870  0.74130  0.76710  1.0000 0.1308779722
H   H119      1.0  0.25870  0.42130  0.26710  1.0000 0.1308779722
H   H120      1.0  0.42130  0.25870  0.23290  1.0000 0.1308779722
H   H121      1.0  0.72750  0.24130  0.75010  1.0000 0.0938877028
H   H122      1.0  0.24130  0.72750  0.74990  1.0000 0.0938877028
H   H123      1.0  0.27250  0.75870  0.24990  1.0000 0.0938877028
H   H124      1.0  0.75870  0.27250  0.25010  1.0000 0.0938877028
H   H125      1.0  0.87590  0.20210  0.83840  1.0000 0.1308779722
H   H126      1.0  0.20210  0.87590  0.66160  1.0000 0.1308779722
H   H127      1.0  0.12410  0.79790  0.16160  1.0000 0.1308779722
H   H128      1.0  0.79790  0.12410  0.33840  1.0000 0.1308779722
H   H129      1.0  0.90750  0.16510  0.78630  1.0000 0.1308779722
H   H130      1.0  0.16510  0.90750  0.71370  1.0000 0.1308779722
H   H131      1.0  0.09250  0.83490  0.21370  1.0000 0.1308779722
H   H132      1.0  0.83490  0.09250  0.28630  1.0000 0.1308779722
H   H133      1.0  0.96400  0.27440  0.80070  1.0000 0.1308779722
H   H134      1.0  0.27440  0.96400  0.69930  1.0000 0.1308779722
H   H135      1.0  0.03600  0.72560  0.19930  1.0000 0.1308779722
H   H136      1.0  0.72560  0.03600  0.30070  1.0000 0.1308779722
H   H137      1.0  0.81730  0.25850  0.67780  1.0000 0.1394287483
H   H138      1.0  0.25850  0.81730  0.82220  1.0000 0.1394287483
H   H139      1.0  0.18270  0.74150  0.32220  1.0000 0.1394287483
H   H140      1.0  0.74150  0.18270  0.17780  1.0000 0.1394287483
H   H141      1.0  0.92610  0.31230  0.69690  1.0000 0.1394287483
H   H142      1.0  0.31230  0.92610  0.80310  1.0000 0.1394287483
H   H143      1.0  0.07390  0.68770  0.30310  1.0000 0.1394287483
H   H144      1.0  0.68770  0.07390  0.19690  1.0000 0.1394287483
H   H145      1.0  0.87210  0.20230  0.68470  1.0000 0.1308779722
H   H146      1.0  0.20230  0.87210  0.81530  1.0000 0.1308779722
H   H147      1.0  0.12790  0.79770  0.31530  1.0000 0.1308779722
H   H148      1.0  0.79770  0.12790  0.18470  1.0000 0.1308779722
C   C1        1.0  0.61942  0.29138  0.94991  1.0000 0.5897139099
C   C2        1.0  0.29138  0.61942  0.55009  1.0000 0.5897139099
C   C3        1.0  0.38058  0.70862  0.05009  1.0000 0.5897139099
C   C4        1.0  0.70862  0.38058  0.44991  1.0000 0.5897139099
C   C5        1.0  0.65554  0.38606  0.97526  1.0000 -0.0412011309
C   C6        1.0  0.38606  0.65554  0.52474  1.0000 -0.0412011309
C   C7        1.0  0.34446  0.61394  0.02474  1.0000 -0.0412011309
C   C8        1.0  0.61394  0.34446  0.47526  1.0000 -0.0412011309
C   C9        1.0  0.74149  0.46191  0.96026  1.0000 -0.0900497689
C   C10       1.0  0.46191  0.74149  0.53974  1.0000 -0.0900497689
C   C11       1.0  0.25851  0.53809  0.03974  1.0000 -0.0900497689
C   C12       1.0  0.53809  0.25851  0.46026  1.0000 -0.0900497689
C   C13       1.0  0.77205  0.55055  0.98150  1.0000 -0.2122865643
C   C14       1.0  0.55055  0.77205  0.51850  1.0000 -0.2122865643
C   C15       1.0  0.22795  0.44945  0.01850  1.0000 -0.2122865643
C   C16       1.0  0.44945  0.22795  0.48150  1.0000 -0.2122865643
C   C17       1.0  0.71479  0.56181  0.01740  1.0000 0.2414495584
C   C18       1.0  0.56181  0.71479  0.48260  1.0000 0.2414495584
C   C19       1.0  0.28521  0.43819  0.98260  1.0000 0.2414495584
C   C20       1.0  0.43819  0.28521  0.51740  1.0000 0.2414495584
C   C21       1.0  0.62942  0.48698  0.03410  1.0000 -0.2122865643
C   C22       1.0  0.48698  0.62942  0.46590  1.0000 -0.2122865643
C   C23       1.0  0.37058  0.51302  0.96590  1.0000 -0.2122865643
C   C24       1.0  0.51302  0.37058  0.53410  1.0000 -0.2122865643
C   C25       1.0  0.60028  0.39852  0.01300  1.0000 -0.0811370252
C   C26       1.0  0.39852  0.60028  0.48700  1.0000 -0.0811370252
C   C27       1.0  0.39972  0.60148  0.98700  1.0000 -0.0811370252
C   C28       1.0  0.60148  0.39972  0.51300  1.0000 -0.0811370252
C   C29       1.0  0.60074  0.86686  0.93334  1.0000 0.5736884859
C   C30       1.0  0.86686  0.60074  0.56666  1.0000 0.5736884859
C   C31       1.0  0.39926  0.13314  0.06666  1.0000 0.5736884859
C   C32       1.0  0.13314  0.39926  0.43334  1.0000 0.5736884859
C   C33       1.0  0.64058  0.81142  0.95940  1.0000 -0.0464508596
C   C34       1.0  0.81142  0.64058  0.54060  1.0000 -0.0464508596
C   C35       1.0  0.35942  0.18858  0.04060  1.0000 -0.0464508596
C   C36       1.0  0.18858  0.35942  0.45940  1.0000 -0.0464508596
C   C37       1.0  0.63820  0.73880  0.92900  1.0000 -0.0900497689
C   C38       1.0  0.73880  0.63820  0.57100  1.0000 -0.0900497689
C   C39       1.0  0.36180  0.26120  0.07100  1.0000 -0.0900497689
C   C40       1.0  0.26120  0.36180  0.42900  1.0000 -0.0900497689
C   C41       1.0  0.67192  0.68408  0.95440  1.0000 -0.2293177959
C   C42       1.0  0.68408  0.67192  0.54560  1.0000 -0.2293177959
C   C43       1.0  0.32808  0.31592  0.04560  1.0000 -0.2293177959
C   C44       1.0  0.31592  0.32808  0.45440  1.0000 -0.2293177959
C   C45       1.0  0.70935  0.70205  0.01000  1.0000 0.263187052
C   C46       1.0  0.70205  0.70935  0.49000  1.0000 0.263187052
C   C47       1.0  0.29065  0.29795  0.99000  1.0000 0.263187052
C   C48       1.0  0.29795  0.29065  0.51000  1.0000 0.263187052
C   C49       1.0  0.71468  0.77572  0.04010  1.0000 -0.2018026872
C   C50       1.0  0.77572  0.71468  0.45990  1.0000 -0.2018026872
C   C51       1.0  0.28532  0.22428  0.95990  1.0000 -0.2018026872
C   C52       1.0  0.22428  0.28532  0.54010  1.0000 -0.2018026872
C   C53       1.0  0.67963  0.82897  0.01490  1.0000 -0.0738601748
C   C54       1.0  0.82897  0.67963  0.48510  1.0000 -0.0738601748
C   C55       1.0  0.32037  0.17103  0.98510  1.0000 -0.0738601748
C   C56       1.0  0.17103  0.32037  0.51490  1.0000 -0.0738601748
C   C57       1.0  0.38809  0.10451  0.86302  1.0000 0.5736884859
C   C58       1.0  0.10451  0.38809  0.63698  1.0000 0.5736884859
C   C59       1.0  0.61191  0.89549  0.13698  1.0000 0.5736884859
C   C60       1.0  0.89549  0.61191  0.36302  1.0000 0.5736884859
C   C61       1.0  0.29943  0.08877  0.83200  1.0000 -0.0412011309
C   C62       1.0  0.08877  0.29943  0.66800  1.0000 -0.0412011309
C   C63       1.0  0.70057  0.91123  0.16800  1.0000 -0.0412011309
C   C64       1.0  0.91123  0.70057  0.33200  1.0000 -0.0412011309
C   C65       1.0  0.21187  0.03273  0.85621  1.0000 -0.0999831452
C   C66       1.0  0.03273  0.21187  0.64379  1.0000 -0.0999831452
C   C67       1.0  0.78813  0.96727  0.14379  1.0000 -0.0999831452
C   C68       1.0  0.96727  0.78813  0.35621  1.0000 -0.0999831452
C   C69       1.0  0.13137  0.02163  0.82890  1.0000 -0.2122865643
C   C70       1.0  0.02163  0.13137  0.67110  1.0000 -0.2122865643
C   C71       1.0  0.86863  0.97837  0.17110  1.0000 -0.2122865643
C   C72       1.0  0.97837  0.86863  0.32890  1.0000 -0.2122865643
C   C73       1.0  0.13834  0.06646  0.77590  1.0000 0.2488823023
C   C74       1.0  0.06646  0.13834  0.72410  1.0000 0.2488823023
C   C75       1.0  0.86166  0.93354  0.22410  1.0000 0.2488823023
C   C76       1.0  0.93354  0.86166  0.27590  1.0000 0.2488823023
C   C77       1.0  0.22389  0.11891  0.74960  1.0000 -0.2293177959
C   C78       1.0  0.11891  0.22389  0.75040  1.0000 -0.2293177959
C   C79       1.0  0.77611  0.88109  0.25040  1.0000 -0.2293177959
C   C80       1.0  0.88109  0.77611  0.24960  1.0000 -0.2293177959
C   C81       1.0  0.30481  0.13019  0.77790  1.0000 -0.0900497689
C   C82       1.0  0.13019  0.30481  0.72210  1.0000 -0.0900497689
C   C83       1.0  0.69519  0.86981  0.22210  1.0000 -0.0900497689
C   C84       1.0  0.86981  0.69519  0.27790  1.0000 -0.0900497689
C   C85       1.0  0.36803  0.86997  0.94037  1.0000 0.5999800947
C   C86       1.0  0.86997  0.36803  0.55963  1.0000 0.5999800947
C   C87       1.0  0.63197  0.13003  0.05963  1.0000 0.5999800947
C   C88       1.0  0.13003  0.63197  0.44037  1.0000 0.5999800947
C   C89       1.0  0.26925  0.80635  0.95850  1.0000 -0.0303123079
C   C90       1.0  0.80635  0.26925  0.54150  1.0000 -0.0303123079
C   C91       1.0  0.73075  0.19365  0.04150  1.0000 -0.0303123079
C   C92       1.0  0.19365  0.73075  0.45850  1.0000 -0.0303123079
C   C93       1.0  0.21617  0.71443  0.94003  1.0000 -0.0900497689
C   C94       1.0  0.71443  0.21617  0.55997  1.0000 -0.0900497689
C   C95       1.0  0.78383  0.28557  0.05997  1.0000 -0.0900497689
C   C96       1.0  0.28557  0.78383  0.44003  1.0000 -0.0900497689
C   C97       1.0  0.12842  0.65398  0.96270  1.0000 -0.2018026872
C   C98       1.0  0.65398  0.12842  0.53730  1.0000 -0.2018026872
C   C99       1.0  0.87158  0.34602  0.03730  1.0000 -0.2018026872
C   C100      1.0  0.34602  0.87158  0.46270  1.0000 -0.2018026872
C   C101      1.0  0.09478  0.68762  0.00341  1.0000 0.2414495584
C   C102      1.0  0.68762  0.09478  0.49659  1.0000 0.2414495584
C   C103      1.0  0.90522  0.31238  0.99659  1.0000 0.2414495584
C   C104      1.0  0.31238  0.90522  0.50341  1.0000 0.2414495584
C   C105      1.0  0.14442  0.77958  0.02020  1.0000 -0.2018026872
C   C106      1.0  0.77958  0.14442  0.47980  1.0000 -0.2018026872
C   C107      1.0  0.85558  0.22042  0.97980  1.0000 -0.2018026872
C   C108      1.0  0.22042  0.85558  0.52020  1.0000 -0.2018026872
C   C109      1.0  0.23257  0.83963  0.99814  1.0000 -0.0811370252
C   C110      1.0  0.83963  0.23257  0.50186  1.0000 -0.0811370252
C   C111      1.0  0.76743  0.16037  0.00186  1.0000 -0.0811370252
C   C112      1.0  0.16037  0.76743  0.49814  1.0000 -0.0811370252
C   C113      1.0  0.97789  0.48651  0.25641  1.0000 0.5758945581
C   C114      1.0  0.48651  0.97789  0.24359  1.0000 0.5758945581
C   C115      1.0  0.02211  0.51349  0.74359  1.0000 0.5758945581
C   C116      1.0  0.51349  0.02211  0.75641  1.0000 0.5758945581
C   C117      1.0  0.98882  0.52398  0.19516  1.0000 -0.0412011309
C   C118      1.0  0.52398  0.98882  0.30484  1.0000 -0.0412011309
C   C119      1.0  0.01118  0.47602  0.80484  1.0000 -0.0412011309
C   C120      1.0  0.47602  0.01118  0.69516  1.0000 -0.0412011309
C   C121      1.0  0.07429  0.56651  0.16801  1.0000 -0.0811370252
C   C122      1.0  0.56651  0.07429  0.33199  1.0000 -0.0811370252
C   C123      1.0  0.92571  0.43349  0.83199  1.0000 -0.0811370252
C   C124      1.0  0.43349  0.92571  0.66801  1.0000 -0.0811370252
C   C125      1.0  0.08379  0.60341  0.11209  1.0000 -0.219680921
C   C126      1.0  0.60341  0.08379  0.38791  1.0000 -0.219680921
C   C127      1.0  0.91621  0.39659  0.88791  1.0000 -0.219680921
C   C128      1.0  0.39659  0.91621  0.61209  1.0000 -0.219680921
C   C129      1.0  0.00563  0.59597  0.08310  1.0000 0.2488823023
C   C130      1.0  0.59597  0.00563  0.41690  1.0000 0.2488823023
C   C131      1.0  0.99437  0.40403  0.91690  1.0000 0.2488823023
C   C132      1.0  0.40403  0.99437  0.58310  1.0000 0.2488823023
C   C133      1.0  0.91898  0.55362  0.10930  1.0000 -0.219680921
C   C134      1.0  0.55362  0.91898  0.39070  1.0000 -0.219680921
C   C135      1.0  0.08102  0.44638  0.89070  1.0000 -0.219680921
C   C136      1.0  0.44638  0.08102  0.60930  1.0000 -0.219680921
C   C137      1.0  0.91075  0.51745  0.16518  1.0000 -0.0900497689
C   C138      1.0  0.51745  0.91075  0.33482  1.0000 -0.0900497689
C   C139      1.0  0.08925  0.48255  0.83482  1.0000 -0.0900497689
C   C140      1.0  0.48255  0.08925  0.66518  1.0000 -0.0900497689
C   C141      1.0  0.67301  0.38139  0.78620  1.0000 0.2877671358
C   C142      1.0  0.38139  0.67301  0.71380  1.0000 0.2877671358
C   C143      1.0  0.32699  0.61861  0.21380  1.0000 0.2877671358
C   C144      1.0  0.61861  0.32699  0.28620  1.0000 0.2877671358
C   C145      1.0  0.68360  0.40680  0.68270  1.0000 -0.3260680649
C   C146      1.0  0.40680  0.68360  0.81730  1.0000 -0.3260680649
C   C147      1.0  0.31640  0.59320  0.31730  1.0000 -0.3260680649
C   C148      1.0  0.59320  0.31640  0.18270  1.0000 -0.3260680649
C   C149      1.0  0.76840  0.54280  0.75050  1.0000 -0.3409034747
C   C150      1.0  0.54280  0.76840  0.74950  1.0000 -0.3409034747
C   C151      1.0  0.23160  0.45720  0.24950  1.0000 -0.3409034747
C   C152      1.0  0.45720  0.23160  0.25050  1.0000 -0.3409034747
C   C153      1.0  0.76427  0.22973  0.77812  1.0000 0.2836998713
C   C154      1.0  0.22973  0.76427  0.72188  1.0000 0.2836998713
C   C155      1.0  0.23573  0.77027  0.22188  1.0000 0.2836998713
C   C156      1.0  0.77027  0.23573  0.27812  1.0000 0.2836998713
C   C157      1.0  0.90182  0.21718  0.79970  1.0000 -0.3409034747
C   C158      1.0  0.21718  0.90182  0.70030  1.0000 -0.3409034747
C   C159      1.0  0.09818  0.78282  0.20030  1.0000 -0.3409034747
C   C160      1.0  0.78282  0.09818  0.29970  1.0000 -0.3409034747
C   C161      1.0  0.86600  0.25300  0.70000  1.0000 -0.3409034747
C   C162      1.0  0.25300  0.86600  0.80000  1.0000 -0.3409034747
C   C163      1.0  0.13400  0.74700  0.30000  1.0000 -0.3409034747
C   C164      1.0  0.74700  0.13400  0.20000  1.0000 -0.3409034747
N   N1        1.0  0.70335  0.44205  0.74149  1.0000 0.037935544
N   N2        1.0  0.44205  0.70335  0.75851  1.0000 0.037935544
N   N3        1.0  0.29665  0.55795  0.25851  1.0000 0.037935544
N   N4        1.0  0.55795  0.29665  0.24149  1.0000 0.037935544
N   N5        1.0  0.84015  0.23225  0.76045  1.0000 0.0297958471
N   N6        1.0  0.23225  0.84015  0.73955  1.0000 0.0297958471
N   N7        1.0  0.15985  0.76775  0.23955  1.0000 0.0297958471
N   N8        1.0  0.76775  0.15985  0.26045  1.0000 0.0297958471
O   O1        1.0  0.55096  0.22204  0.97450  1.0000 -0.5688915613
O   O2        1.0  0.22204  0.55096  0.52550  1.0000 -0.5688915613
O   O3        1.0  0.44904  0.77796  0.02550  1.0000 -0.5688915613
O   O4        1.0  0.77796  0.44904  0.47450  1.0000 -0.5688915613
O   O5        1.0  0.65921  0.28885  0.90538  1.0000 -0.5880373332
O   O6        1.0  0.28885  0.65921  0.59462  1.0000 -0.5880373332
O   O7        1.0  0.34079  0.71115  0.09462  1.0000 -0.5880373332
O   O8        1.0  0.71115  0.34079  0.40538  1.0000 -0.5880373332
O   O9        1.0  0.74431  0.65109  0.03859  1.0000 -0.2365182813
O   O10       1.0  0.65109  0.74431  0.46141  1.0000 -0.2365182813
O   O11       1.0  0.25569  0.34891  0.96141  1.0000 -0.2365182813
O   O12       1.0  0.34891  0.25569  0.53859  1.0000 -0.2365182813
O   O13       1.0  0.59490  0.92734  0.96226  1.0000 -0.5880373332
O   O14       1.0  0.92734  0.59490  0.53774  1.0000 -0.5880373332
O   O15       1.0  0.40510  0.07266  0.03774  1.0000 -0.5880373332
O   O16       1.0  0.07266  0.40510  0.46226  1.0000 -0.5880373332
O   O17       1.0  0.57374  0.85446  0.88085  1.0000 -0.5496396485
O   O18       1.0  0.85446  0.57374  0.61915  1.0000 -0.5496396485
O   O19       1.0  0.42626  0.14554  0.11915  1.0000 -0.5496396485
O   O20       1.0  0.14554  0.42626  0.38085  1.0000 -0.5496396485
O   O21       1.0  0.37794  0.05350  0.90684  1.0000 -0.5496396485
O   O22       1.0  0.05350  0.37794  0.59316  1.0000 -0.5496396485
O   O23       1.0  0.62206  0.94650  0.09316  1.0000 -0.5496396485
O   O24       1.0  0.94650  0.62206  0.40684  1.0000 -0.5496396485
O   O25       1.0  0.46404  0.16864  0.84313  1.0000 -0.5631411735
O   O26       1.0  0.16864  0.46404  0.65687  1.0000 -0.5631411735
O   O27       1.0  0.53596  0.83136  0.15687  1.0000 -0.5631411735
O   O28       1.0  0.83136  0.53596  0.34313  1.0000 -0.5631411735
O   O29       1.0  0.05670  0.05670  0.75000  1.0000 -0.2293177959
O   O30       1.0  0.94330  0.94330  0.25000  1.0000 -0.2293177959
O   O31       1.0  0.42106  0.93296  0.97603  1.0000 -0.621447942
O   O32       1.0  0.93296  0.42106  0.52397  1.0000 -0.621447942
O   O33       1.0  0.57894  0.06704  0.02397  1.0000 -0.621447942
O   O34       1.0  0.06704  0.57894  0.47603  1.0000 -0.621447942
O   O35       1.0  0.39579  0.85995  0.89302  1.0000 -0.5376478049
O   O36       1.0  0.85995  0.39579  0.60698  1.0000 -0.5376478049
O   O37       1.0  0.60421  0.14005  0.10698  1.0000 -0.5376478049
O   O38       1.0  0.14005  0.60421  0.39302  1.0000 -0.5376478049
O   O39       1.0  0.00605  0.62715  0.02635  1.0000 -0.2293177959
O   O40       1.0  0.62715  0.00605  0.47365  1.0000 -0.2293177959
O   O41       1.0  0.99395  0.37285  0.97365  1.0000 -0.2293177959
O   O42       1.0  0.37285  0.99395  0.52635  1.0000 -0.2293177959
O   O43       1.0  0.05082  0.50498  0.28620  1.0000 -0.5631411735
O   O44       1.0  0.50498  0.05082  0.21380  1.0000 -0.5631411735
O   O45       1.0  0.94918  0.49502  0.71380  1.0000 -0.5631411735
O   O46       1.0  0.49502  0.94918  0.78620  1.0000 -0.5631411735
O   O47       1.0  0.89564  0.44016  0.27355  1.0000 -0.5803421948
O   O48       1.0  0.44016  0.89564  0.22645  1.0000 -0.5803421948
O   O49       1.0  0.10436  0.55984  0.72645  1.0000 -0.5803421948
O   O50       1.0  0.55984  0.10436  0.77355  1.0000 -0.5803421948
O   O51       1.0  0.56872  0.07926  0.90116  1.0000 -0.9070610616
O   O52       1.0  0.07926  0.56872  0.59884  1.0000 -0.9070610616
O   O53       1.0  0.43128  0.92074  0.09884  1.0000 -0.9070610616
O   O54       1.0  0.92074  0.43128  0.40116  1.0000 -0.9070610616
O   O55       1.0  0.69175  0.03325  0.85217  1.0000 -0.6619675222
O   O56       1.0  0.03325  0.69175  0.64783  1.0000 -0.6619675222
O   O57       1.0  0.30825  0.96675  0.14783  1.0000 -0.6619675222
O   O58       1.0  0.96675  0.30825  0.35217  1.0000 -0.6619675222
O   O59       1.0  0.62687  0.29653  0.78088  1.0000 -0.4439377401
O   O60       1.0  0.29653  0.62687  0.71912  1.0000 -0.4439377401
O   O61       1.0  0.37313  0.70347  0.21912  1.0000 -0.4439377401
O   O62       1.0  0.70347  0.37313  0.28088  1.0000 -0.4439377401
O   O63       1.0  0.73718  0.21322  0.82891  1.0000 -0.4809615526
O   O64       1.0  0.21322  0.73718  0.67109  1.0000 -0.4809615526
O   O65       1.0  0.26282  0.78678  0.17109  1.0000 -0.4809615526
O   O66       1.0  0.78678  0.26282  0.32891  1.0000 -0.4809615526
