# DDEC6 charges by PACMAN v1.1 (https://github.com/mtap-research/PACMAN-charge/)
data_2015[Mn][ins]3[FSR]1
_chemical_formula_sum              "Mn4 P4 H12 C4 O28"
_cell_length_a       5.56671
_cell_length_b       15.6297
_cell_length_c       10.8936
_cell_angle_alpha    90
_cell_angle_beta     118.91
_cell_angle_gamma    90

_symmetry_space_group_name_H-M    "P 1"
_symmetry_Int_Tables_number       1

loop_
  _symmetry_equiv_pos_as_xyz
  'x, y, z'

loop_
  _atom_site_type_symbol
  _atom_site_label
  _atom_site_symmetry_multiplicity
  _atom_site_fract_x
  _atom_site_fract_y
  _atom_site_fract_z
  _atom_site_occupancy
  _atom_site_charge
Mn  Mn1       1.0  0.13488  0.66845  0.43874  1.0000 1.1683767593
Mn  Mn2       1.0  0.86512  0.16845  0.06126  1.0000 1.1683767593
Mn  Mn3       1.0  0.86512  0.33155  0.56126  1.0000 1.1683767593
Mn  Mn4       1.0  0.13488  0.83155  0.93874  1.0000 1.1683767593
P   P1        1.0  0.83128  0.69831  0.64625  1.0000 1.5706828689
P   P2        1.0  0.16872  0.19831  0.85375  1.0000 1.5706828689
P   P3        1.0  0.16872  0.30169  0.35375  1.0000 1.5706828689
P   P4        1.0  0.83128  0.80169  0.14625  1.0000 1.5706828689
H   H1        1.0  0.69250  0.57780  0.63800  1.0000 0.4036922396
H   H2        1.0  0.30750  0.07780  0.86200  1.0000 0.4036922396
H   H3        1.0  0.30750  0.42220  0.36200  1.0000 0.4036922396
H   H4        1.0  0.69250  0.92220  0.13800  1.0000 0.4036922396
H   H5        1.0  0.22970  0.66800  0.21210  1.0000 0.4238239681
H   H6        1.0  0.77030  0.16800  0.28790  1.0000 0.4238239681
H   H7        1.0  0.77030  0.33200  0.78790  1.0000 0.4238239681
H   H8        1.0  0.22970  0.83200  0.71210  1.0000 0.4238239681
H   H9        1.0  0.41910  0.60750  0.30860  1.0000 0.4036922396
H   H10       1.0  0.58090  0.10750  0.19140  1.0000 0.4036922396
H   H11       1.0  0.58090  0.39250  0.69140  1.0000 0.405304358
H   H12       1.0  0.41910  0.89250  0.80860  1.0000 0.4036922396
C   C1        1.0  0.15100  0.49375  0.55840  1.0000 0.5135392925
C   C2        1.0  0.84900  0.99375  0.94160  1.0000 0.5135392925
C   C3        1.0  0.84900  0.50625  0.44160  1.0000 0.5135392925
C   C4        1.0  0.15100  0.00625  0.05840  1.0000 0.5135392925
O   O1        1.0  0.03000  0.72178  0.59380  1.0000 -0.7704684952
O   O2        1.0  0.97000  0.22178  0.90620  1.0000 -0.7704684952
O   O3        1.0  0.97000  0.27822  0.40620  1.0000 -0.7704684952
O   O4        1.0  0.03000  0.77822  0.09380  1.0000 -0.7704684952
O   O5        1.0  0.53700  0.72222  0.54720  1.0000 -0.7704684952
O   O6        1.0  0.46300  0.22222  0.95280  1.0000 -0.7704684952
O   O7        1.0  0.46300  0.27778  0.45280  1.0000 -0.7704684952
O   O8        1.0  0.53700  0.77778  0.04720  1.0000 -0.7704684952
O   O9        1.0  0.92780  0.73450  0.79220  1.0000 -0.7504917675
O   O10       1.0  0.07220  0.23450  0.70780  1.0000 -0.7504917675
O   O11       1.0  0.07220  0.26550  0.20780  1.0000 -0.7504917675
O   O12       1.0  0.92780  0.76550  0.29220  1.0000 -0.7504917675
O   O13       1.0  0.84690  0.59687  0.66410  1.0000 -0.6013916576
O   O14       1.0  0.15310  0.09687  0.83590  1.0000 -0.6013916576
O   O15       1.0  0.15310  0.40313  0.33590  1.0000 -0.6013916576
O   O16       1.0  0.84690  0.90313  0.16410  1.0000 -0.6013916576
O   O17       1.0  0.31520  0.55217  0.57130  1.0000 -0.4586246082
O   O18       1.0  0.68480  0.05217  0.92870  1.0000 -0.4586246082
O   O19       1.0  0.68480  0.44783  0.42870  1.0000 -0.4586246082
O   O20       1.0  0.31520  0.94783  0.07130  1.0000 -0.4586246082
O   O21       1.0  0.20590  0.42681  0.62980  1.0000 -0.4586246082
O   O22       1.0  0.79410  0.92681  0.87020  1.0000 -0.4586246082
O   O23       1.0  0.79410  0.57319  0.37020  1.0000 -0.4586246082
O   O24       1.0  0.20590  0.07319  0.12980  1.0000 -0.4586246082
O   O25       1.0  0.24710  0.62553  0.26970  1.0000 -0.6741407657
O   O26       1.0  0.75290  0.12553  0.23030  1.0000 -0.6741407657
O   O27       1.0  0.75290  0.37447  0.73030  1.0000 -0.6741407657
O   O28       1.0  0.24710  0.87447  0.76970  1.0000 -0.6741407657
