# DDEC6 charges by PACMAN v1.1 (https://github.com/mtap-research/PACMAN-charge/)
data_2015[ErCu][jaj]3[FSR]1
_chemical_formula_sum              "Er4 Cu4 H60 C64 N8 O52"
_cell_length_a       10.632
_cell_length_b       13.862
_cell_length_c       19.498
_cell_angle_alpha    90
_cell_angle_beta     99.98
_cell_angle_gamma    90

_symmetry_space_group_name_H-M    "P 1"
_symmetry_Int_Tables_number       1

loop_
  _symmetry_equiv_pos_as_xyz
  'x, y, z'

loop_
  _atom_site_type_symbol
  _atom_site_label
  _atom_site_symmetry_multiplicity
  _atom_site_fract_x
  _atom_site_fract_y
  _atom_site_fract_z
  _atom_site_occupancy
  _atom_site_charge
Er  Er1       1.0  0.84498  0.93292  0.44409  1.0000 2.0155467764
Er  Er2       1.0  0.15502  0.43292  0.05591  1.0000 2.0155467764
Er  Er3       1.0  0.15502  0.06708  0.55591  1.0000 2.0130595938
Er  Er4       1.0  0.84498  0.56708  0.94409  1.0000 2.0130595938
Cu  Cu1       1.0  0.24343  0.93210  0.21058  1.0000 0.7937282846
Cu  Cu2       1.0  0.75657  0.43210  0.28942  1.0000 0.7937282846
Cu  Cu3       1.0  0.75657  0.06790  0.78942  1.0000 0.7937282846
Cu  Cu4       1.0  0.24343  0.56790  0.71058  1.0000 0.7937282846
H   H1        1.0  0.21610  0.73950  0.16120  1.0000 0.1183582588
H   H2        1.0  0.78390  0.23950  0.33880  1.0000 0.1183582588
H   H3        1.0  0.78390  0.26050  0.83880  1.0000 0.1183582588
H   H4        1.0  0.21610  0.76050  0.66120  1.0000 0.1183582588
H   H5        1.0  0.89510  0.74080  0.28870  1.0000 0.1496313886
H   H6        1.0  0.10490  0.24080  0.21130  1.0000 0.1496313886
H   H7        1.0  0.10490  0.25920  0.71130  1.0000 0.1496313886
H   H8        1.0  0.89510  0.75920  0.78870  1.0000 0.1496313886
H   H9        1.0  0.02040  0.87490  0.28330  1.0000 0.1308474541
H   H10       1.0  0.97960  0.37490  0.21670  1.0000 0.1308474541
H   H11       1.0  0.97960  0.12510  0.71670  1.0000 0.1308474541
H   H12       1.0  0.02040  0.62510  0.78330  1.0000 0.1308474541
H   H13       1.0  0.76060  0.61430  0.36490  1.0000 0.1183582588
H   H14       1.0  0.23940  0.11430  0.13510  1.0000 0.1183582588
H   H15       1.0  0.23940  0.38570  0.63510  1.0000 0.1183582588
H   H16       1.0  0.76060  0.88570  0.86490  1.0000 0.1183582588
H   H17       1.0  0.38350  0.64360  0.21390  1.0000 0.1369806305
H   H18       1.0  0.61650  0.14360  0.28610  1.0000 0.1369806305
H   H19       1.0  0.61650  0.35640  0.78610  1.0000 0.1369806305
H   H20       1.0  0.38350  0.85640  0.71390  1.0000 0.1369806305
H   H21       1.0  0.23800  0.93600  0.06000  1.0000 0.3102946878
H   H22       1.0  0.76200  0.43600  0.44000  1.0000 0.3102946878
H   H23       1.0  0.76200  0.06400  0.94000  1.0000 0.3102946878
H   H24       1.0  0.23800  0.56400  0.56000  1.0000 0.3102946878
H   H25       1.0  0.13600  0.89300  0.07100  1.0000 0.3102946878
H   H26       1.0  0.86400  0.39300  0.42900  1.0000 0.3102946878
H   H27       1.0  0.86400  0.10700  0.92900  1.0000 0.3102946878
H   H28       1.0  0.13600  0.60700  0.57100  1.0000 0.3102946878
H   H29       1.0  0.49720  0.50190  0.22270  1.0000 0.1308474541
H   H30       1.0  0.50280  0.00190  0.27730  1.0000 0.1308474541
H   H31       1.0  0.50280  0.49810  0.77730  1.0000 0.1308474541
H   H32       1.0  0.49720  0.99810  0.72270  1.0000 0.1308474541
H   H33       1.0  0.58700  0.00600  0.44800  1.0000 0.379920818
H   H34       1.0  0.41300  0.50600  0.05200  1.0000 0.379920818
H   H35       1.0  0.41300  0.99400  0.55200  1.0000 0.379920818
H   H36       1.0  0.58700  0.49400  0.94800  1.0000 0.379920818
H   H37       1.0  0.62200  0.94700  0.50500  1.0000 0.3691994325
H   H38       1.0  0.37800  0.44700  0.99500  1.0000 0.3691994325
H   H39       1.0  0.37800  0.05300  0.49500  1.0000 0.3691994325
H   H40       1.0  0.62200  0.55300  0.00500  1.0000 0.3691994325
H   H41       1.0  0.83500  0.88800  0.58800  1.0000 0.3691994325
H   H42       1.0  0.16500  0.38800  0.91200  1.0000 0.3691994325
H   H43       1.0  0.16500  0.11200  0.41200  1.0000 0.3691994325
H   H44       1.0  0.83500  0.61200  0.08800  1.0000 0.3691994325
H   H45       1.0  0.86100  0.80550  0.55800  1.0000 0.357593909
H   H46       1.0  0.13900  0.30550  0.94200  1.0000 0.357593909
H   H47       1.0  0.13900  0.19450  0.44200  1.0000 0.357593909
H   H48       1.0  0.86100  0.69450  0.05800  1.0000 0.357593909
H   H49       1.0  0.26020  0.79830  0.50960  1.0000 0.1682061951
H   H50       1.0  0.73980  0.29830  0.99040  1.0000 0.1682061951
H   H51       1.0  0.73980  0.20170  0.49040  1.0000 0.1682061951
H   H52       1.0  0.26020  0.70170  0.00960  1.0000 0.1682061951
H   H53       1.0  0.22210  0.75640  0.43420  1.0000 0.1682061951
H   H54       1.0  0.77790  0.25640  0.06580  1.0000 0.1682061951
H   H55       1.0  0.77790  0.24360  0.56580  1.0000 0.1682061951
H   H56       1.0  0.22210  0.74360  0.93420  1.0000 0.1682061951
H   H57       1.0  0.28030  0.86030  0.44510  1.0000 0.1682061951
H   H58       1.0  0.71970  0.36030  0.05490  1.0000 0.1682061951
H   H59       1.0  0.71970  0.13970  0.55490  1.0000 0.1682061951
H   H60       1.0  0.28030  0.63970  0.94510  1.0000 0.1682061951
C   C1        1.0  0.15110  0.73930  0.18760  1.0000 0.0593795424
C   C2        1.0  0.84890  0.23930  0.31240  1.0000 0.0593795424
C   C3        1.0  0.84890  0.26070  0.81240  1.0000 0.0593795424
C   C4        1.0  0.15110  0.76070  0.68760  1.0000 0.0593795424
C   C5        1.0  0.08290  0.65530  0.19070  1.0000 -0.0742791406
C   C6        1.0  0.91710  0.15530  0.30930  1.0000 -0.0742791406
C   C7        1.0  0.91710  0.34470  0.80930  1.0000 -0.0742791406
C   C8        1.0  0.08290  0.84470  0.69070  1.0000 -0.0742791406
C   C9        1.0  0.98190  0.65540  0.22790  1.0000 0.0243158937
C   C10       1.0  0.01810  0.15540  0.27210  1.0000 0.0243158937
C   C11       1.0  0.01810  0.34460  0.77210  1.0000 0.0243158937
C   C12       1.0  0.98190  0.84460  0.72790  1.0000 0.0243158937
C   C13       1.0  0.96040  0.73890  0.26250  1.0000 -0.137924239
C   C14       1.0  0.03960  0.23890  0.23750  1.0000 -0.137924239
C   C15       1.0  0.03960  0.26110  0.73750  1.0000 -0.137924239
C   C16       1.0  0.96040  0.76110  0.76250  1.0000 -0.137924239
C   C17       1.0  0.03520  0.81970  0.25870  1.0000 0.1183582588
C   C18       1.0  0.96480  0.31970  0.24130  1.0000 0.1183582588
C   C19       1.0  0.96480  0.18030  0.74130  1.0000 0.1183582588
C   C20       1.0  0.03520  0.68030  0.75870  1.0000 0.1183582588
C   C21       1.0  0.12040  0.56870  0.15250  1.0000 0.5797882453
C   C22       1.0  0.87960  0.06870  0.34750  1.0000 0.5797882453
C   C23       1.0  0.87960  0.43130  0.84750  1.0000 0.5797882453
C   C24       1.0  0.12040  0.93130  0.65250  1.0000 0.5797882453
C   C25       1.0  0.88910  0.57230  0.22760  1.0000 0.5726016537
C   C26       1.0  0.11090  0.07230  0.27240  1.0000 0.5726016537
C   C27       1.0  0.11090  0.42770  0.77240  1.0000 0.5726016537
C   C28       1.0  0.88910  0.92770  0.72760  1.0000 0.5726016537
C   C29       1.0  0.68500  0.62100  0.33310  1.0000 0.0593795424
C   C30       1.0  0.31500  0.12100  0.16690  1.0000 0.0593795424
C   C31       1.0  0.31500  0.37900  0.66690  1.0000 0.0593795424
C   C32       1.0  0.68500  0.87900  0.83310  1.0000 0.0593795424
C   C33       1.0  0.62410  0.70850  0.32900  1.0000 -0.0503437574
C   C34       1.0  0.37590  0.20850  0.17100  1.0000 -0.0503437574
C   C35       1.0  0.37590  0.29150  0.67100  1.0000 -0.0503437574
C   C36       1.0  0.62410  0.79150  0.82900  1.0000 -0.0503437574
C   C37       1.0  0.50920  0.71870  0.28340  1.0000 0.028207373
C   C38       1.0  0.49080  0.21870  0.21660  1.0000 0.028207373
C   C39       1.0  0.49080  0.28130  0.71660  1.0000 0.028207373
C   C40       1.0  0.50920  0.78130  0.78340  1.0000 0.028207373
C   C41       1.0  0.46120  0.63940  0.24410  1.0000 -0.137924239
C   C42       1.0  0.53880  0.13940  0.25590  1.0000 -0.137924239
C   C43       1.0  0.53880  0.36060  0.75590  1.0000 -0.137924239
C   C44       1.0  0.46120  0.86060  0.74410  1.0000 -0.137924239
C   C45       1.0  0.52950  0.55440  0.25000  1.0000 0.0972284303
C   C46       1.0  0.47050  0.05440  0.25000  1.0000 0.0972284303
C   C47       1.0  0.47050  0.44560  0.75000  1.0000 0.0972284303
C   C48       1.0  0.52950  0.94560  0.75000  1.0000 0.0972284303
C   C49       1.0  0.43210  0.81120  0.28090  1.0000 0.5520412103
C   C50       1.0  0.56790  0.31120  0.21910  1.0000 0.5520412103
C   C51       1.0  0.56790  0.18880  0.71910  1.0000 0.5520412103
C   C52       1.0  0.43210  0.68880  0.78090  1.0000 0.5520412103
C   C53       1.0  0.69140  0.79010  0.37200  1.0000 0.5912057535
C   C54       1.0  0.30860  0.29010  0.12800  1.0000 0.5912057535
C   C55       1.0  0.30860  0.20990  0.62800  1.0000 0.5912057535
C   C56       1.0  0.69140  0.70990  0.87200  1.0000 0.5912057535
C   C57       1.0  0.22610  0.81380  0.46200  1.0000 -0.6106951261
C   C58       1.0  0.77390  0.31380  0.03800  1.0000 -0.6106951261
C   C59       1.0  0.77390  0.18620  0.53800  1.0000 -0.6106951261
C   C60       1.0  0.22610  0.68620  0.96200  1.0000 -0.6106951261
C   C61       1.0  0.09490  0.85490  0.45760  1.0000 0.7317170278
C   C62       1.0  0.90510  0.35490  0.04240  1.0000 0.7317170278
C   C63       1.0  0.90510  0.14510  0.54240  1.0000 0.7317170278
C   C64       1.0  0.09490  0.64510  0.95760  1.0000 0.7317170278
N   N1        1.0  0.12900  0.82020  0.22040  1.0000 -0.2284195199
N   N2        1.0  0.87100  0.32020  0.27960  1.0000 -0.2284195199
N   N3        1.0  0.87100  0.17980  0.77960  1.0000 -0.2284195199
N   N4        1.0  0.12900  0.67980  0.72040  1.0000 -0.2284195199
N   N5        1.0  0.64170  0.54470  0.29400  1.0000 -0.2206014692
N   N6        1.0  0.35830  0.04470  0.20600  1.0000 -0.2206014692
N   N7        1.0  0.35830  0.45530  0.70600  1.0000 -0.2206014692
N   N8        1.0  0.64170  0.95530  0.79400  1.0000 -0.2206014692
O   O1        1.0  0.21600  0.57640  0.12134  1.0000 -0.6311638578
O   O2        1.0  0.78400  0.07640  0.37866  1.0000 -0.6311638578
O   O3        1.0  0.78400  0.42360  0.87866  1.0000 -0.6311638578
O   O4        1.0  0.21600  0.92360  0.62134  1.0000 -0.6311638578
O   O5        1.0  0.05750  0.49170  0.15109  1.0000 -0.5844049974
O   O6        1.0  0.94250  0.99170  0.34891  1.0000 -0.5844049974
O   O7        1.0  0.94250  0.50830  0.84891  1.0000 -0.5844049974
O   O8        1.0  0.05750  0.00830  0.65109  1.0000 -0.5844049974
O   O9        1.0  0.80410  0.56090  0.17603  1.0000 -0.5327743663
O   O10       1.0  0.19590  0.06090  0.32397  1.0000 -0.5327743663
O   O11       1.0  0.19590  0.43910  0.82397  1.0000 -0.5327743663
O   O12       1.0  0.80410  0.93910  0.67603  1.0000 -0.5327743663
O   O13       1.0  0.89930  0.52390  0.28413  1.0000 -0.5526355802
O   O14       1.0  0.10070  0.02390  0.21587  1.0000 -0.5526355802
O   O15       1.0  0.10070  0.47610  0.71587  1.0000 -0.5526355802
O   O16       1.0  0.89930  0.97610  0.78413  1.0000 -0.5526355802
O   O17       1.0  0.71330  0.86710  0.34088  1.0000 -0.6106951261
O   O18       1.0  0.28670  0.36710  0.15912  1.0000 -0.6106951261
O   O19       1.0  0.28670  0.13290  0.65912  1.0000 -0.6106951261
O   O20       1.0  0.71330  0.63290  0.84088  1.0000 -0.6106951261
O   O21       1.0  0.73010  0.77720  0.43590  1.0000 -0.6106951261
O   O22       1.0  0.26990  0.27720  0.06410  1.0000 -0.6106951261
O   O23       1.0  0.26990  0.22280  0.56410  1.0000 -0.6106951261
O   O24       1.0  0.73010  0.72280  0.93590  1.0000 -0.6106951261
O   O25       1.0  0.38840  0.84160  0.21865  1.0000 -0.5526355802
O   O26       1.0  0.61160  0.34160  0.28135  1.0000 -0.5526355802
O   O27       1.0  0.61160  0.15840  0.78135  1.0000 -0.5526355802
O   O28       1.0  0.38840  0.65840  0.71865  1.0000 -0.5526355802
O   O29       1.0  0.41380  0.84740  0.33500  1.0000 -0.5124605371
O   O30       1.0  0.58620  0.34740  0.16500  1.0000 -0.5124605371
O   O31       1.0  0.58620  0.15260  0.66500  1.0000 -0.5124605371
O   O32       1.0  0.41380  0.65260  0.83500  1.0000 -0.5124605371
O   O33       1.0  0.07970  0.93900  0.48137  1.0000 -0.7382492199
O   O34       1.0  0.92030  0.43900  0.01863  1.0000 -0.7382492199
O   O35       1.0  0.92030  0.06100  0.51863  1.0000 -0.7382492199
O   O36       1.0  0.07970  0.56100  0.98137  1.0000 -0.7382492199
O   O37       1.0  0.99710  0.80870  0.42905  1.0000 -0.637711428
O   O38       1.0  0.00290  0.30870  0.07095  1.0000 -0.637711428
O   O39       1.0  0.00290  0.19130  0.57095  1.0000 -0.637711428
O   O40       1.0  0.99710  0.69130  0.92905  1.0000 -0.637711428
O   O41       1.0  0.20480  0.91570  0.09420  1.0000 -0.6601782515
O   O42       1.0  0.79520  0.41570  0.40580  1.0000 -0.6601782515
O   O43       1.0  0.79520  0.08430  0.90580  1.0000 -0.6601782515
O   O44       1.0  0.20480  0.58430  0.59420  1.0000 -0.6601782515
O   O45       1.0  0.64710  0.97200  0.47020  1.0000 -0.755361758
O   O46       1.0  0.35290  0.47200  0.02980  1.0000 -0.755361758
O   O47       1.0  0.35290  0.02800  0.52980  1.0000 -0.755361758
O   O48       1.0  0.64710  0.52800  0.97020  1.0000 -0.755361758
O   O49       1.0  0.86650  0.86610  0.55450  1.0000 -0.769246079
O   O50       1.0  0.13350  0.36610  0.94550  1.0000 -0.769246079
O   O51       1.0  0.13350  0.13390  0.44550  1.0000 -0.769246079
O   O52       1.0  0.86650  0.63390  0.05450  1.0000 -0.769246079
