# DDEC6 charges by PACMAN v1.1 (https://github.com/mtap-research/PACMAN-charge/)
data_2015[NiV][nan]3[FSR]1
_chemical_formula_sum              "V12 Ni8 H24 C40 N16 O50"
_cell_length_a       13.9199
_cell_length_b       13.9199
_cell_length_c       13.9199
_cell_angle_alpha    101.197
_cell_angle_beta     101.197
_cell_angle_gamma    127.708

_symmetry_space_group_name_H-M    "P 1"
_symmetry_Int_Tables_number       1

loop_
  _symmetry_equiv_pos_as_xyz
  'x, y, z'

loop_
  _atom_site_type_symbol
  _atom_site_label
  _atom_site_symmetry_multiplicity
  _atom_site_fract_x
  _atom_site_fract_y
  _atom_site_fract_z
  _atom_site_occupancy
  _atom_site_charge
V   V1        1.0  0.83388  0.62697  0.49647  1.0000 1.9567828401
V   V2        1.0  0.13050  0.33741  0.50353  1.0000 1.9567828401
V   V3        1.0  0.33741  0.83388  0.20691  1.0000 1.9567828401
V   V4        1.0  0.62697  0.13050  0.79309  1.0000 1.9567828401
V   V5        1.0  0.41368  0.61602  0.50096  1.0000 1.9524803384
V   V6        1.0  0.11506  0.91272  0.49904  1.0000 1.9524803384
V   V7        1.0  0.91272  0.41368  0.79766  1.0000 1.9524803384
V   V8        1.0  0.61602  0.11506  0.20234  1.0000 1.9524803384
V   V9        1.0  0.96910  0.53554  0.62264  1.0000 1.9567828401
V   V10       1.0  0.91290  0.34646  0.37736  1.0000 1.9567828401
V   V11       1.0  0.34646  0.96910  0.43356  1.0000 1.9567828401
V   V12       1.0  0.53554  0.91290  0.56644  1.0000 1.9567828401
Ni  Ni1       1.0  0.71324  0.71097  0.66757  1.0000 0.9044455513
Ni  Ni2       1.0  0.04340  0.04567  0.33243  1.0000 0.9044455513
Ni  Ni3       1.0  0.04567  0.71324  0.00227  1.0000 0.9044455513
Ni  Ni4       1.0  0.71097  0.04340  0.99773  1.0000 0.9044455513
Ni  Ni5       1.0  0.14461  0.37594  0.77123  1.0000 0.9180930778
Ni  Ni6       1.0  0.60471  0.37338  0.22877  1.0000 0.9180930778
Ni  Ni7       1.0  0.37338  0.14461  0.76867  1.0000 0.9180930778
Ni  Ni8       1.0  0.37594  0.60471  0.23133  1.0000 0.9180930778
H   H1        1.0  0.88810  0.89750  0.55520  1.0000 0.1294097723
H   H2        1.0  0.34230  0.33290  0.44480  1.0000 0.1294097723
H   H3        1.0  0.33290  0.88810  0.99060  1.0000 0.1294097723
H   H4        1.0  0.89750  0.34230  0.00940  1.0000 0.1294097723
H   H5        1.0  0.03530  0.12120  0.60050  1.0000 0.1294097723
H   H6        1.0  0.52070  0.43480  0.39950  1.0000 0.1294097723
H   H7        1.0  0.43480  0.03530  0.91410  1.0000 0.1294097723
H   H8        1.0  0.12120  0.52070  0.08590  1.0000 0.1294097723
H   H9        1.0  0.94250  0.17420  0.83990  1.0000 0.1388437002
H   H10       1.0  0.33430  0.10260  0.16010  1.0000 0.1388437002
H   H11       1.0  0.10260  0.94250  0.76830  1.0000 0.1388437002
H   H12       1.0  0.17420  0.33430  0.23170  1.0000 0.1388437002
H   H13       1.0  0.60430  0.29710  0.68000  1.0000 0.1294097723
H   H14       1.0  0.61710  0.92430  0.32000  1.0000 0.1294097723
H   H15       1.0  0.92430  0.60430  0.30720  1.0000 0.1294097723
H   H16       1.0  0.29710  0.61710  0.69280  1.0000 0.1294097723
H   H17       1.0  0.71310  0.48970  0.65200  1.0000 0.1294097723
H   H18       1.0  0.83770  0.06110  0.34800  1.0000 0.1294097723
H   H19       1.0  0.06110  0.71310  0.22340  1.0000 0.1294097723
H   H20       1.0  0.48970  0.83770  0.77660  1.0000 0.1294097723
H   H21       1.0  0.47350  0.52770  0.71340  1.0000 0.1388437002
H   H22       1.0  0.81430  0.76010  0.28660  1.0000 0.1388437002
H   H23       1.0  0.76010  0.47350  0.94580  1.0000 0.1388437002
H   H24       1.0  0.52770  0.81430  0.05420  1.0000 0.1388437002
C   C1        1.0  0.89980  0.95340  0.61500  1.0000 0.042146936
C   C2        1.0  0.33840  0.28480  0.38500  1.0000 0.042146936
C   C3        1.0  0.28480  0.89980  0.94640  1.0000 0.042146936
C   C4        1.0  0.95340  0.33840  0.05360  1.0000 0.042146936
C   C5        1.0  0.98770  0.08790  0.64200  1.0000 0.0483152884
C   C6        1.0  0.44590  0.34570  0.35800  1.0000 0.0483152884
C   C7        1.0  0.34570  0.98770  0.89980  1.0000 0.0483152884
C   C8        1.0  0.08790  0.44590  0.10020  1.0000 0.0483152884
C   C9        1.0  0.93440  0.11950  0.78190  1.0000 0.0578816045
C   C10       1.0  0.33760  0.15250  0.21810  1.0000 0.0578816045
C   C11       1.0  0.15250  0.93440  0.81490  1.0000 0.0578816045
C   C12       1.0  0.11950  0.33760  0.18510  1.0000 0.0578816045
C   C13       1.0  0.84780  0.98590  0.75470  1.0000 0.0755275673
C   C14       1.0  0.23120  0.09310  0.24530  1.0000 0.0755275673
C   C15       1.0  0.09310  0.84780  0.86190  1.0000 0.0755275673
C   C16       1.0  0.98590  0.23120  0.13810  1.0000 0.0755275673
C   C17       1.0  0.76310  0.92250  0.81720  1.0000 0.562585704
C   C18       1.0  0.10530  0.94590  0.18280  1.0000 0.562585704
C   C19       1.0  0.94590  0.76310  0.84060  1.0000 0.562585704
C   C20       1.0  0.92250  0.10530  0.15940  1.0000 0.562585704
C   C21       1.0  0.57610  0.34280  0.68730  1.0000 0.0948170497
C   C22       1.0  0.65550  0.88880  0.31270  1.0000 0.0948170497
C   C23       1.0  0.88880  0.57610  0.23330  1.0000 0.0948170497
C   C24       1.0  0.34280  0.65550  0.76670  1.0000 0.0948170497
C   C25       1.0  0.64160  0.45930  0.67070  1.0000 0.0578816045
C   C26       1.0  0.78860  0.97090  0.32930  1.0000 0.0578816045
C   C27       1.0  0.97090  0.64160  0.18230  1.0000 0.0578816045
C   C28       1.0  0.45930  0.78860  0.81770  1.0000 0.0578816045
C   C29       1.0  0.50220  0.48240  0.70700  1.0000 0.0578816045
C   C30       1.0  0.77540  0.79520  0.29300  1.0000 0.0578816045
C   C31       1.0  0.79520  0.50220  0.01980  1.0000 0.0578816045
C   C32       1.0  0.48240  0.77540  0.98020  1.0000 0.0578816045
C   C33       1.0  0.43540  0.36530  0.72510  1.0000 0.0483152884
C   C34       1.0  0.64020  0.71030  0.27490  1.0000 0.0483152884
C   C35       1.0  0.71030  0.43540  0.07010  1.0000 0.0483152884
C   C36       1.0  0.36530  0.64020  0.92990  1.0000 0.0483152884
C   C37       1.0  0.32460  0.31320  0.75880  1.0000 0.5502722188
C   C38       1.0  0.55440  0.56580  0.24120  1.0000 0.5502722188
C   C39       1.0  0.56580  0.32460  0.01140  1.0000 0.5502722188
C   C40       1.0  0.31320  0.55440  0.98860  1.0000 0.5502722188
N   N1        1.0  0.83010  0.90140  0.67410  1.0000 -0.1800229997
N   N2        1.0  0.22730  0.15600  0.32590  1.0000 -0.1800229997
N   N3        1.0  0.15600  0.83010  0.92870  1.0000 -0.1800229997
N   N4        1.0  0.90140  0.22730  0.07130  1.0000 -0.1800229997
N   N5        1.0  0.00720  0.17300  0.72700  1.0000 -0.1474457905
N   N6        1.0  0.44600  0.28020  0.27300  1.0000 -0.1474457905
N   N7        1.0  0.28020  0.00720  0.83420  1.0000 -0.1474457905
N   N8        1.0  0.17300  0.44600  0.16580  1.0000 -0.1474457905
N   N9        1.0  0.47360  0.29680  0.71340  1.0000 -0.1800229997
N   N10       1.0  0.58340  0.76020  0.28660  1.0000 -0.1800229997
N   N11       1.0  0.76020  0.47360  0.17680  1.0000 -0.1800229997
N   N12       1.0  0.29680  0.58340  0.82320  1.0000 -0.1800229997
N   N13       1.0  0.60590  0.52990  0.68080  1.0000 -0.1800229997
N   N14       1.0  0.84910  0.92510  0.31920  1.0000 -0.1800229997
N   N15       1.0  0.92510  0.60590  0.07600  1.0000 -0.1800229997
N   N16       1.0  0.52990  0.84910  0.92400  1.0000 -0.1800229997
O   O1        1.0  0.69070  0.79900  0.78850  1.0000 -0.5214323476
O   O2        1.0  0.01050  0.90220  0.21150  1.0000 -0.5214323476
O   O3        1.0  0.90220  0.69070  0.89170  1.0000 -0.5214323476
O   O4        1.0  0.79900  0.01050  0.10830  1.0000 -0.5214323476
O   O5        1.0  0.77410  0.00120  0.89050  1.0000 -0.5305090622
O   O6        1.0  0.11070  0.88360  0.10950  1.0000 -0.5305090622
O   O7        1.0  0.88360  0.77410  0.77290  1.0000 -0.5305090622
O   O8        1.0  0.00120  0.11070  0.22710  1.0000 -0.5305090622
O   O9        1.0  0.27980  0.21510  0.78430  1.0000 -0.5100665764
O   O10       1.0  0.43080  0.49550  0.21570  1.0000 -0.5100665764
O   O11       1.0  0.49550  0.27980  0.06470  1.0000 -0.5100665764
O   O12       1.0  0.21510  0.43080  0.93530  1.0000 -0.5100665764
O   O13       1.0  0.28550  0.37420  0.75770  1.0000 -0.5384889022
O   O14       1.0  0.61650  0.52780  0.24230  1.0000 -0.5384889022
O   O15       1.0  0.52780  0.28550  0.91130  1.0000 -0.5384889022
O   O16       1.0  0.37420  0.61650  0.08870  1.0000 -0.5384889022
O   O17       1.0  0.74070  0.64220  0.53870  1.0000 -0.7983605341
O   O18       1.0  0.10350  0.20200  0.46130  1.0000 -0.7983605341
O   O19       1.0  0.20200  0.74070  0.09850  1.0000 -0.7983605341
O   O20       1.0  0.64220  0.10350  0.90150  1.0000 -0.7983605341
O   O21       1.0  0.10050  0.35490  0.61200  1.0000 -0.8395727203
O   O22       1.0  0.74290  0.48850  0.38800  1.0000 -0.8395727203
O   O23       1.0  0.48850  0.10050  0.74560  1.0000 -0.8395727203
O   O24       1.0  0.35490  0.74290  0.25440  1.0000 -0.8395727203
O   O25       1.0  0.92800  0.62760  0.60340  1.0000 -0.9342863933
O   O26       1.0  0.02420  0.32460  0.39660  1.0000 -0.9342863933
O   O27       1.0  0.32460  0.92800  0.30040  1.0000 -0.9342863933
O   O28       1.0  0.62760  0.02420  0.69960  1.0000 -0.9342863933
O   O29       1.0  0.94940  0.76610  0.47110  1.0000 -0.9916307703
O   O30       1.0  0.29500  0.47830  0.52890  1.0000 -0.9916307703
O   O31       1.0  0.47830  0.94940  0.18330  1.0000 -0.9916307703
O   O32       1.0  0.76610  0.29500  0.81670  1.0000 -0.9916307703
O   O33       1.0  0.55270  0.65300  0.55190  1.0000 -0.7867470459
O   O34       1.0  0.10110  0.00080  0.44810  1.0000 -0.7867470459
O   O35       1.0  0.00080  0.55270  0.89970  1.0000 -0.7867470459
O   O36       1.0  0.65300  0.10110  0.10030  1.0000 -0.7867470459
O   O37       1.0  0.00210  0.37550  0.78520  1.0000 -0.8208515123
O   O38       1.0  0.59030  0.21690  0.21480  1.0000 -0.8208515123
O   O39       1.0  0.21690  0.00210  0.62660  1.0000 -0.8208515123
O   O40       1.0  0.37550  0.59030  0.37340  1.0000 -0.8208515123
O   O41       1.0  0.43130  0.75470  0.56760  1.0000 -0.9568433241
O   O42       1.0  0.18710  0.86370  0.43240  1.0000 -0.9568433241
O   O43       1.0  0.86370  0.43130  0.67660  1.0000 -0.9568433241
O   O44       1.0  0.75470  0.18710  0.32340  1.0000 -0.9568433241
O   O45       1.0  0.11760  0.63400  0.70640  1.0000 -0.7039570586
O   O46       1.0  0.92760  0.41120  0.29360  1.0000 -0.7039570586
O   O47       1.0  0.41120  0.11760  0.48360  1.0000 -0.7039570586
O   O48       1.0  0.63400  0.92760  0.51640  1.0000 -0.7039570586
O   O49       1.0  0.95040  0.45040  0.50000  1.0000 -0.9185499326
O   O50       1.0  0.45040  0.95040  0.50000  1.0000 -0.9185499326
