# DDEC6 charges by PACMAN v1.1 (https://github.com/mtap-research/PACMAN-charge/)
data_2015[Sc][nan]3[FSR]3
_chemical_formula_sum              "Sc4 H24 C48 O24"
_cell_length_a       19.8399
_cell_length_b       17.5328
_cell_length_c       11.2103
_cell_angle_alpha    84.2407
_cell_angle_beta     61.5523
_cell_angle_gamma    34.207

_symmetry_space_group_name_H-M    "P 1"
_symmetry_Int_Tables_number       1

loop_
  _symmetry_equiv_pos_as_xyz
  'x, y, z'

loop_
  _atom_site_type_symbol
  _atom_site_label
  _atom_site_symmetry_multiplicity
  _atom_site_fract_x
  _atom_site_fract_y
  _atom_site_fract_z
  _atom_site_occupancy
  _atom_site_charge
Sc  Sc1       1.0  0.23908  0.23908  0.76092  1.0000 1.8159257414
Sc  Sc2       1.0  0.76092  0.76092  0.23908  1.0000 1.8159257414
Sc  Sc3       1.0  0.01092  0.01092  0.48908  1.0000 1.8159257414
Sc  Sc4       1.0  0.48908  0.48908  0.01092  1.0000 1.8159257414
H   H1        1.0  0.97740  0.87000  0.71500  1.0000 0.1234134155
H   H2        1.0  0.87000  0.97740  0.43760  1.0000 0.1234134155
H   H3        1.0  0.71500  0.43760  0.97740  1.0000 0.1234134155
H   H4        1.0  0.43760  0.71500  0.87000  1.0000 0.1234134155
H   H5        1.0  0.27260  0.38000  0.53500  1.0000 0.1234134155
H   H6        1.0  0.38000  0.27260  0.81240  1.0000 0.1234134155
H   H7        1.0  0.53500  0.81240  0.27260  1.0000 0.1234134155
H   H8        1.0  0.81240  0.53500  0.38000  1.0000 0.1234134155
H   H9        1.0  0.90100  0.83880  0.91140  1.0000 0.1234134155
H   H10       1.0  0.83880  0.90100  0.34880  1.0000 0.1234134155
H   H11       1.0  0.91140  0.34880  0.90100  1.0000 0.1234134155
H   H12       1.0  0.34880  0.91140  0.83880  1.0000 0.1234134155
H   H13       1.0  0.34900  0.41120  0.33860  1.0000 0.1234134155
H   H14       1.0  0.41120  0.34900  0.90120  1.0000 0.1234134155
H   H15       1.0  0.33860  0.90120  0.34900  1.0000 0.1234134155
H   H16       1.0  0.90120  0.33860  0.41120  1.0000 0.1234134155
H   H17       1.0  0.96890  0.53370  0.41610  1.0000 0.1262707429
H   H18       1.0  0.53370  0.96890  0.08130  1.0000 0.1262707429
H   H19       1.0  0.41610  0.08130  0.96890  1.0000 0.1262707429
H   H20       1.0  0.08130  0.41610  0.53370  1.0000 0.1262707429
H   H21       1.0  0.28110  0.71630  0.83390  1.0000 0.1262707429
H   H22       1.0  0.71630  0.28110  0.16870  1.0000 0.1262707429
H   H23       1.0  0.83390  0.16870  0.28110  1.0000 0.1262707429
H   H24       1.0  0.16870  0.83390  0.71630  1.0000 0.1262707429
C   C1        1.0  0.02173  0.59273  0.86987  1.0000 0.6472008469
C   C2        1.0  0.59273  0.02173  0.51567  1.0000 0.6472008469
C   C3        1.0  0.86987  0.51567  0.02173  1.0000 0.6472008469
C   C4        1.0  0.51567  0.86987  0.59273  1.0000 0.6472008469
C   C5        1.0  0.22827  0.65727  0.38013  1.0000 0.6472008469
C   C6        1.0  0.65727  0.22827  0.73433  1.0000 0.6472008469
C   C7        1.0  0.38013  0.73433  0.22827  1.0000 0.6472008469
C   C8        1.0  0.73433  0.38013  0.65727  1.0000 0.6472008469
C   C9        1.0  0.08060  0.60460  0.74000  1.0000 -0.0311798057
C   C10       1.0  0.60460  0.08060  0.57480  1.0000 -0.0311798057
C   C11       1.0  0.74000  0.57480  0.08060  1.0000 -0.0311798057
C   C12       1.0  0.57480  0.74000  0.60460  1.0000 -0.0311798057
C   C13       1.0  0.16940  0.64540  0.51000  1.0000 -0.0311798057
C   C14       1.0  0.64540  0.16940  0.67520  1.0000 -0.0311798057
C   C15       1.0  0.51000  0.67520  0.16940  1.0000 -0.0311798057
C   C16       1.0  0.67520  0.51000  0.64540  1.0000 -0.0311798057
C   C17       1.0  0.18370  0.31630  0.18370  1.0000 -0.0311798057
C   C18       1.0  0.31630  0.18370  0.31630  1.0000 -0.0311798057
C   C19       1.0  0.06630  0.93370  0.06630  1.0000 -0.0311798057
C   C20       1.0  0.93370  0.06630  0.93370  1.0000 -0.0311798057
C   C21       1.0  0.11010  0.38990  0.11010  1.0000 0.6472008469
C   C22       1.0  0.38990  0.11010  0.38990  1.0000 0.6472008469
C   C23       1.0  0.13990  0.86010  0.13990  1.0000 0.6472008469
C   C24       1.0  0.86010  0.13990  0.86010  1.0000 0.6472008469
C   C25       1.0  0.03750  0.77070  0.67830  1.0000 -0.101942517
C   C26       1.0  0.77070  0.03750  0.51350  1.0000 -0.101942517
C   C27       1.0  0.67830  0.51350  0.03750  1.0000 -0.101942517
C   C28       1.0  0.51350  0.67830  0.77070  1.0000 -0.101942517
C   C29       1.0  0.21250  0.47930  0.57170  1.0000 -0.101942517
C   C30       1.0  0.47930  0.21250  0.73650  1.0000 -0.101942517
C   C31       1.0  0.57170  0.73650  0.21250  1.0000 -0.101942517
C   C32       1.0  0.73650  0.57170  0.47930  1.0000 -0.101942517
C   C33       1.0  0.99070  0.75290  0.79670  1.0000 -0.105993515
C   C34       1.0  0.75290  0.99070  0.45970  1.0000 -0.105993515
C   C35       1.0  0.79670  0.45970  0.99070  1.0000 -0.105993515
C   C36       1.0  0.45970  0.79670  0.75290  1.0000 -0.105993515
C   C37       1.0  0.25930  0.49710  0.45330  1.0000 -0.105993515
C   C38       1.0  0.49710  0.25930  0.79030  1.0000 -0.105993515
C   C39       1.0  0.45330  0.79030  0.25930  1.0000 -0.105993515
C   C40       1.0  0.79030  0.45330  0.49710  1.0000 -0.105993515
C   C41       1.0  0.08100  0.41980  0.35000  1.0000 -0.101942517
C   C42       1.0  0.41980  0.08100  0.14920  1.0000 -0.101942517
C   C43       1.0  0.35000  0.14920  0.08100  1.0000 -0.101942517
C   C44       1.0  0.14920  0.35000  0.41980  1.0000 -0.101942517
C   C45       1.0  0.16900  0.83020  0.90000  1.0000 -0.101942517
C   C46       1.0  0.83020  0.16900  0.10080  1.0000 -0.101942517
C   C47       1.0  0.90000  0.10080  0.16900  1.0000 -0.101942517
C   C48       1.0  0.10080  0.90000  0.83020  1.0000 -0.101942517
O   O1        1.0  0.89791  0.71111  0.01949  1.0000 -0.5885740427
O   O2        1.0  0.71111  0.89791  0.37149  1.0000 -0.5885740427
O   O3        1.0  0.01949  0.37149  0.89791  1.0000 -0.5885740427
O   O4        1.0  0.37149  0.01949  0.71111  1.0000 -0.5885740427
O   O5        1.0  0.35209  0.53889  0.23051  1.0000 -0.5885740427
O   O6        1.0  0.53889  0.35209  0.87851  1.0000 -0.5885740427
O   O7        1.0  0.23051  0.87851  0.35209  1.0000 -0.5885740427
O   O8        1.0  0.87851  0.23051  0.53889  1.0000 -0.5885740427
O   O9        1.0  0.19203  0.28783  0.97297  1.0000 -0.6306933222
O   O10       1.0  0.28783  0.19203  0.54717  1.0000 -0.6306933222
O   O11       1.0  0.97297  0.54717  0.19203  1.0000 -0.6306933222
O   O12       1.0  0.54717  0.97297  0.28783  1.0000 -0.6306933222
O   O13       1.0  0.05797  0.96217  0.27703  1.0000 -0.6306933222
O   O14       1.0  0.96217  0.05797  0.70283  1.0000 -0.6306933222
O   O15       1.0  0.27703  0.70283  0.05797  1.0000 -0.6306933222
O   O16       1.0  0.70283  0.27703  0.96217  1.0000 -0.6306933222
O   O17       1.0  0.11076  0.45256  0.80924  1.0000 -0.6759460924
O   O18       1.0  0.45256  0.11076  0.62744  1.0000 -0.6759460924
O   O19       1.0  0.80924  0.62744  0.11076  1.0000 -0.6759460924
O   O20       1.0  0.62744  0.80924  0.45256  1.0000 -0.6759460924
O   O21       1.0  0.13924  0.79744  0.44076  1.0000 -0.6759460924
O   O22       1.0  0.79744  0.13924  0.62256  1.0000 -0.6759460924
O   O23       1.0  0.44076  0.62256  0.13924  1.0000 -0.6759460924
O   O24       1.0  0.62256  0.44076  0.79744  1.0000 -0.6759460924
