# DDEC6 charges by PACMAN v1.1 (https://github.com/mtap-research/PACMAN-charge/)
data_2015[Al][bpq]3[FSR]1
_chemical_formula_sum              "Al4 H12 C16 O20"
_cell_length_a       6.8419
_cell_length_b       12.0877
_cell_length_c       13.413
_cell_angle_alpha    90
_cell_angle_beta     116.766
_cell_angle_gamma    90

_symmetry_space_group_name_H-M    "P 1"
_symmetry_Int_Tables_number       1

loop_
  _symmetry_equiv_pos_as_xyz
  'x, y, z'

loop_
  _atom_site_type_symbol
  _atom_site_label
  _atom_site_symmetry_multiplicity
  _atom_site_fract_x
  _atom_site_fract_y
  _atom_site_fract_z
  _atom_site_occupancy
  _atom_site_charge
Al  Al1       1.0  0.50000  0.50000  0.00000  1.0000 1.6187066986
Al  Al2       1.0  0.50000  0.00000  0.50000  1.0000 1.6187066986
Al  Al3       1.0  0.00000  0.50000  0.00000  1.0000 1.6290481045
Al  Al4       1.0  0.00000  0.00000  0.50000  1.0000 1.6290481045
H   H1        1.0  0.24356  0.23217  0.75694  1.0000 0.1309797569
H   H2        1.0  0.75644  0.73217  0.74306  1.0000 0.1309797569
H   H3        1.0  0.75644  0.76783  0.24306  1.0000 0.1309797569
H   H4        1.0  0.24356  0.26783  0.25694  1.0000 0.1309797569
H   H5        1.0  0.77448  0.25787  0.74838  1.0000 0.1309797569
H   H6        1.0  0.22552  0.75787  0.75162  1.0000 0.1309797569
H   H7        1.0  0.22552  0.74213  0.25162  1.0000 0.1309797569
H   H8        1.0  0.77448  0.24213  0.24838  1.0000 0.1309797569
H   H9        1.0  0.66163  0.52558  0.86934  1.0000 0.4245101987
H   H10       1.0  0.33837  0.02558  0.63066  1.0000 0.4245101987
H   H11       1.0  0.33837  0.47442  0.13066  1.0000 0.4245101987
H   H12       1.0  0.66163  0.97442  0.36934  1.0000 0.4245101987
C   C1        1.0  0.16213  0.34699  0.86618  1.0000 0.6453698828
C   C2        1.0  0.83787  0.84699  0.63382  1.0000 0.6441155626
C   C3        1.0  0.83787  0.65301  0.13382  1.0000 0.6441155626
C   C4        1.0  0.16213  0.15301  0.36618  1.0000 0.6441155626
C   C5        1.0  0.11038  0.26496  0.77797  1.0000 -0.1759261758
C   C6        1.0  0.88962  0.76496  0.72203  1.0000 -0.1759261758
C   C7        1.0  0.88962  0.73504  0.22203  1.0000 -0.1759261758
C   C8        1.0  0.11038  0.23504  0.27797  1.0000 -0.1759261758
C   C9        1.0  0.90816  0.22792  0.72619  1.0000 -0.1544413613
C   C10       1.0  0.09184  0.72792  0.77381  1.0000 -0.1544413613
C   C11       1.0  0.09184  0.77208  0.27381  1.0000 -0.1544413613
C   C12       1.0  0.90816  0.27208  0.22619  1.0000 -0.1544413613
C   C13       1.0  0.85789  0.14099  0.63960  1.0000 0.6673845752
C   C14       1.0  0.14211  0.64099  0.86040  1.0000 0.6673845752
C   C15       1.0  0.14211  0.85901  0.36040  1.0000 0.6673845752
C   C16       1.0  0.85789  0.35901  0.13960  1.0000 0.6673845752
O   O1        1.0  0.01523  0.40015  0.88409  1.0000 -0.6105957375
O   O2        1.0  0.98477  0.90015  0.61591  1.0000 -0.6105957375
O   O3        1.0  0.98477  0.59985  0.11591  1.0000 -0.6105957375
O   O4        1.0  0.01523  0.09985  0.38409  1.0000 -0.6105957375
O   O5        1.0  0.36968  0.36877  0.91562  1.0000 -0.5916031943
O   O6        1.0  0.63032  0.86877  0.58438  1.0000 -0.5916031943
O   O7        1.0  0.63032  0.63123  0.08438  1.0000 -0.5916031943
O   O8        1.0  0.36968  0.13123  0.41562  1.0000 -0.5916031943
O   O9        1.0  0.69126  0.09330  0.62033  1.0000 -0.5225138114
O   O10       1.0  0.30874  0.59330  0.87967  1.0000 -0.5225138114
O   O11       1.0  0.30874  0.90670  0.37967  1.0000 -0.5225138114
O   O12       1.0  0.69126  0.40670  0.12033  1.0000 -0.5225138114
O   O13       1.0  0.98392  0.11334  0.60058  1.0000 -0.5701710777
O   O14       1.0  0.01608  0.61334  0.89942  1.0000 -0.5701710777
O   O15       1.0  0.01608  0.88666  0.39942  1.0000 -0.5701710777
O   O16       1.0  0.98392  0.38666  0.10058  1.0000 -0.5701710777
O   O17       1.0  0.70018  0.48269  0.94015  1.0000 -0.9969094739
O   O18       1.0  0.29982  0.98269  0.55985  1.0000 -0.9969094739
O   O19       1.0  0.29982  0.51731  0.05985  1.0000 -0.9969094739
O   O20       1.0  0.70018  0.01731  0.44015  1.0000 -0.9969094739
