# DDEC6 charges by PACMAN v1.1 (https://github.com/mtap-research/PACMAN-charge/)
data_2015[TbPb][nan]3[FSR]1
_chemical_formula_sum              "Tb2 H144 Pb4 C192 N28 O24"
_cell_length_a       12.3263
_cell_length_b       20.7018
_cell_length_c       21.7295
_cell_angle_alpha    90
_cell_angle_beta     122.901
_cell_angle_gamma    90

_symmetry_space_group_name_H-M    "P 1"
_symmetry_Int_Tables_number       1

loop_
  _symmetry_equiv_pos_as_xyz
  'x, y, z'

loop_
  _atom_site_type_symbol
  _atom_site_label
  _atom_site_symmetry_multiplicity
  _atom_site_fract_x
  _atom_site_fract_y
  _atom_site_fract_z
  _atom_site_occupancy
  _atom_site_charge
Tb  Tb1       1.0  0.00000  0.50000  0.50000  1.0000 2.1115878107
Tb  Tb2       1.0  0.00000  0.00000  0.00000  1.0000 2.1115878107
H   H1        1.0  0.83520  0.27510  0.18220  1.0000 0.1284625897
H   H2        1.0  0.16480  0.77510  0.31780  1.0000 0.1284625897
H   H3        1.0  0.16480  0.72490  0.81780  1.0000 0.1284625897
H   H4        1.0  0.83520  0.22490  0.68220  1.0000 0.1284625897
H   H5        1.0  0.24300  0.35020  0.98840  1.0000 0.1191979751
H   H6        1.0  0.75700  0.85020  0.51160  1.0000 0.1191979751
H   H7        1.0  0.75700  0.64980  0.01160  1.0000 0.1191979751
H   H8        1.0  0.24300  0.14980  0.48840  1.0000 0.1191979751
H   H9        1.0  0.19610  0.40270  0.02110  1.0000 0.1122810416
H   H10       1.0  0.80390  0.90270  0.47890  1.0000 0.1122810416
H   H11       1.0  0.80390  0.59730  0.97890  1.0000 0.1122810416
H   H12       1.0  0.19610  0.09730  0.52110  1.0000 0.1122810416
H   H13       1.0  0.65170  0.42960  0.18800  1.0000 0.1284625897
H   H14       1.0  0.34830  0.92960  0.31200  1.0000 0.1284625897
H   H15       1.0  0.34830  0.57040  0.81200  1.0000 0.1284625897
H   H16       1.0  0.65170  0.07040  0.68800  1.0000 0.1284625897
H   H17       1.0  0.26040  0.38490  0.15140  1.0000 0.1122810416
H   H18       1.0  0.73960  0.88490  0.34860  1.0000 0.1122810416
H   H19       1.0  0.73960  0.61510  0.84860  1.0000 0.1122810416
H   H20       1.0  0.26040  0.11510  0.65140  1.0000 0.1122810416
H   H21       1.0  0.12350  0.35310  0.10100  1.0000 0.1284625897
H   H22       1.0  0.87650  0.85310  0.39900  1.0000 0.1284625897
H   H23       1.0  0.87650  0.64690  0.89900  1.0000 0.1284625897
H   H24       1.0  0.12350  0.14690  0.60100  1.0000 0.1284625897
H   H25       1.0  0.44070  0.56660  0.33920  1.0000 0.1191979751
H   H26       1.0  0.55930  0.06660  0.16080  1.0000 0.1191979751
H   H27       1.0  0.55930  0.43340  0.66080  1.0000 0.1191979751
H   H28       1.0  0.44070  0.93340  0.83920  1.0000 0.1191979751
H   H29       1.0  0.96390  0.48650  0.65620  1.0000 0.1191979751
H   H30       1.0  0.03610  0.98650  0.84380  1.0000 0.1191979751
H   H31       1.0  0.03610  0.51350  0.34380  1.0000 0.1191979751
H   H32       1.0  0.96390  0.01350  0.15620  1.0000 0.1191979751
H   H33       1.0  0.78660  0.20550  0.91450  1.0000 0.1371264798
H   H34       1.0  0.21340  0.70550  0.58550  1.0000 0.1371264798
H   H35       1.0  0.21340  0.79450  0.08550  1.0000 0.1371264798
H   H36       1.0  0.78660  0.29450  0.41450  1.0000 0.1371264798
H   H37       1.0  0.37440  0.08980  0.36270  1.0000 0.1122810416
H   H38       1.0  0.62560  0.58980  0.13730  1.0000 0.1122810416
H   H39       1.0  0.62560  0.91020  0.63730  1.0000 0.1122810416
H   H40       1.0  0.37440  0.41020  0.86270  1.0000 0.1122810416
H   H41       1.0  0.02480  0.31640  0.80770  1.0000 0.1191979751
H   H42       1.0  0.97520  0.81640  0.69230  1.0000 0.1191979751
H   H43       1.0  0.97520  0.68360  0.19230  1.0000 0.1191979751
H   H44       1.0  0.02480  0.18360  0.30770  1.0000 0.1191979751
H   H45       1.0  0.94630  0.46000  0.85910  1.0000 0.1191979751
H   H46       1.0  0.05370  0.96000  0.64090  1.0000 0.1191979751
H   H47       1.0  0.05370  0.54000  0.14090  1.0000 0.1191979751
H   H48       1.0  0.94630  0.04000  0.35910  1.0000 0.1191979751
H   H49       1.0  0.09300  0.44130  0.90470  1.0000 0.1191979751
H   H50       1.0  0.90700  0.94130  0.59530  1.0000 0.1191979751
H   H51       1.0  0.90700  0.55870  0.09530  1.0000 0.1191979751
H   H52       1.0  0.09300  0.05870  0.40470  1.0000 0.1191979751
H   H53       1.0  0.59360  0.22610  0.80550  1.0000 0.1012852868
H   H54       1.0  0.40640  0.72610  0.69450  1.0000 0.1012852868
H   H55       1.0  0.40640  0.77390  0.19450  1.0000 0.1012852868
H   H56       1.0  0.59360  0.27390  0.30550  1.0000 0.1012852868
H   H57       1.0  0.36600  0.09600  0.99900  1.0000 0.1371264798
H   H58       1.0  0.63400  0.59600  0.50100  1.0000 0.1371264798
H   H59       1.0  0.63400  0.90400  0.00100  1.0000 0.1371264798
H   H60       1.0  0.36600  0.40400  0.49900  1.0000 0.1371264798
H   H61       1.0  0.52100  0.06200  0.98300  1.0000 0.1122810416
H   H62       1.0  0.47900  0.56200  0.51700  1.0000 0.1122810416
H   H63       1.0  0.47900  0.93800  0.01700  1.0000 0.1122810416
H   H64       1.0  0.52100  0.43800  0.48300  1.0000 0.1122810416
H   H65       1.0  0.25700  0.49600  0.29900  1.0000 0.1122810416
H   H66       1.0  0.74300  0.99600  0.20100  1.0000 0.1122810416
H   H67       1.0  0.74300  0.50400  0.70100  1.0000 0.1122810416
H   H68       1.0  0.25700  0.00400  0.79900  1.0000 0.1122810416
H   H69       1.0  0.42600  0.35900  0.11600  1.0000 0.1122810416
H   H70       1.0  0.57400  0.85900  0.38400  1.0000 0.1122810416
H   H71       1.0  0.57400  0.64100  0.88400  1.0000 0.1122810416
H   H72       1.0  0.42600  0.14100  0.61600  1.0000 0.1122810416
H   H73       1.0  0.65800  0.33800  0.06300  1.0000 0.1284625897
H   H74       1.0  0.34200  0.83800  0.43700  1.0000 0.1284625897
H   H75       1.0  0.34200  0.66200  0.93700  1.0000 0.1284625897
H   H76       1.0  0.65800  0.16200  0.56300  1.0000 0.1284625897
H   H77       1.0  0.21500  0.36500  0.31000  1.0000 0.1371264798
H   H78       1.0  0.78500  0.86500  0.19000  1.0000 0.1371264798
H   H79       1.0  0.78500  0.63500  0.69000  1.0000 0.1371264798
H   H80       1.0  0.21500  0.13500  0.81000  1.0000 0.1371264798
H   H81       1.0  0.29700  0.27100  0.37700  1.0000 0.1371264798
H   H82       1.0  0.70300  0.77100  0.12300  1.0000 0.1371264798
H   H83       1.0  0.70300  0.72900  0.62300  1.0000 0.1371264798
H   H84       1.0  0.29700  0.22900  0.87700  1.0000 0.1371264798
H   H85       1.0  0.72400  0.38700  0.77000  1.0000 0.1191979751
H   H86       1.0  0.27600  0.88700  0.73000  1.0000 0.1191979751
H   H87       1.0  0.27600  0.61300  0.23000  1.0000 0.1191979751
H   H88       1.0  0.72400  0.11300  0.27000  1.0000 0.1191979751
H   H89       1.0  0.56200  0.37100  0.08500  1.0000 0.1191979751
H   H90       1.0  0.43800  0.87100  0.41500  1.0000 0.1191979751
H   H91       1.0  0.43800  0.62900  0.91500  1.0000 0.1191979751
H   H92       1.0  0.56200  0.12900  0.58500  1.0000 0.1191979751
H   H93       1.0  0.15700  0.39800  0.22700  1.0000 0.1122810416
H   H94       1.0  0.84300  0.89800  0.27300  1.0000 0.1122810416
H   H95       1.0  0.84300  0.60200  0.77300  1.0000 0.1122810416
H   H96       1.0  0.15700  0.10200  0.72700  1.0000 0.1122810416
H   H97       1.0  0.01500  0.29400  0.69400  1.0000 0.1122810416
H   H98       1.0  0.98500  0.79400  0.80600  1.0000 0.1122810416
H   H99       1.0  0.98500  0.70600  0.30600  1.0000 0.1122810416
H   H100      1.0  0.01500  0.20600  0.19400  1.0000 0.1122810416
H   H101      1.0  0.32800  0.11600  0.24400  1.0000 0.1371264798
H   H102      1.0  0.67200  0.61600  0.25600  1.0000 0.1371264798
H   H103      1.0  0.67200  0.88400  0.75600  1.0000 0.1371264798
H   H104      1.0  0.32800  0.38400  0.74400  1.0000 0.1371264798
H   H105      1.0  0.48000  0.35500  0.31500  1.0000 0.1191979751
H   H106      1.0  0.52000  0.85500  0.18500  1.0000 0.1191979751
H   H107      1.0  0.52000  0.64500  0.68500  1.0000 0.1191979751
H   H108      1.0  0.48000  0.14500  0.81500  1.0000 0.1191979751
H   H109      1.0  0.36100  0.15800  0.43300  1.0000 0.1012852868
H   H110      1.0  0.63900  0.65800  0.06700  1.0000 0.1012852868
H   H111      1.0  0.63900  0.84200  0.56700  1.0000 0.1012852868
H   H112      1.0  0.36100  0.34200  0.93300  1.0000 0.1012852868
H   H113      1.0  0.57300  0.30700  0.72300  1.0000 0.1191979751
H   H114      1.0  0.42700  0.80700  0.77700  1.0000 0.1191979751
H   H115      1.0  0.42700  0.69300  0.27700  1.0000 0.1191979751
H   H116      1.0  0.57300  0.19300  0.22300  1.0000 0.1191979751
H   H117      1.0  0.99900  0.50300  0.77000  1.0000 0.1191979751
H   H118      1.0  0.00100  0.00300  0.73000  1.0000 0.1191979751
H   H119      1.0  0.00100  0.49700  0.23000  1.0000 0.1191979751
H   H120      1.0  0.99900  0.99700  0.27000  1.0000 0.1191979751
H   H121      1.0  0.67000  0.41400  0.36600  1.0000 0.1191979751
H   H122      1.0  0.33000  0.91400  0.13400  1.0000 0.1191979751
H   H123      1.0  0.33000  0.58600  0.63400  1.0000 0.1191979751
H   H124      1.0  0.67000  0.08600  0.86600  1.0000 0.1191979751
H   H125      1.0  0.70900  0.23200  0.04200  1.0000 0.1371264798
H   H126      1.0  0.29100  0.73200  0.45800  1.0000 0.1371264798
H   H127      1.0  0.29100  0.76800  0.95800  1.0000 0.1371264798
H   H128      1.0  0.70900  0.26800  0.54200  1.0000 0.1371264798
H   H129      1.0  0.69000  0.12800  0.98500  1.0000 0.0849489154
H   H130      1.0  0.31000  0.62800  0.51500  1.0000 0.0849489154
H   H131      1.0  0.31000  0.87200  0.01500  1.0000 0.0849489154
H   H132      1.0  0.69000  0.37200  0.48500  1.0000 0.0849489154
H   H133      1.0  0.98900  0.29400  0.29500  1.0000 0.1191979751
H   H134      1.0  0.01100  0.79400  0.20500  1.0000 0.1191979751
H   H135      1.0  0.01100  0.70600  0.70500  1.0000 0.1191979751
H   H136      1.0  0.98900  0.20600  0.79500  1.0000 0.1191979751
H   H137      1.0  0.43400  0.31700  0.17800  1.0000 0.0869014444
H   H138      1.0  0.56600  0.81700  0.32200  1.0000 0.0869014444
H   H139      1.0  0.56600  0.68300  0.82200  1.0000 0.0869014444
H   H140      1.0  0.43400  0.18300  0.67800  1.0000 0.0869014444
H   H141      1.0  0.81500  0.43800  0.32600  1.0000 0.1191979751
H   H142      1.0  0.18500  0.93800  0.17400  1.0000 0.1191979751
H   H143      1.0  0.18500  0.56200  0.67400  1.0000 0.1191979751
H   H144      1.0  0.81500  0.06200  0.82600  1.0000 0.1191979751
Pb  Pb1       1.0  0.18132  0.18888  0.05464  1.0000 0.9569127442
Pb  Pb2       1.0  0.81868  0.68888  0.44536  1.0000 0.9569127442
Pb  Pb3       1.0  0.81868  0.81112  0.94536  1.0000 0.9569127442
Pb  Pb4       1.0  0.18132  0.31112  0.55464  1.0000 0.9569127442
C   C1        1.0  0.45620  0.18490  0.03990  1.0000 0.1504088541
C   C2        1.0  0.54380  0.68490  0.46010  1.0000 0.1504088541
C   C3        1.0  0.54380  0.81510  0.96010  1.0000 0.1504088541
C   C4        1.0  0.45620  0.31510  0.53990  1.0000 0.1504088541
C   C5        1.0  0.39740  0.32380  0.11710  1.0000 -0.170062957
C   C6        1.0  0.60260  0.82380  0.38290  1.0000 -0.170062957
C   C7        1.0  0.60260  0.67620  0.88290  1.0000 -0.170062957
C   C8        1.0  0.39740  0.17620  0.61710  1.0000 -0.170062957
C   C9        1.0  0.83120  0.31030  0.20750  1.0000 -0.1811168395
C   C10       1.0  0.16880  0.81030  0.29250  1.0000 -0.1811168395
C   C11       1.0  0.16880  0.68970  0.79250  1.0000 -0.1811168395
C   C12       1.0  0.83120  0.18970  0.70750  1.0000 -0.1811168395
C   C13       1.0  0.55920  0.22410  0.05220  1.0000 0.0687079896
C   C14       1.0  0.44080  0.72410  0.44780  1.0000 0.0687079896
C   C15       1.0  0.44080  0.77590  0.94780  1.0000 0.0687079896
C   C16       1.0  0.55920  0.27590  0.55220  1.0000 0.0687079896
C   C17       1.0  0.62240  0.34070  0.09310  1.0000 -0.1598898931
C   C18       1.0  0.37760  0.84070  0.40690  1.0000 -0.1598898931
C   C19       1.0  0.37760  0.65930  0.90690  1.0000 -0.1598898931
C   C20       1.0  0.62240  0.15930  0.59310  1.0000 -0.1598898931
C   C21       1.0  0.64790  0.20370  0.03610  1.0000 -0.1987104608
C   C22       1.0  0.35210  0.70370  0.46390  1.0000 -0.1987104608
C   C23       1.0  0.35210  0.79630  0.96390  1.0000 -0.1987104608
C   C24       1.0  0.64790  0.29630  0.53610  1.0000 -0.1987104608
C   C25       1.0  0.63260  0.14260  0.00810  1.0000 -0.0594893048
C   C26       1.0  0.36740  0.64260  0.49190  1.0000 -0.0594893048
C   C27       1.0  0.36740  0.85740  0.99190  1.0000 -0.0594893048
C   C28       1.0  0.63260  0.35740  0.50810  1.0000 -0.0594893048
C   C29       1.0  0.72710  0.35100  0.17310  1.0000 0.1012852868
C   C30       1.0  0.27290  0.85100  0.32690  1.0000 0.1012852868
C   C31       1.0  0.27290  0.64900  0.82690  1.0000 0.1012852868
C   C32       1.0  0.72710  0.14900  0.67310  1.0000 0.1012852868
C   C33       1.0  0.19400  0.35690  0.01080  1.0000 -0.2363993866
C   C34       1.0  0.80600  0.85690  0.48920  1.0000 -0.2363993866
C   C35       1.0  0.80600  0.64310  0.98920  1.0000 -0.2363993866
C   C36       1.0  0.19400  0.14310  0.51080  1.0000 -0.2363993866
C   C37       1.0  0.53000  0.10280  0.99540  1.0000 -0.1132970793
C   C38       1.0  0.47000  0.60280  0.50460  1.0000 -0.1132970793
C   C39       1.0  0.47000  0.89720  0.00460  1.0000 -0.1132970793
C   C40       1.0  0.53000  0.39720  0.49540  1.0000 -0.1132970793
C   C41       1.0  0.72170  0.40150  0.21110  1.0000 -0.1880201666
C   C42       1.0  0.27830  0.90150  0.28890  1.0000 -0.1880201666
C   C43       1.0  0.27830  0.59850  0.78890  1.0000 -0.1880201666
C   C44       1.0  0.72170  0.09850  0.71110  1.0000 -0.1880201666
C   C45       1.0  0.93030  0.32090  0.27920  1.0000 -0.0925289677
C   C46       1.0  0.06970  0.82090  0.22080  1.0000 -0.0925289677
C   C47       1.0  0.06970  0.67910  0.72080  1.0000 -0.0925289677
C   C48       1.0  0.93030  0.17910  0.77920  1.0000 -0.0925289677
C   C49       1.0  0.21580  0.34460  0.12930  1.0000 -0.2315456984
C   C50       1.0  0.78420  0.84460  0.37070  1.0000 -0.2315456984
C   C51       1.0  0.78420  0.65540  0.87070  1.0000 -0.2315456984
C   C52       1.0  0.21580  0.15540  0.62930  1.0000 -0.2315456984
C   C53       1.0  0.44070  0.27540  0.08450  1.0000 0.2345442506
C   C54       1.0  0.55930  0.77540  0.41550  1.0000 0.2345442506
C   C55       1.0  0.55930  0.72460  0.91550  1.0000 0.2345442506
C   C56       1.0  0.44070  0.22460  0.58450  1.0000 0.2345442506
C   C57       1.0  0.44070  0.12310  0.01090  1.0000 -0.1811168395
C   C58       1.0  0.55930  0.62310  0.48910  1.0000 -0.1811168395
C   C59       1.0  0.55930  0.87690  0.98910  1.0000 -0.1811168395
C   C60       1.0  0.44070  0.37690  0.51090  1.0000 -0.1811168395
C   C61       1.0  0.92400  0.37070  0.31860  1.0000 -0.0367416236
C   C62       1.0  0.07600  0.87070  0.18140  1.0000 -0.0367416236
C   C63       1.0  0.07600  0.62930  0.68140  1.0000 -0.0367416236
C   C64       1.0  0.92400  0.12930  0.81860  1.0000 -0.0367416236
C   C65       1.0  0.03090  0.37930  0.39810  1.0000 0.6010799589
C   C66       1.0  0.96910  0.87930  0.10190  1.0000 0.6010799589
C   C67       1.0  0.96910  0.62070  0.60190  1.0000 0.6010799589
C   C68       1.0  0.03090  0.12070  0.89810  1.0000 0.6010799589
C   C69       1.0  0.82030  0.41210  0.28490  1.0000 -0.0925289677
C   C70       1.0  0.17970  0.91210  0.21510  1.0000 -0.0925289677
C   C71       1.0  0.17970  0.58790  0.71510  1.0000 -0.0925289677
C   C72       1.0  0.82030  0.08790  0.78490  1.0000 -0.0925289677
C   C73       1.0  0.05800  0.33620  0.95920  1.0000 0.2764539154
C   C74       1.0  0.94200  0.83620  0.54080  1.0000 0.2764539154
C   C75       1.0  0.94200  0.66380  0.04080  1.0000 0.2764539154
C   C76       1.0  0.05800  0.16380  0.45920  1.0000 0.2764539154
C   C77       1.0  0.35260  0.41680  0.30030  1.0000 0.1012852868
C   C78       1.0  0.64740  0.91680  0.19970  1.0000 0.1012852868
C   C79       1.0  0.64740  0.58320  0.69970  1.0000 0.1012852868
C   C80       1.0  0.35260  0.08320  0.80030  1.0000 0.1012852868
C   C81       1.0  0.00100  0.41210  0.79800  1.0000 0.1012852868
C   C82       1.0  0.99900  0.91210  0.70200  1.0000 0.1012852868
C   C83       1.0  0.99900  0.58790  0.20200  1.0000 0.1012852868
C   C84       1.0  0.00100  0.08790  0.29800  1.0000 0.1012852868
C   C85       1.0  0.56700  0.49770  0.35330  1.0000 -0.0367416236
C   C86       1.0  0.43300  0.99770  0.14670  1.0000 -0.0367416236
C   C87       1.0  0.43300  0.50230  0.64670  1.0000 -0.0367416236
C   C88       1.0  0.56700  0.00230  0.85330  1.0000 -0.0367416236
C   C89       1.0  0.24810  0.29590  0.18820  1.0000 0.2698703887
C   C90       1.0  0.75190  0.79590  0.31180  1.0000 0.2698703887
C   C91       1.0  0.75190  0.70410  0.81180  1.0000 0.2698703887
C   C92       1.0  0.24810  0.20410  0.68820  1.0000 0.2698703887
C   C93       1.0  0.47050  0.39250  0.31880  1.0000 -0.1598898931
C   C94       1.0  0.52950  0.89250  0.18120  1.0000 -0.1598898931
C   C95       1.0  0.52950  0.60750  0.68120  1.0000 -0.1598898931
C   C96       1.0  0.47050  0.10750  0.81880  1.0000 -0.1598898931
C   C97       1.0  0.23440  0.37420  0.27240  1.0000 -0.1598898931
C   C98       1.0  0.76560  0.87420  0.22760  1.0000 -0.1598898931
C   C99       1.0  0.76560  0.62580  0.72760  1.0000 -0.1598898931
C   C100      1.0  0.23440  0.12580  0.77240  1.0000 -0.1598898931
C   C101      1.0  0.29990  0.20720  0.25020  1.0000 0.1371264798
C   C102      1.0  0.70010  0.70720  0.24980  1.0000 0.1371264798
C   C103      1.0  0.70010  0.79280  0.74980  1.0000 0.1371264798
C   C104      1.0  0.29990  0.29280  0.75020  1.0000 0.1371264798
C   C105      1.0  0.28550  0.25460  0.29150  1.0000 0.0687079896
C   C106      1.0  0.71450  0.75460  0.20850  1.0000 0.0687079896
C   C107      1.0  0.71450  0.74540  0.70850  1.0000 0.0687079896
C   C108      1.0  0.28550  0.24540  0.79150  1.0000 0.0687079896
C   C109      1.0  0.97100  0.37790  0.59450  1.0000 0.6010799589
C   C110      1.0  0.02900  0.87790  0.90550  1.0000 0.6010799589
C   C111      1.0  0.02900  0.62210  0.40550  1.0000 0.6010799589
C   C112      1.0  0.97100  0.12210  0.09450  1.0000 0.6010799589
C   C113      1.0  0.44870  0.52250  0.33450  1.0000 -0.0925289677
C   C114      1.0  0.55130  0.02250  0.16550  1.0000 -0.0925289677
C   C115      1.0  0.55130  0.47750  0.66550  1.0000 -0.0925289677
C   C116      1.0  0.44870  0.97750  0.83450  1.0000 -0.0925289677
C   C117      1.0  0.87890  0.28350  0.90600  1.0000 0.1504088541
C   C118      1.0  0.12110  0.78350  0.59400  1.0000 0.1504088541
C   C119      1.0  0.12110  0.71650  0.09400  1.0000 0.1504088541
C   C120      1.0  0.87890  0.21650  0.40600  1.0000 0.1504088541
C   C121      1.0  0.86130  0.33590  0.86130  1.0000 0.0687079896
C   C122      1.0  0.13870  0.83590  0.63870  1.0000 0.0687079896
C   C123      1.0  0.13870  0.66410  0.13870  1.0000 0.0687079896
C   C124      1.0  0.86130  0.16410  0.36130  1.0000 0.0687079896
C   C125      1.0  0.57790  0.43170  0.34570  1.0000 -0.1200503663
C   C126      1.0  0.42210  0.93170  0.15430  1.0000 -0.1200503663
C   C127      1.0  0.42210  0.56830  0.65430  1.0000 -0.1200503663
C   C128      1.0  0.57790  0.06830  0.84570  1.0000 -0.1200503663
C   C129      1.0  0.34180  0.48300  0.30860  1.0000 -0.1811168395
C   C130      1.0  0.65820  0.98300  0.19140  1.0000 -0.1811168395
C   C131      1.0  0.65820  0.51700  0.69140  1.0000 -0.1811168395
C   C132      1.0  0.34180  0.01700  0.80860  1.0000 -0.1811168395
C   C133      1.0  0.30830  0.24030  0.36030  1.0000 -0.1987104608
C   C134      1.0  0.69170  0.74030  0.13970  1.0000 -0.1987104608
C   C135      1.0  0.69170  0.75970  0.63970  1.0000 -0.1987104608
C   C136      1.0  0.30830  0.25970  0.86030  1.0000 -0.1987104608
C   C137      1.0  0.98150  0.38990  0.66500  1.0000 -0.0367416236
C   C138      1.0  0.01850  0.88990  0.83500  1.0000 -0.0367416236
C   C139      1.0  0.01850  0.61010  0.33500  1.0000 -0.0367416236
C   C140      1.0  0.98150  0.11010  0.16500  1.0000 -0.0367416236
C   C141      1.0  0.98750  0.46350  0.75300  1.0000 -0.1811168395
C   C142      1.0  0.01250  0.96350  0.74700  1.0000 -0.1811168395
C   C143      1.0  0.01250  0.53650  0.24700  1.0000 -0.1811168395
C   C144      1.0  0.98750  0.03650  0.25300  1.0000 -0.1811168395
C   C145      1.0  0.97580  0.45190  0.68660  1.0000 -0.1010140298
C   C146      1.0  0.02420  0.95190  0.81340  1.0000 -0.1010140298
C   C147      1.0  0.02420  0.54810  0.31340  1.0000 -0.1010140298
C   C148      1.0  0.97580  0.04810  0.18660  1.0000 -0.1010140298
C   C149      1.0  0.74460  0.34710  0.79470  1.0000 -0.170062957
C   C150      1.0  0.25540  0.84710  0.70530  1.0000 -0.170062957
C   C151      1.0  0.25540  0.65290  0.20530  1.0000 -0.170062957
C   C152      1.0  0.74460  0.15290  0.29470  1.0000 -0.170062957
C   C153      1.0  0.77760  0.24080  0.88550  1.0000 -0.170062957
C   C154      1.0  0.22240  0.74080  0.61450  1.0000 -0.170062957
C   C155      1.0  0.22240  0.75920  0.11450  1.0000 -0.170062957
C   C156      1.0  0.77760  0.25920  0.38550  1.0000 -0.170062957
C   C157      1.0  0.34200  0.17860  0.38490  1.0000 -0.1200503663
C   C158      1.0  0.65800  0.67860  0.11510  1.0000 -0.1200503663
C   C159      1.0  0.65800  0.82140  0.61510  1.0000 -0.1200503663
C   C160      1.0  0.34200  0.32140  0.88490  1.0000 -0.1200503663
C   C161      1.0  0.35310  0.13160  0.34420  1.0000 -0.1132970793
C   C162      1.0  0.64690  0.63160  0.15580  1.0000 -0.1132970793
C   C163      1.0  0.64690  0.86840  0.65580  1.0000 -0.1132970793
C   C164      1.0  0.35310  0.36840  0.84420  1.0000 -0.1132970793
C   C165      1.0  0.01060  0.35100  0.77690  1.0000 -0.1598898931
C   C166      1.0  0.98940  0.85100  0.72310  1.0000 -0.1598898931
C   C167      1.0  0.98940  0.64900  0.22310  1.0000 -0.1598898931
C   C168      1.0  0.01060  0.14900  0.27690  1.0000 -0.1598898931
C   C169      1.0  0.33333  0.14440  0.27610  1.0000 -0.1598898931
C   C170      1.0  0.66667  0.64440  0.22390  1.0000 -0.1598898931
C   C171      1.0  0.66667  0.85560  0.72390  1.0000 -0.1598898931
C   C172      1.0  0.33333  0.35560  0.77610  1.0000 -0.1598898931
C   C173      1.0  0.99960  0.33960  0.71120  1.0000 -0.0925289677
C   C174      1.0  0.00040  0.83960  0.78880  1.0000 -0.0925289677
C   C175      1.0  0.00040  0.66040  0.28880  1.0000 -0.0925289677
C   C176      1.0  0.99960  0.16040  0.21120  1.0000 -0.0925289677
C   C177      1.0  0.00720  0.42590  0.86800  1.0000 -0.170062957
C   C178      1.0  0.99280  0.92590  0.63200  1.0000 -0.170062957
C   C179      1.0  0.99280  0.57410  0.13200  1.0000 -0.170062957
C   C180      1.0  0.00720  0.07410  0.36800  1.0000 -0.170062957
C   C181      1.0  0.66340  0.25350  0.82020  1.0000 -0.1200503663
C   C182      1.0  0.33660  0.75350  0.67980  1.0000 -0.1200503663
C   C183      1.0  0.33660  0.74650  0.17980  1.0000 -0.1200503663
C   C184      1.0  0.66340  0.24650  0.32020  1.0000 -0.1200503663
C   C185      1.0  0.64690  0.30520  0.77490  1.0000 -0.1010140298
C   C186      1.0  0.35310  0.80520  0.72510  1.0000 -0.1010140298
C   C187      1.0  0.35310  0.69480  0.22510  1.0000 -0.1010140298
C   C188      1.0  0.64690  0.19480  0.27490  1.0000 -0.1010140298
C   C189      1.0  0.68120  0.54110  0.38210  1.0000 0.610162619
C   C190      1.0  0.31880  0.04110  0.11790  1.0000 0.610162619
C   C191      1.0  0.31880  0.45890  0.61790  1.0000 0.610162619
C   C192      1.0  0.68120  0.95890  0.88210  1.0000 0.610162619
N   N1        1.0  0.25490  0.31960  0.08090  1.0000 -0.0594893048
N   N2        1.0  0.74510  0.81960  0.41910  1.0000 -0.0594893048
N   N3        1.0  0.74510  0.68040  0.91910  1.0000 -0.0594893048
N   N4        1.0  0.25490  0.18040  0.58090  1.0000 -0.0594893048
N   N5        1.0  0.38380  0.21850  0.06090  1.0000 -0.393763703
N   N6        1.0  0.61620  0.71850  0.43910  1.0000 -0.393763703
N   N7        1.0  0.61620  0.78150  0.93910  1.0000 -0.393763703
N   N8        1.0  0.38380  0.28150  0.56090  1.0000 -0.393763703
N   N9        1.0  0.54470  0.28210  0.07940  1.0000 -0.0594893048
N   N10       1.0  0.45530  0.78210  0.42060  1.0000 -0.0594893048
N   N11       1.0  0.45530  0.71790  0.92060  1.0000 -0.0594893048
N   N12       1.0  0.54470  0.21790  0.57940  1.0000 -0.0594893048
N   N13       1.0  0.97770  0.36910  0.89660  1.0000 -0.0721784873
N   N14       1.0  0.02230  0.86910  0.60340  1.0000 -0.0721784873
N   N15       1.0  0.02230  0.63090  0.10340  1.0000 -0.0721784873
N   N16       1.0  0.97770  0.13090  0.39660  1.0000 -0.0721784873
N   N17       1.0  0.00390  0.28510  0.96740  1.0000 -0.4202324865
N   N18       1.0  0.99610  0.78510  0.53260  1.0000 -0.4202324865
N   N19       1.0  0.99610  0.71490  0.03260  1.0000 -0.4202324865
N   N20       1.0  0.00390  0.21490  0.46740  1.0000 -0.4202324865
N   N21       1.0  0.25120  0.31020  0.25000  1.0000 -0.0721784873
N   N22       1.0  0.74880  0.81020  0.25000  1.0000 -0.0721784873
N   N23       1.0  0.74880  0.68980  0.75000  1.0000 -0.0721784873
N   N24       1.0  0.25120  0.18980  0.75000  1.0000 -0.0721784873
N   N25       1.0  0.27640  0.23500  0.18540  1.0000 -0.4202324865
N   N26       1.0  0.72360  0.73500  0.31460  1.0000 -0.4202324865
N   N27       1.0  0.72360  0.76500  0.81460  1.0000 -0.4202324865
N   N28       1.0  0.27640  0.26500  0.68540  1.0000 -0.4202324865
O   O1        1.0  0.12710  0.34340  0.42390  1.0000 -0.5473173676
O   O2        1.0  0.87290  0.84340  0.07610  1.0000 -0.5473173676
O   O3        1.0  0.87290  0.65660  0.57610  1.0000 -0.5473173676
O   O4        1.0  0.12710  0.15660  0.92390  1.0000 -0.5473173676
O   O5        1.0  0.01640  0.42110  0.43390  1.0000 -0.7013651846
O   O6        1.0  0.98360  0.92110  0.06610  1.0000 -0.7013651846
O   O7        1.0  0.98360  0.57890  0.56610  1.0000 -0.7013651846
O   O8        1.0  0.01640  0.07890  0.93390  1.0000 -0.7013651846
O   O9        1.0  0.98190  0.32160  0.57860  1.0000 -0.5473173676
O   O10       1.0  0.01810  0.82160  0.92140  1.0000 -0.5473173676
O   O11       1.0  0.01810  0.67840  0.42140  1.0000 -0.5473173676
O   O12       1.0  0.98190  0.17840  0.07860  1.0000 -0.5473173676
O   O13       1.0  0.66070  0.60050  0.37390  1.0000 -0.5305487035
O   O14       1.0  0.33930  0.10050  0.12610  1.0000 -0.5305487035
O   O15       1.0  0.33930  0.39950  0.62610  1.0000 -0.5305487035
O   O16       1.0  0.66070  0.89950  0.87390  1.0000 -0.5305487035
O   O17       1.0  0.79120  0.51570  0.41160  1.0000 -0.7202356575
O   O18       1.0  0.20880  0.01570  0.08840  1.0000 -0.7202356575
O   O19       1.0  0.20880  0.48430  0.58840  1.0000 -0.7202356575
O   O20       1.0  0.79120  0.98430  0.91160  1.0000 -0.7202356575
O   O21       1.0  0.95000  0.42510  0.55420  1.0000 -0.7013651846
O   O22       1.0  0.05000  0.92510  0.94580  1.0000 -0.7013651846
O   O23       1.0  0.05000  0.57490  0.44580  1.0000 -0.7013651846
O   O24       1.0  0.95000  0.07490  0.05420  1.0000 -0.7013651846
