# DDEC6 charges by PACMAN v1.1 (https://github.com/mtap-research/PACMAN-charge/)
data_2015[Zn][nan]3[FSR]22
_chemical_formula_sum              "Zn12 H104 C152 N16 O72"
_cell_length_a       16.4721
_cell_length_b       18.1105
_cell_length_c       16.7318
_cell_angle_alpha    90
_cell_angle_beta     110.618
_cell_angle_gamma    90

_symmetry_space_group_name_H-M    "P 1"
_symmetry_Int_Tables_number       1

loop_
  _symmetry_equiv_pos_as_xyz
  'x, y, z'

loop_
  _atom_site_type_symbol
  _atom_site_label
  _atom_site_symmetry_multiplicity
  _atom_site_fract_x
  _atom_site_fract_y
  _atom_site_fract_z
  _atom_site_occupancy
  _atom_site_charge
Zn  Zn1       1.0  0.87255  0.38950  0.81444  1.0000 0.9409838669
Zn  Zn2       1.0  0.62745  0.88950  0.18556  1.0000 0.9409838669
Zn  Zn3       1.0  0.12745  0.61050  0.18556  1.0000 0.9409838669
Zn  Zn4       1.0  0.37255  0.11050  0.81444  1.0000 0.9409838669
Zn  Zn5       1.0  0.63799  0.38264  0.69219  1.0000 0.9244016759
Zn  Zn6       1.0  0.86201  0.88264  0.30781  1.0000 0.9244016759
Zn  Zn7       1.0  0.36201  0.61736  0.30781  1.0000 0.9244016759
Zn  Zn8       1.0  0.13799  0.11736  0.69219  1.0000 0.9244016759
Zn  Zn9       1.0  0.00000  0.50000  0.00000  1.0000 1.0317165605
Zn  Zn10      1.0  0.50000  0.00000  0.00000  1.0000 1.0317165605
Zn  Zn11      1.0  0.50000  0.50000  0.50000  1.0000 1.0353560201
Zn  Zn12      1.0  0.00000  0.00000  0.50000  1.0000 1.0353560201
H   H1        1.0  0.60790  0.23500  0.84300  1.0000 0.1385927252
H   H2        1.0  0.89210  0.73500  0.15700  1.0000 0.1385927252
H   H3        1.0  0.39210  0.76500  0.15700  1.0000 0.1385927252
H   H4        1.0  0.10790  0.26500  0.84300  1.0000 0.1385927252
H   H5        1.0  0.66460  0.13790  0.07090  1.0000 0.1187874731
H   H6        1.0  0.83540  0.63790  0.92910  1.0000 0.1187874731
H   H7        1.0  0.33540  0.86210  0.92910  1.0000 0.1187874731
H   H8        1.0  0.16460  0.36210  0.07090  1.0000 0.1187874731
H   H9        1.0  0.83890  0.27080  0.02690  1.0000 0.1187874731
H   H10       1.0  0.66110  0.77080  0.97310  1.0000 0.1187874731
H   H11       1.0  0.16110  0.72920  0.97310  1.0000 0.1187874731
H   H12       1.0  0.33890  0.22920  0.02690  1.0000 0.1187874731
H   H13       1.0  0.79390  0.08130  0.15290  1.0000 0.1111473899
H   H14       1.0  0.70610  0.58130  0.84710  1.0000 0.1111473899
H   H15       1.0  0.20610  0.91870  0.84710  1.0000 0.1111473899
H   H16       1.0  0.29390  0.41870  0.15290  1.0000 0.1111473899
H   H17       1.0  0.95260  0.15350  0.38030  1.0000 0.1285248053
H   H18       1.0  0.54740  0.65350  0.61970  1.0000 0.1285248053
H   H19       1.0  0.04740  0.84650  0.61970  1.0000 0.1285248053
H   H20       1.0  0.45260  0.34650  0.38030  1.0000 0.1285248053
H   H21       1.0  0.86180  0.29360  0.18340  1.0000 0.1111473899
H   H22       1.0  0.63820  0.79360  0.81660  1.0000 0.1111473899
H   H23       1.0  0.13820  0.70640  0.81660  1.0000 0.1111473899
H   H24       1.0  0.36180  0.20640  0.18340  1.0000 0.1111473899
H   H25       1.0  0.96850  0.67030  0.86900  1.0000 0.1285248053
H   H26       1.0  0.53150  0.17030  0.13100  1.0000 0.1285248053
H   H27       1.0  0.03150  0.32970  0.13100  1.0000 0.1285248053
H   H28       1.0  0.46850  0.82970  0.86900  1.0000 0.1285248053
H   H29       1.0  0.84230  0.79950  0.66990  1.0000 0.1111473899
H   H30       1.0  0.65770  0.29950  0.33010  1.0000 0.1111473899
H   H31       1.0  0.15770  0.20050  0.33010  1.0000 0.1111473899
H   H32       1.0  0.34230  0.70050  0.66990  1.0000 0.1111473899
H   H33       1.0  0.80370  0.58190  0.65280  1.0000 0.1187874731
H   H34       1.0  0.69630  0.08190  0.34720  1.0000 0.1187874731
H   H35       1.0  0.19630  0.41810  0.34720  1.0000 0.1187874731
H   H36       1.0  0.30370  0.91810  0.65280  1.0000 0.1187874731
H   H37       1.0  0.82630  0.77810  0.52170  1.0000 0.1285248053
H   H38       1.0  0.67370  0.27810  0.47830  1.0000 0.1285248053
H   H39       1.0  0.17370  0.22190  0.47830  1.0000 0.1285248053
H   H40       1.0  0.32630  0.72190  0.52170  1.0000 0.1285248053
H   H41       1.0  0.59090  0.74770  0.34450  1.0000 0.1385927252
H   H42       1.0  0.90910  0.24770  0.65550  1.0000 0.1385927252
H   H43       1.0  0.40910  0.25230  0.65550  1.0000 0.1385927252
H   H44       1.0  0.09090  0.75230  0.34450  1.0000 0.1385927252
H   H45       1.0  0.66220  0.63210  0.56240  1.0000 0.1111473899
H   H46       1.0  0.83780  0.13210  0.43760  1.0000 0.1111473899
H   H47       1.0  0.33780  0.36790  0.43760  1.0000 0.1111473899
H   H48       1.0  0.16220  0.86790  0.56240  1.0000 0.1111473899
H   H49       1.0  0.66430  0.38830  0.00180  1.0000 0.1111473899
H   H50       1.0  0.83570  0.88830  0.99820  1.0000 0.1111473899
H   H51       1.0  0.33570  0.61170  0.99820  1.0000 0.1111473899
H   H52       1.0  0.16430  0.11170  0.00180  1.0000 0.1111473899
H   H53       1.0  0.63950  0.47140  0.01110  1.0000 0.1111473899
H   H54       1.0  0.86050  0.97140  0.98890  1.0000 0.1111473899
H   H55       1.0  0.36050  0.52860  0.98890  1.0000 0.1111473899
H   H56       1.0  0.13950  0.02860  0.01110  1.0000 0.1111473899
H   H57       1.0  0.75020  0.48360  0.13430  1.0000 0.1111473899
H   H58       1.0  0.74980  0.98360  0.86570  1.0000 0.1111473899
H   H59       1.0  0.24980  0.51640  0.86570  1.0000 0.1111473899
H   H60       1.0  0.25020  0.01640  0.13430  1.0000 0.1111473899
H   H61       1.0  0.76280  0.39710  0.13310  1.0000 0.1111473899
H   H62       1.0  0.73720  0.89710  0.86690  1.0000 0.1111473899
H   H63       1.0  0.23720  0.60290  0.86690  1.0000 0.1111473899
H   H64       1.0  0.26280  0.10290  0.13310  1.0000 0.1111473899
H   H65       1.0  0.17120  0.48870  0.49490  1.0000 0.1111473899
H   H66       1.0  0.32880  0.98870  0.50510  1.0000 0.1111473899
H   H67       1.0  0.82880  0.51130  0.50510  1.0000 0.1111473899
H   H68       1.0  0.67120  0.01130  0.49490  1.0000 0.1111473899
H   H69       1.0  0.17480  0.57200  0.46780  1.0000 0.1187874731
H   H70       1.0  0.32520  0.07200  0.53220  1.0000 0.1187874731
H   H71       1.0  0.82520  0.42800  0.53220  1.0000 0.1187874731
H   H72       1.0  0.67480  0.92800  0.46780  1.0000 0.1187874731
H   H73       1.0  0.21140  0.60560  0.60310  1.0000 0.1111473899
H   H74       1.0  0.28860  0.10560  0.39690  1.0000 0.1111473899
H   H75       1.0  0.78860  0.39440  0.39690  1.0000 0.1111473899
H   H76       1.0  0.71140  0.89440  0.60310  1.0000 0.1111473899
H   H77       1.0  0.21060  0.52230  0.63050  1.0000 0.1111473899
H   H78       1.0  0.28940  0.02230  0.36950  1.0000 0.1111473899
H   H79       1.0  0.78940  0.47770  0.36950  1.0000 0.1111473899
H   H80       1.0  0.71060  0.97770  0.63050  1.0000 0.1111473899
H   H81       1.0  0.97290  0.39540  0.34070  1.0000 0.3429149739
H   H82       1.0  0.52710  0.89540  0.65930  1.0000 0.3429149739
H   H83       1.0  0.02710  0.60460  0.65930  1.0000 0.3429149739
H   H84       1.0  0.47290  0.10460  0.34070  1.0000 0.3429149739
H   H85       1.0  0.02030  0.84170  0.92840  1.0000 0.3562490396
H   H86       1.0  0.47970  0.34170  0.07160  1.0000 0.3562490396
H   H87       1.0  0.97970  0.15830  0.07160  1.0000 0.3562490396
H   H88       1.0  0.52030  0.65830  0.92840  1.0000 0.3562490396
H   H89       1.0  0.88770  0.45100  0.11440  1.0000 0.2994469754
H   H90       1.0  0.61230  0.95100  0.88560  1.0000 0.2994469754
H   H91       1.0  0.11230  0.54900  0.88560  1.0000 0.2994469754
H   H92       1.0  0.38770  0.04900  0.11440  1.0000 0.2994469754
H   H93       1.0  0.70320  0.46930  0.90360  1.0000 0.2994469754
H   H94       1.0  0.79680  0.96930  0.09640  1.0000 0.2994469754
H   H95       1.0  0.29680  0.53070  0.09640  1.0000 0.2994469754
H   H96       1.0  0.20320  0.03070  0.90360  1.0000 0.2994469754
H   H97       1.0  0.35790  0.56640  0.67970  1.0000 0.2994469754
H   H98       1.0  0.14210  0.06640  0.32030  1.0000 0.2994469754
H   H99       1.0  0.64210  0.43360  0.32030  1.0000 0.2994469754
H   H100      1.0  0.85790  0.93360  0.67970  1.0000 0.2994469754
H   H101      1.0  0.29440  0.50340  0.45080  1.0000 0.2906719796
H   H102      1.0  0.20560  0.00340  0.54920  1.0000 0.2906719796
H   H103      1.0  0.70560  0.49660  0.54920  1.0000 0.2906719796
H   H104      1.0  0.79440  0.99660  0.45080  1.0000 0.2906719796
C   C1        1.0  0.72700  0.26027  0.92580  1.0000 -0.0318810833
C   C2        1.0  0.77300  0.76027  0.07420  1.0000 -0.0318810833
C   C3        1.0  0.27300  0.73973  0.07420  1.0000 -0.0318810833
C   C4        1.0  0.22700  0.23973  0.92580  1.0000 -0.0318810833
C   C5        1.0  0.64650  0.22654  0.89810  1.0000 -0.1170461871
C   C6        1.0  0.85350  0.72654  0.10190  1.0000 -0.1170461871
C   C7        1.0  0.35350  0.77346  0.10190  1.0000 -0.1170461871
C   C8        1.0  0.14650  0.27346  0.89810  1.0000 -0.1170461871
C   C9        1.0  0.62310  0.18032  0.95200  1.0000 -0.0215346743
C   C10       1.0  0.87690  0.68032  0.04800  1.0000 -0.0215346743
C   C11       1.0  0.37690  0.81968  0.04800  1.0000 -0.0215346743
C   C12       1.0  0.12310  0.31968  0.95200  1.0000 -0.0215346743
C   C13       1.0  0.68050  0.16886  0.03460  1.0000 -0.1400482372
C   C14       1.0  0.81950  0.66886  0.96540  1.0000 -0.1400482372
C   C15       1.0  0.31950  0.83114  0.96540  1.0000 -0.1400482372
C   C16       1.0  0.18050  0.33114  0.03460  1.0000 -0.1400482372
C   C17       1.0  0.76130  0.20294  0.06390  1.0000 0.0696143583
C   C18       1.0  0.73870  0.70294  0.93610  1.0000 0.0696143583
C   C19       1.0  0.23870  0.79706  0.93610  1.0000 0.0696143583
C   C20       1.0  0.26130  0.29706  0.06390  1.0000 0.0696143583
C   C21       1.0  0.78470  0.24832  0.00860  1.0000 -0.1574910082
C   C22       1.0  0.71530  0.74832  0.99140  1.0000 -0.1574910082
C   C23       1.0  0.21530  0.75168  0.99140  1.0000 -0.1574910082
C   C24       1.0  0.28470  0.25168  0.00860  1.0000 -0.1574910082
C   C25       1.0  0.81880  0.18976  0.15370  1.0000 0.0696143583
C   C26       1.0  0.68120  0.68976  0.84630  1.0000 0.0696143583
C   C27       1.0  0.18120  0.81024  0.84630  1.0000 0.0696143583
C   C28       1.0  0.31880  0.31024  0.15370  1.0000 0.0696143583
C   C29       1.0  0.82400  0.11970  0.18750  1.0000 -0.1492572934
C   C30       1.0  0.67600  0.61970  0.81250  1.0000 -0.1492572934
C   C31       1.0  0.17600  0.88030  0.81250  1.0000 -0.1492572934
C   C32       1.0  0.32400  0.38030  0.18750  1.0000 -0.1492572934
C   C33       1.0  0.87380  0.10550  0.27290  1.0000 -0.0215346743
C   C34       1.0  0.62620  0.60550  0.72710  1.0000 -0.0215346743
C   C35       1.0  0.12620  0.89450  0.72710  1.0000 -0.0215346743
C   C36       1.0  0.37380  0.39450  0.27290  1.0000 -0.0215346743
C   C37       1.0  0.91870  0.16240  0.32370  1.0000 -0.0970562645
C   C38       1.0  0.58130  0.66240  0.67630  1.0000 -0.0970562645
C   C39       1.0  0.08130  0.83760  0.67630  1.0000 -0.0970562645
C   C40       1.0  0.41870  0.33760  0.32370  1.0000 -0.0970562645
C   C41       1.0  0.91360  0.23310  0.29050  1.0000 -0.0386489926
C   C42       1.0  0.58640  0.73310  0.70950  1.0000 -0.0386489926
C   C43       1.0  0.08640  0.76690  0.70950  1.0000 -0.0386489926
C   C44       1.0  0.41360  0.26690  0.29050  1.0000 -0.0386489926
C   C45       1.0  0.86420  0.24620  0.20560  1.0000 -0.1738400855
C   C46       1.0  0.63580  0.74620  0.79440  1.0000 -0.1738400855
C   C47       1.0  0.13580  0.75380  0.79440  1.0000 -0.1738400855
C   C48       1.0  0.36420  0.25380  0.20560  1.0000 -0.1738400855
C   C49       1.0  0.74950  0.30869  0.86500  1.0000 0.5835052259
C   C50       1.0  0.75050  0.80869  0.13500  1.0000 0.5835052259
C   C51       1.0  0.25050  0.69131  0.13500  1.0000 0.5835052259
C   C52       1.0  0.24950  0.19131  0.86500  1.0000 0.5835052259
C   C53       1.0  0.53750  0.14263  0.92310  1.0000 0.5835052259
C   C54       1.0  0.96250  0.64263  0.07690  1.0000 0.5835052259
C   C55       1.0  0.46250  0.85737  0.07690  1.0000 0.5835052259
C   C56       1.0  0.03750  0.35737  0.92310  1.0000 0.5835052259
C   C57       1.0  0.87340  0.02930  0.30520  1.0000 0.5835052259
C   C58       1.0  0.62660  0.52930  0.69480  1.0000 0.5835052259
C   C59       1.0  0.12660  0.97070  0.69480  1.0000 0.5835052259
C   C60       1.0  0.37340  0.47070  0.30520  1.0000 0.5835052259
C   C61       1.0  0.95640  0.29610  0.34640  1.0000 0.539566075
C   C62       1.0  0.54360  0.79610  0.65360  1.0000 0.539566075
C   C63       1.0  0.04360  0.70390  0.65360  1.0000 0.539566075
C   C64       1.0  0.45640  0.20390  0.34640  1.0000 0.539566075
C   C65       1.0  0.89000  0.61470  0.76710  1.0000 -0.0318810833
C   C66       1.0  0.61000  0.11470  0.23290  1.0000 -0.0318810833
C   C67       1.0  0.11000  0.38530  0.23290  1.0000 -0.0318810833
C   C68       1.0  0.39000  0.88530  0.76710  1.0000 -0.0318810833
C   C69       1.0  0.92920  0.67579  0.81370  1.0000 -0.1400482372
C   C70       1.0  0.57080  0.17579  0.18630  1.0000 -0.1400482372
C   C71       1.0  0.07080  0.32421  0.18630  1.0000 -0.1400482372
C   C72       1.0  0.42920  0.82421  0.81370  1.0000 -0.1400482372
C   C73       1.0  0.91000  0.74563  0.77790  1.0000 -0.0386489926
C   C74       1.0  0.59000  0.24563  0.22210  1.0000 -0.0386489926
C   C75       1.0  0.09000  0.25437  0.22210  1.0000 -0.0386489926
C   C76       1.0  0.41000  0.75437  0.77790  1.0000 -0.0386489926
C   C77       1.0  0.85390  0.75272  0.69410  1.0000 -0.1400482372
C   C78       1.0  0.64610  0.25272  0.30590  1.0000 -0.1400482372
C   C79       1.0  0.14610  0.24728  0.30590  1.0000 -0.1400482372
C   C80       1.0  0.35390  0.74728  0.69410  1.0000 -0.1400482372
C   C81       1.0  0.81500  0.69237  0.64600  1.0000 0.0696143583
C   C82       1.0  0.68500  0.19237  0.35400  1.0000 0.0696143583
C   C83       1.0  0.18500  0.30763  0.35400  1.0000 0.0696143583
C   C84       1.0  0.31500  0.80763  0.64600  1.0000 0.0696143583
C   C85       1.0  0.83150  0.62307  0.68340  1.0000 -0.1492572934
C   C86       1.0  0.66850  0.12307  0.31660  1.0000 -0.1492572934
C   C87       1.0  0.16850  0.37693  0.31660  1.0000 -0.1492572934
C   C88       1.0  0.33150  0.87693  0.68340  1.0000 -0.1492572934
C   C89       1.0  0.75360  0.70400  0.55680  1.0000 0.0696143583
C   C90       1.0  0.74640  0.20400  0.44320  1.0000 0.0696143583
C   C91       1.0  0.24640  0.29600  0.44320  1.0000 0.0696143583
C   C92       1.0  0.25360  0.79600  0.55680  1.0000 0.0696143583
C   C93       1.0  0.77270  0.75446  0.50370  1.0000 -0.1400482372
C   C94       1.0  0.72730  0.25446  0.49630  1.0000 -0.1400482372
C   C95       1.0  0.22730  0.24554  0.49630  1.0000 -0.1400482372
C   C96       1.0  0.27270  0.74554  0.50370  1.0000 -0.1400482372
C   C97       1.0  0.71190  0.76992  0.42330  1.0000 -0.0386489926
C   C98       1.0  0.78810  0.26992  0.57670  1.0000 -0.0386489926
C   C99       1.0  0.28810  0.23008  0.57670  1.0000 -0.0386489926
C   C100      1.0  0.21190  0.73008  0.42330  1.0000 -0.0386489926
C   C101      1.0  0.63230  0.73571  0.39710  1.0000 -0.1090653487
C   C102      1.0  0.86770  0.23571  0.60290  1.0000 -0.1090653487
C   C103      1.0  0.36770  0.26429  0.60290  1.0000 -0.1090653487
C   C104      1.0  0.13230  0.76429  0.39710  1.0000 -0.1090653487
C   C105      1.0  0.61337  0.68373  0.44810  1.0000 -0.0215346743
C   C106      1.0  0.88663  0.18373  0.55190  1.0000 -0.0215346743
C   C107      1.0  0.38663  0.31627  0.55190  1.0000 -0.0215346743
C   C108      1.0  0.11337  0.81627  0.44810  1.0000 -0.0215346743
C   C109      1.0  0.67450  0.66756  0.52810  1.0000 -0.1400482372
C   C110      1.0  0.82550  0.16756  0.47190  1.0000 -0.1400482372
C   C111      1.0  0.32550  0.33244  0.47190  1.0000 -0.1400482372
C   C112      1.0  0.17450  0.83244  0.52810  1.0000 -0.1400482372
C   C113      1.0  0.90900  0.53950  0.80670  1.0000 0.5893152705
C   C114      1.0  0.59100  0.03950  0.19330  1.0000 0.5893152705
C   C115      1.0  0.09100  0.46050  0.19330  1.0000 0.5893152705
C   C116      1.0  0.40900  0.96050  0.80670  1.0000 0.5893152705
C   C117      1.0  0.94550  0.81380  0.82750  1.0000 0.539566075
C   C118      1.0  0.55450  0.31380  0.17250  1.0000 0.539566075
C   C119      1.0  0.05450  0.18620  0.17250  1.0000 0.539566075
C   C120      1.0  0.44550  0.68620  0.82750  1.0000 0.539566075
C   C121      1.0  0.73210  0.82180  0.36370  1.0000 0.5835052259
C   C122      1.0  0.76790  0.32180  0.63630  1.0000 0.5835052259
C   C123      1.0  0.26790  0.17820  0.63630  1.0000 0.5835052259
C   C124      1.0  0.23210  0.67820  0.36370  1.0000 0.5835052259
C   C125      1.0  0.52670  0.64674  0.41910  1.0000 0.5893152705
C   C126      1.0  0.97330  0.14674  0.58090  1.0000 0.5893152705
C   C127      1.0  0.47330  0.35326  0.58090  1.0000 0.5893152705
C   C128      1.0  0.02670  0.85326  0.41910  1.0000 0.5893152705
C   C129      1.0  0.81550  0.46670  0.99630  1.0000 0.5961196623
C   C130      1.0  0.68450  0.96670  0.00370  1.0000 0.5961196623
C   C131      1.0  0.18450  0.53330  0.00370  1.0000 0.5961196623
C   C132      1.0  0.31550  0.03330  0.99630  1.0000 0.5961196623
C   C133      1.0  0.68680  0.43820  0.01420  1.0000 -0.0669347564
C   C134      1.0  0.81320  0.93820  0.98580  1.0000 -0.0669347564
C   C135      1.0  0.31320  0.56180  0.98580  1.0000 -0.0669347564
C   C136      1.0  0.18680  0.06180  0.01420  1.0000 -0.0669347564
C   C137      1.0  0.75890  0.44250  0.10110  1.0000 -0.0762495673
C   C138      1.0  0.74110  0.94250  0.89890  1.0000 -0.0762495673
C   C139      1.0  0.24110  0.55750  0.89890  1.0000 -0.0762495673
C   C140      1.0  0.25890  0.05750  0.10110  1.0000 -0.0762495673
C   C141      1.0  0.35530  0.53470  0.56780  1.0000 0.5961196623
C   C142      1.0  0.14470  0.03470  0.43220  1.0000 0.5961196623
C   C143      1.0  0.64470  0.46530  0.43220  1.0000 0.5961196623
C   C144      1.0  0.85530  0.96530  0.56780  1.0000 0.5961196623
C   C145      1.0  0.20650  0.53310  0.50590  1.0000 -0.0669347564
C   C146      1.0  0.29350  0.03310  0.49410  1.0000 -0.0669347564
C   C147      1.0  0.79350  0.46690  0.49410  1.0000 -0.0669347564
C   C148      1.0  0.70650  0.96690  0.50590  1.0000 -0.0669347564
C   C149      1.0  0.23270  0.55650  0.59850  1.0000 -0.0762495673
C   C150      1.0  0.26730  0.05650  0.40150  1.0000 -0.0762495673
C   C151      1.0  0.76730  0.44350  0.40150  1.0000 -0.0762495673
C   C152      1.0  0.73270  0.94350  0.59850  1.0000 -0.0762495673
N   N1        1.0  0.83540  0.45320  0.07840  1.0000 -0.3599969395
N   N2        1.0  0.66460  0.95320  0.92160  1.0000 -0.3599969395
N   N3        1.0  0.16460  0.54680  0.92160  1.0000 -0.3599969395
N   N4        1.0  0.33540  0.04680  0.07840  1.0000 -0.3599969395
N   N5        1.0  0.72962  0.46070  0.95710  1.0000 -0.3703962066
N   N6        1.0  0.77038  0.96070  0.04290  1.0000 -0.3703962066
N   N7        1.0  0.27038  0.53930  0.04290  1.0000 -0.3703962066
N   N8        1.0  0.22962  0.03930  0.95710  1.0000 -0.3703962066
N   N9        1.0  0.32530  0.55520  0.62840  1.0000 -0.3524648645
N   N10       1.0  0.17470  0.05520  0.37160  1.0000 -0.3524648645
N   N11       1.0  0.67470  0.44480  0.37160  1.0000 -0.3524648645
N   N12       1.0  0.82530  0.94480  0.62840  1.0000 -0.3524648645
N   N13       1.0  0.28880  0.51960  0.49690  1.0000 -0.3703962066
N   N14       1.0  0.21120  0.01960  0.50310  1.0000 -0.3703962066
N   N15       1.0  0.71120  0.48040  0.50310  1.0000 -0.3703962066
N   N16       1.0  0.78880  0.98040  0.49690  1.0000 -0.3703962066
O   O1        1.0  0.82685  0.32927  0.88460  1.0000 -0.5315945395
O   O2        1.0  0.67315  0.82927  0.11540  1.0000 -0.5315945395
O   O3        1.0  0.17315  0.67073  0.11540  1.0000 -0.5315945395
O   O4        1.0  0.32685  0.17073  0.88460  1.0000 -0.5315945395
O   O5        1.0  0.68986  0.32549  0.79849  1.0000 -0.5315945395
O   O6        1.0  0.81014  0.82549  0.20151  1.0000 -0.5315945395
O   O7        1.0  0.31014  0.67451  0.20151  1.0000 -0.5315945395
O   O8        1.0  0.18986  0.17451  0.79849  1.0000 -0.5315945395
O   O9        1.0  0.49055  0.14966  0.84585  1.0000 -0.5221759725
O   O10       1.0  0.00945  0.64966  0.15415  1.0000 -0.5221759725
O   O11       1.0  0.50945  0.85034  0.15415  1.0000 -0.5221759725
O   O12       1.0  0.99055  0.35034  0.84585  1.0000 -0.5221759725
O   O13       1.0  0.51595  0.10811  0.97697  1.0000 -0.5611508735
O   O14       1.0  0.98405  0.60811  0.02303  1.0000 -0.5611508735
O   O15       1.0  0.48405  0.89189  0.02303  1.0000 -0.5611508735
O   O16       1.0  0.01595  0.39189  0.97697  1.0000 -0.5611508735
O   O17       1.0  0.85586  0.97741  0.25220  1.0000 -0.5392640579
O   O18       1.0  0.64414  0.47741  0.74780  1.0000 -0.5392640579
O   O19       1.0  0.14414  0.02259  0.74780  1.0000 -0.5392640579
O   O20       1.0  0.35586  0.52259  0.25220  1.0000 -0.5392640579
O   O21       1.0  0.88579  0.01828  0.38313  1.0000 -0.5983364531
O   O22       1.0  0.61421  0.51828  0.61687  1.0000 -0.5983364531
O   O23       1.0  0.11421  0.98172  0.61687  1.0000 -0.5983364531
O   O24       1.0  0.38579  0.48172  0.38313  1.0000 -0.5983364531
O   O25       1.0  0.00650  0.28220  0.42080  1.0000 -0.5221759725
O   O26       1.0  0.49350  0.78220  0.57920  1.0000 -0.5221759725
O   O27       1.0  0.99350  0.71780  0.57920  1.0000 -0.5221759725
O   O28       1.0  0.50650  0.21780  0.42080  1.0000 -0.5221759725
O   O29       1.0  0.93940  0.35991  0.31660  1.0000 -0.4148983904
O   O30       1.0  0.56060  0.85991  0.68340  1.0000 -0.4148983904
O   O31       1.0  0.06060  0.64009  0.68340  1.0000 -0.4148983904
O   O32       1.0  0.43940  0.14009  0.31660  1.0000 -0.4148983904
O   O33       1.0  0.97742  0.53097  0.87019  1.0000 -0.5983364531
O   O34       1.0  0.52258  0.03097  0.12981  1.0000 -0.5983364531
O   O35       1.0  0.02258  0.46903  0.12981  1.0000 -0.5983364531
O   O36       1.0  0.47742  0.96903  0.87019  1.0000 -0.5983364531
O   O37       1.0  0.85502  0.48946  0.77237  1.0000 -0.5392640579
O   O38       1.0  0.64498  0.98946  0.22763  1.0000 -0.5392640579
O   O39       1.0  0.14498  0.51054  0.22763  1.0000 -0.5392640579
O   O40       1.0  0.35502  0.01054  0.77237  1.0000 -0.5392640579
O   O41       1.0  0.00039  0.80126  0.90348  1.0000 -0.4321176656
O   O42       1.0  0.49961  0.30126  0.09652  1.0000 -0.4321176656
O   O43       1.0  0.99961  0.19874  0.09652  1.0000 -0.4321176656
O   O44       1.0  0.50039  0.69874  0.90348  1.0000 -0.4321176656
O   O45       1.0  0.92510  0.87526  0.79896  1.0000 -0.5315945395
O   O46       1.0  0.57490  0.37526  0.20104  1.0000 -0.5315945395
O   O47       1.0  0.07490  0.12474  0.20104  1.0000 -0.5315945395
O   O48       1.0  0.42510  0.62474  0.79896  1.0000 -0.5315945395
O   O49       1.0  0.80854  0.84384  0.38423  1.0000 -0.5315945395
O   O50       1.0  0.69146  0.34384  0.61577  1.0000 -0.5315945395
O   O51       1.0  0.19146  0.15616  0.61577  1.0000 -0.5315945395
O   O52       1.0  0.30854  0.65616  0.38423  1.0000 -0.5315945395
O   O53       1.0  0.67163  0.83933  0.29810  1.0000 -0.5392640579
O   O54       1.0  0.82837  0.33933  0.70190  1.0000 -0.5392640579
O   O55       1.0  0.32837  0.16067  0.70190  1.0000 -0.5392640579
O   O56       1.0  0.17163  0.66067  0.29810  1.0000 -0.5392640579
O   O57       1.0  0.47765  0.66005  0.34311  1.0000 -0.5221759725
O   O58       1.0  0.02235  0.16005  0.65689  1.0000 -0.5221759725
O   O59       1.0  0.52235  0.33995  0.65689  1.0000 -0.5221759725
O   O60       1.0  0.97765  0.83995  0.34311  1.0000 -0.5221759725
O   O61       1.0  0.50628  0.60669  0.46868  1.0000 -0.5490458258
O   O62       1.0  0.99372  0.10669  0.53132  1.0000 -0.5490458258
O   O63       1.0  0.49372  0.39331  0.53132  1.0000 -0.5490458258
O   O64       1.0  0.00628  0.89331  0.46868  1.0000 -0.5490458258
O   O65       1.0  0.86733  0.48245  0.96006  1.0000 -0.5767410048
O   O66       1.0  0.63267  0.98245  0.03994  1.0000 -0.5767410048
O   O67       1.0  0.13267  0.51755  0.03994  1.0000 -0.5767410048
O   O68       1.0  0.36733  0.01755  0.96006  1.0000 -0.5767410048
O   O69       1.0  0.43289  0.53064  0.57678  1.0000 -0.5315945395
O   O70       1.0  0.06711  0.03064  0.42322  1.0000 -0.5315945395
O   O71       1.0  0.56711  0.46936  0.42322  1.0000 -0.5315945395
O   O72       1.0  0.93289  0.96936  0.57678  1.0000 -0.5315945395
