# DDEC6 charges by PACMAN v1.1 (https://github.com/mtap-research/PACMAN-charge/)
data_2015[Mg][nan]3[FSR]5
_chemical_formula_sum              "Mg12 H32 C56 N8 O40"
_cell_length_a       10.8609
_cell_length_b       14.3088
_cell_length_c       17.4958
_cell_angle_alpha    90
_cell_angle_beta     110.709
_cell_angle_gamma    90

_symmetry_space_group_name_H-M    "P 1"
_symmetry_Int_Tables_number       1

loop_
  _symmetry_equiv_pos_as_xyz
  'x, y, z'

loop_
  _atom_site_type_symbol
  _atom_site_label
  _atom_site_symmetry_multiplicity
  _atom_site_fract_x
  _atom_site_fract_y
  _atom_site_fract_z
  _atom_site_occupancy
  _atom_site_charge
Mg  Mg1       1.0  0.95891  0.47079  0.90853  1.0000 1.3193236743
Mg  Mg2       1.0  0.04109  0.97079  0.59147  1.0000 1.3193236743
Mg  Mg3       1.0  0.04109  0.52921  0.09147  1.0000 1.3193236743
Mg  Mg4       1.0  0.95891  0.02921  0.40853  1.0000 1.3193236743
Mg  Mg5       1.0  0.74976  0.59083  0.99951  1.0000 1.3818380688
Mg  Mg6       1.0  0.25024  0.09083  0.50049  1.0000 1.3818380688
Mg  Mg7       1.0  0.25024  0.40917  0.00049  1.0000 1.3818380688
Mg  Mg8       1.0  0.74976  0.90917  0.49951  1.0000 1.3818380688
Mg  Mg9       1.0  0.45795  0.53112  0.90990  1.0000 1.3147296761
Mg  Mg10      1.0  0.54205  0.03112  0.59010  1.0000 1.3147296761
Mg  Mg11      1.0  0.54205  0.46888  0.09010  1.0000 1.3147296761
Mg  Mg12      1.0  0.45795  0.96888  0.40990  1.0000 1.3147296761
H   H1        1.0  0.12760  0.70910  0.75860  1.0000 0.1491162968
H   H2        1.0  0.87240  0.20910  0.74140  1.0000 0.1491162968
H   H3        1.0  0.87240  0.29090  0.24140  1.0000 0.1491162968
H   H4        1.0  0.12760  0.79090  0.25860  1.0000 0.1491162968
H   H5        1.0  0.72930  0.68820  0.65730  1.0000 0.128278539
H   H6        1.0  0.27070  0.18820  0.84270  1.0000 0.128278539
H   H7        1.0  0.27070  0.31180  0.34270  1.0000 0.128278539
H   H8        1.0  0.72930  0.81180  0.15730  1.0000 0.128278539
H   H9        1.0  0.74040  0.56710  0.74940  1.0000 0.1088277822
H   H10       1.0  0.25960  0.06710  0.75060  1.0000 0.1088277822
H   H11       1.0  0.25960  0.43290  0.25060  1.0000 0.1088277822
H   H12       1.0  0.74040  0.93290  0.24940  1.0000 0.1088277822
H   H13       1.0  0.55910  0.62580  0.03510  1.0000 0.3841587756
H   H14       1.0  0.44090  0.12580  0.46490  1.0000 0.3841587756
H   H15       1.0  0.44090  0.37420  0.96490  1.0000 0.3841587756
H   H16       1.0  0.55910  0.87420  0.53510  1.0000 0.3841587756
H   H17       1.0  0.94270  0.62780  0.96370  1.0000 0.3841587756
H   H18       1.0  0.05730  0.12780  0.53630  1.0000 0.3841587756
H   H19       1.0  0.05730  0.37220  0.03630  1.0000 0.3841587756
H   H20       1.0  0.94270  0.87220  0.46370  1.0000 0.3841587756
H   H21       1.0  0.62660  0.29800  0.75160  1.0000 0.1491162968
H   H22       1.0  0.37340  0.79800  0.74840  1.0000 0.1491162968
H   H23       1.0  0.37340  0.70200  0.24840  1.0000 0.1491162968
H   H24       1.0  0.62660  0.20200  0.25160  1.0000 0.1491162968
H   H25       1.0  0.22860  0.29670  0.67060  1.0000 0.128278539
H   H26       1.0  0.77140  0.79670  0.82940  1.0000 0.128278539
H   H27       1.0  0.77140  0.70330  0.32940  1.0000 0.128278539
H   H28       1.0  0.22860  0.20330  0.17060  1.0000 0.128278539
H   H29       1.0  0.23810  0.41990  0.76310  1.0000 0.1088277822
H   H30       1.0  0.76190  0.91990  0.73690  1.0000 0.1088277822
H   H31       1.0  0.76190  0.58010  0.23690  1.0000 0.1088277822
H   H32       1.0  0.23810  0.08010  0.26310  1.0000 0.1088277822
C   C1        1.0  0.04129  0.60801  0.80495  1.0000 0.1023801793
C   C2        1.0  0.95871  0.10801  0.69505  1.0000 0.1023801793
C   C3        1.0  0.95871  0.39199  0.19505  1.0000 0.1023801793
C   C4        1.0  0.04129  0.89199  0.30495  1.0000 0.1023801793
C   C5        1.0  0.04467  0.68201  0.75439  1.0000 -0.1561529781
C   C6        1.0  0.95533  0.18201  0.74561  1.0000 -0.1544882055
C   C7        1.0  0.95533  0.31799  0.24561  1.0000 -0.1561529781
C   C8        1.0  0.04467  0.81799  0.25439  1.0000 -0.1561529781
C   C9        1.0  0.92596  0.71441  0.69874  1.0000 0.0235639214
C   C10       1.0  0.07404  0.21441  0.80126  1.0000 0.0235639214
C   C11       1.0  0.07404  0.28559  0.30126  1.0000 0.0235639214
C   C12       1.0  0.92596  0.78559  0.19874  1.0000 0.0235639214
C   C13       1.0  0.80948  0.67038  0.69481  1.0000 -0.1561529781
C   C14       1.0  0.19052  0.17038  0.80519  1.0000 -0.1561529781
C   C15       1.0  0.19052  0.32962  0.30519  1.0000 -0.1561529781
C   C16       1.0  0.80948  0.82962  0.19481  1.0000 -0.1561529781
C   C17       1.0  0.81564  0.59794  0.74890  1.0000 0.0901249605
C   C18       1.0  0.18436  0.09794  0.75110  1.0000 0.0901249605
C   C19       1.0  0.18436  0.40206  0.25110  1.0000 0.0901249605
C   C20       1.0  0.81564  0.90206  0.24890  1.0000 0.0901249605
C   C21       1.0  0.16506  0.56561  0.86556  1.0000 0.588181239
C   C22       1.0  0.83494  0.06561  0.63444  1.0000 0.588181239
C   C23       1.0  0.83494  0.43439  0.13444  1.0000 0.588181239
C   C24       1.0  0.16506  0.93439  0.36556  1.0000 0.588181239
C   C25       1.0  0.91951  0.79626  0.64297  1.0000 0.588181239
C   C26       1.0  0.08049  0.29626  0.85703  1.0000 0.588181239
C   C27       1.0  0.08049  0.20374  0.35703  1.0000 0.588181239
C   C28       1.0  0.91951  0.70374  0.14297  1.0000 0.588181239
C   C29       1.0  0.53973  0.39413  0.80297  1.0000 0.1023801793
C   C30       1.0  0.46027  0.89413  0.69703  1.0000 0.1023801793
C   C31       1.0  0.46027  0.60587  0.19703  1.0000 0.1023801793
C   C32       1.0  0.53973  0.10587  0.30297  1.0000 0.1023801793
C   C33       1.0  0.54329  0.32060  0.75178  1.0000 -0.1561529781
C   C34       1.0  0.45671  0.82060  0.74822  1.0000 -0.1561529781
C   C35       1.0  0.45671  0.67940  0.24822  1.0000 -0.1561529781
C   C36       1.0  0.54329  0.17940  0.25178  1.0000 -0.1561529781
C   C37       1.0  0.42467  0.28161  0.70267  1.0000 0.0279590901
C   C38       1.0  0.57533  0.78161  0.79733  1.0000 0.0279590901
C   C39       1.0  0.57533  0.71839  0.29733  1.0000 0.0279590901
C   C40       1.0  0.42467  0.21839  0.20267  1.0000 0.0279590901
C   C41       1.0  0.30786  0.31907  0.70506  1.0000 -0.1561529781
C   C42       1.0  0.69214  0.81907  0.79494  1.0000 -0.1561529781
C   C43       1.0  0.69214  0.68093  0.29494  1.0000 -0.1561529781
C   C44       1.0  0.30786  0.18093  0.20506  1.0000 -0.1561529781
C   C45       1.0  0.31416  0.39267  0.75823  1.0000 0.0901249605
C   C46       1.0  0.68584  0.89267  0.74177  1.0000 0.0901249605
C   C47       1.0  0.68584  0.60733  0.24177  1.0000 0.0901249605
C   C48       1.0  0.31416  0.10733  0.25823  1.0000 0.0901249605
C   C49       1.0  0.66345  0.43822  0.86162  1.0000 0.588181239
C   C50       1.0  0.33655  0.93822  0.63838  1.0000 0.588181239
C   C51       1.0  0.33655  0.56178  0.13838  1.0000 0.588181239
C   C52       1.0  0.66345  0.06178  0.36162  1.0000 0.588181239
C   C53       1.0  0.41821  0.19895  0.64671  1.0000 0.588181239
C   C54       1.0  0.58179  0.69895  0.85329  1.0000 0.588181239
C   C55       1.0  0.58179  0.80105  0.35329  1.0000 0.588181239
C   C56       1.0  0.41821  0.30105  0.14671  1.0000 0.588181239
N   N1        1.0  0.92888  0.56741  0.80406  1.0000 -0.3225842375
N   N2        1.0  0.07112  0.06741  0.69594  1.0000 -0.3225842375
N   N3        1.0  0.07112  0.43259  0.19594  1.0000 -0.3225842375
N   N4        1.0  0.92888  0.93259  0.30406  1.0000 -0.3225842375
N   N5        1.0  0.42736  0.42958  0.80728  1.0000 -0.3225842375
N   N6        1.0  0.57264  0.92958  0.69272  1.0000 -0.3225842375
N   N7        1.0  0.57264  0.57042  0.19272  1.0000 -0.3225842375
N   N8        1.0  0.42736  0.07042  0.30728  1.0000 -0.3225842375
O   O1        1.0  0.14716  0.50952  0.91653  1.0000 -0.6903434541
O   O2        1.0  0.85284  0.00952  0.58347  1.0000 -0.6903434541
O   O3        1.0  0.85284  0.49048  0.08347  1.0000 -0.6903434541
O   O4        1.0  0.14716  0.99048  0.41653  1.0000 -0.6903434541
O   O5        1.0  0.27278  0.58620  0.86065  1.0000 -0.5808521117
O   O6        1.0  0.72722  0.08620  0.63935  1.0000 -0.5808521117
O   O7        1.0  0.72722  0.41380  0.13935  1.0000 -0.5808521117
O   O8        1.0  0.27278  0.91380  0.36065  1.0000 -0.5808521117
O   O9        1.0  0.01600  0.85168  0.66160  1.0000 -0.6095173355
O   O10       1.0  0.98400  0.35168  0.83840  1.0000 -0.6095173355
O   O11       1.0  0.98400  0.14832  0.33840  1.0000 -0.6095173355
O   O12       1.0  0.01600  0.64832  0.16160  1.0000 -0.6095173355
O   O13       1.0  0.81617  0.80290  0.58131  1.0000 -0.6381160017
O   O14       1.0  0.18383  0.30290  0.91869  1.0000 -0.6381160017
O   O15       1.0  0.18383  0.19710  0.41869  1.0000 -0.6381160017
O   O16       1.0  0.81617  0.69710  0.08131  1.0000 -0.6381160017
O   O17       1.0  0.57485  0.57922  0.02175  1.0000 -1.0251319255
O   O18       1.0  0.42515  0.07922  0.47825  1.0000 -1.0239277528
O   O19       1.0  0.42515  0.42078  0.97825  1.0000 -1.0251319255
O   O20       1.0  0.57485  0.92078  0.52175  1.0000 -1.0239277528
O   O21       1.0  0.92946  0.58022  0.97864  1.0000 -1.0239277528
O   O22       1.0  0.07054  0.08022  0.52136  1.0000 -1.0239277528
O   O23       1.0  0.07054  0.41978  0.02136  1.0000 -1.0239277528
O   O24       1.0  0.92946  0.91978  0.47864  1.0000 -1.0239277528
O   O25       1.0  0.64763  0.49036  0.91527  1.0000 -0.6773455288
O   O26       1.0  0.35237  0.99036  0.58473  1.0000 -0.6773455288
O   O27       1.0  0.35237  0.50964  0.08473  1.0000 -0.6773455288
O   O28       1.0  0.64763  0.00964  0.41527  1.0000 -0.6773455288
O   O29       1.0  0.77111  0.42057  0.85434  1.0000 -0.5854264941
O   O30       1.0  0.22889  0.92057  0.64566  1.0000 -0.5854264941
O   O31       1.0  0.22889  0.57943  0.14566  1.0000 -0.5854264941
O   O32       1.0  0.77111  0.07943  0.35434  1.0000 -0.5808521117
O   O33       1.0  0.51567  0.14553  0.66369  1.0000 -0.6095173355
O   O34       1.0  0.48433  0.64553  0.83631  1.0000 -0.6095173355
O   O35       1.0  0.48433  0.85447  0.33631  1.0000 -0.6095173355
O   O36       1.0  0.51567  0.35447  0.16369  1.0000 -0.6095173355
O   O37       1.0  0.31170  0.19111  0.58747  1.0000 -0.6381160017
O   O38       1.0  0.68830  0.69111  0.91253  1.0000 -0.6381160017
O   O39       1.0  0.68830  0.80889  0.41253  1.0000 -0.6381160017
O   O40       1.0  0.31170  0.30889  0.08747  1.0000 -0.6381160017
