# DDEC6 charges by PACMAN v1.1 (https://github.com/mtap-research/PACMAN-charge/)
data_2015[Zn][nan]3[FSR]30
_chemical_formula_sum              "Zn8 H52 C68 N12 O36"
_cell_length_a       14.0907
_cell_length_b       12.1434
_cell_length_c       17.2821
_cell_angle_alpha    90
_cell_angle_beta     125.533
_cell_angle_gamma    90

_symmetry_space_group_name_H-M    "P 1"
_symmetry_Int_Tables_number       1

loop_
  _symmetry_equiv_pos_as_xyz
  'x, y, z'

loop_
  _atom_site_type_symbol
  _atom_site_label
  _atom_site_symmetry_multiplicity
  _atom_site_fract_x
  _atom_site_fract_y
  _atom_site_fract_z
  _atom_site_occupancy
  _atom_site_charge
Zn  Zn1       1.0  0.12205  0.24317  0.92574  1.0000 0.8884352126
Zn  Zn2       1.0  0.87795  0.74317  0.57426  1.0000 0.8884352126
Zn  Zn3       1.0  0.87795  0.75683  0.07426  1.0000 0.8884352126
Zn  Zn4       1.0  0.12205  0.25683  0.42574  1.0000 0.8884352126
Zn  Zn5       1.0  0.19366  0.02137  0.84354  1.0000 0.8884352126
Zn  Zn6       1.0  0.80634  0.52137  0.65646  1.0000 0.8884352126
Zn  Zn7       1.0  0.80634  0.97863  0.15646  1.0000 0.8884352126
Zn  Zn8       1.0  0.19366  0.47863  0.34354  1.0000 0.8884352126
H   H1        1.0  0.54010  0.02290  0.06730  1.0000 0.1081203661
H   H2        1.0  0.45990  0.52290  0.43270  1.0000 0.1081203661
H   H3        1.0  0.45990  0.97710  0.93270  1.0000 0.1081203661
H   H4        1.0  0.54010  0.47710  0.56730  1.0000 0.1081203661
H   H5        1.0  0.51800  0.32810  0.14710  1.0000 0.1322986313
H   H6        1.0  0.48200  0.82810  0.35290  1.0000 0.1322986313
H   H7        1.0  0.48200  0.67190  0.85290  1.0000 0.1322986313
H   H8        1.0  0.51800  0.17190  0.64710  1.0000 0.1322986313
H   H9        1.0  0.72360  0.33210  0.25050  1.0000 0.1393481447
H   H10       1.0  0.27640  0.83210  0.24950  1.0000 0.1393481447
H   H11       1.0  0.27640  0.66790  0.74950  1.0000 0.1393481447
H   H12       1.0  0.72360  0.16790  0.75050  1.0000 0.1393481447
H   H13       1.0  0.11790  0.18400  0.60030  1.0000 0.1191784718
H   H14       1.0  0.88210  0.68400  0.89970  1.0000 0.1191784718
H   H15       1.0  0.88210  0.81600  0.39970  1.0000 0.1191784718
H   H16       1.0  0.11790  0.31600  0.10030  1.0000 0.1191784718
H   H17       1.0  0.14050  0.46120  0.73980  1.0000 0.1322986313
H   H18       1.0  0.85950  0.96120  0.76020  1.0000 0.1322986313
H   H19       1.0  0.85950  0.53880  0.26020  1.0000 0.1322986313
H   H20       1.0  0.14050  0.03880  0.23980  1.0000 0.1322986313
H   H21       1.0  0.13730  0.56470  0.62280  1.0000 0.1322986313
H   H22       1.0  0.86270  0.06470  0.87720  1.0000 0.1322986313
H   H23       1.0  0.86270  0.43530  0.37720  1.0000 0.1322986313
H   H24       1.0  0.13730  0.93530  0.12280  1.0000 0.1322986313
H   H25       1.0  0.11670  0.47170  0.87080  1.0000 0.0989742555
H   H26       1.0  0.88330  0.97170  0.62920  1.0000 0.0989742555
H   H27       1.0  0.88330  0.52830  0.12920  1.0000 0.0989742555
H   H28       1.0  0.11670  0.02830  0.37080  1.0000 0.0989742555
H   H29       1.0  0.24860  0.61880  0.10000  1.0000 0.1393481447
H   H30       1.0  0.75140  0.11880  0.40000  1.0000 0.1393481447
H   H31       1.0  0.75140  0.38120  0.90000  1.0000 0.1393481447
H   H32       1.0  0.24860  0.88120  0.60000  1.0000 0.1393481447
H   H33       1.0  0.12640  0.68230  0.04640  1.0000 0.1393481447
H   H34       1.0  0.87360  0.18230  0.45360  1.0000 0.1393481447
H   H35       1.0  0.87360  0.31770  0.95360  1.0000 0.1393481447
H   H36       1.0  0.12640  0.81770  0.54640  1.0000 0.1393481447
H   H37       1.0  0.13280  0.55380  0.06960  1.0000 0.1393481447
H   H38       1.0  0.86720  0.05380  0.43040  1.0000 0.1393481447
H   H39       1.0  0.86720  0.44620  0.93040  1.0000 0.1393481447
H   H40       1.0  0.13280  0.94620  0.56960  1.0000 0.1393481447
H   H41       1.0  0.11680  0.65070  0.84250  1.0000 0.1322986313
H   H42       1.0  0.88320  0.15070  0.65750  1.0000 0.1322986313
H   H43       1.0  0.88320  0.34930  0.15750  1.0000 0.1322986313
H   H44       1.0  0.11680  0.84930  0.34250  1.0000 0.1322986313
H   H45       1.0  0.10100  0.73780  0.90370  1.0000 0.1393481447
H   H46       1.0  0.89900  0.23780  0.59630  1.0000 0.1393481447
H   H47       1.0  0.89900  0.26220  0.09630  1.0000 0.1393481447
H   H48       1.0  0.10100  0.76220  0.40370  1.0000 0.1393481447
H   H49       1.0  0.22880  0.69930  0.93900  1.0000 0.1393481447
H   H50       1.0  0.77120  0.19930  0.56100  1.0000 0.1393481447
H   H51       1.0  0.77120  0.30070  0.06100  1.0000 0.1393481447
H   H52       1.0  0.22880  0.80070  0.43900  1.0000 0.1393481447
C   C1        1.0  0.57720  0.08881  0.10128  1.0000 0.0903094241
C   C2        1.0  0.42280  0.58881  0.39872  1.0000 0.0903094241
C   C3        1.0  0.42280  0.91119  0.89872  1.0000 0.0903094241
C   C4        1.0  0.57720  0.41119  0.60128  1.0000 0.0903094241
C   C5        1.0  0.50745  0.17655  0.09197  1.0000 -0.0607057071
C   C6        1.0  0.49255  0.67655  0.40803  1.0000 -0.0607057071
C   C7        1.0  0.49255  0.82345  0.90803  1.0000 -0.0607057071
C   C8        1.0  0.50745  0.32345  0.59197  1.0000 -0.0607057071
C   C9        1.0  0.56246  0.26795  0.14906  1.0000 -0.0607057071
C   C10       1.0  0.43754  0.76795  0.35094  1.0000 -0.0607057071
C   C11       1.0  0.43754  0.73205  0.85094  1.0000 -0.0607057071
C   C12       1.0  0.56246  0.23205  0.64906  1.0000 -0.0607057071
C   C13       1.0  0.68451  0.27077  0.20977  1.0000 -0.1409284494
C   C14       1.0  0.31549  0.77077  0.29023  1.0000 -0.1409284494
C   C15       1.0  0.31549  0.72923  0.79023  1.0000 -0.1409284494
C   C16       1.0  0.68451  0.22923  0.70977  1.0000 -0.1409284494
C   C17       1.0  0.74770  0.18318  0.20979  1.0000 0.1081203661
C   C18       1.0  0.25230  0.68318  0.29021  1.0000 0.1081203661
C   C19       1.0  0.25230  0.81682  0.79021  1.0000 0.1081203661
C   C20       1.0  0.74770  0.31682  0.70979  1.0000 0.1081203661
C   C21       1.0  0.37617  0.16796  0.01897  1.0000 0.5892537513
C   C22       1.0  0.62383  0.66796  0.48103  1.0000 0.5892537513
C   C23       1.0  0.62383  0.83204  0.98103  1.0000 0.5892537513
C   C24       1.0  0.37617  0.33204  0.51897  1.0000 0.5892537513
C   C25       1.0  0.87939  0.17848  0.26760  1.0000 0.5352790483
C   C26       1.0  0.12061  0.67848  0.23240  1.0000 0.5352790483
C   C27       1.0  0.12061  0.82152  0.73240  1.0000 0.5352790483
C   C28       1.0  0.87939  0.32152  0.76760  1.0000 0.5352790483
C   C29       1.0  0.12307  0.26199  0.60577  1.0000 0.0903094241
C   C30       1.0  0.87693  0.76199  0.89423  1.0000 0.0903094241
C   C31       1.0  0.87693  0.73801  0.39423  1.0000 0.0903094241
C   C32       1.0  0.12307  0.23801  0.10577  1.0000 0.0903094241
C   C33       1.0  0.13371  0.31102  0.68333  1.0000 -0.0607057071
C   C34       1.0  0.86629  0.81102  0.81667  1.0000 -0.0607057071
C   C35       1.0  0.86629  0.68898  0.31667  1.0000 -0.0607057071
C   C36       1.0  0.13371  0.18898  0.18333  1.0000 -0.0607057071
C   C37       1.0  0.13686  0.42538  0.68927  1.0000 -0.0393169506
C   C38       1.0  0.86314  0.92538  0.81073  1.0000 -0.0393169506
C   C39       1.0  0.86314  0.57462  0.31073  1.0000 -0.0393169506
C   C40       1.0  0.13686  0.07462  0.18927  1.0000 -0.0393169506
C   C41       1.0  0.13450  0.48656  0.62010  1.0000 -0.1471978075
C   C42       1.0  0.86550  0.98656  0.87990  1.0000 -0.1471978075
C   C43       1.0  0.86550  0.51344  0.37990  1.0000 -0.1471978075
C   C44       1.0  0.13450  0.01344  0.12010  1.0000 -0.1471978075
C   C45       1.0  0.12809  0.43064  0.54714  1.0000 0.1081203661
C   C46       1.0  0.87191  0.93064  0.95286  1.0000 0.1081203661
C   C47       1.0  0.87191  0.56936  0.45286  1.0000 0.1081203661
C   C48       1.0  0.12809  0.06936  0.04714  1.0000 0.1081203661
C   C49       1.0  0.14188  0.23977  0.75827  1.0000 0.5892537513
C   C50       1.0  0.85812  0.73977  0.74173  1.0000 0.5892537513
C   C51       1.0  0.85812  0.76023  0.24173  1.0000 0.5892537513
C   C52       1.0  0.14188  0.26023  0.25827  1.0000 0.5892537513
C   C53       1.0  0.13416  0.49132  0.47361  1.0000 0.5265293249
C   C54       1.0  0.86584  0.99132  0.02639  1.0000 0.5265293249
C   C55       1.0  0.86584  0.50868  0.52639  1.0000 0.5265293249
C   C56       1.0  0.13416  0.00868  0.97361  1.0000 0.5265293249
C   C57       1.0  0.12869  0.48358  0.93024  1.0000 0.3096709081
C   C58       1.0  0.87131  0.98358  0.56976  1.0000 0.3096709081
C   C59       1.0  0.87131  0.51642  0.06976  1.0000 0.3096709081
C   C60       1.0  0.12869  0.01642  0.43024  1.0000 0.3096709081
C   C61       1.0  0.16433  0.61230  0.05153  1.0000 -0.333170744
C   C62       1.0  0.83567  0.11230  0.44847  1.0000 -0.333170744
C   C63       1.0  0.83567  0.38770  0.94847  1.0000 -0.333170744
C   C64       1.0  0.16433  0.88770  0.55153  1.0000 -0.333170744
C   C65       1.0  0.14768  0.67576  0.90699  1.0000 -0.3535571343
C   C66       1.0  0.85232  0.17576  0.59301  1.0000 -0.3535571343
C   C67       1.0  0.85232  0.32424  0.09301  1.0000 -0.3535571343
C   C68       1.0  0.14768  0.82424  0.40699  1.0000 -0.3535571343
N   N1        1.0  0.69392  0.09302  0.15579  1.0000 -0.2574167124
N   N2        1.0  0.30608  0.59302  0.34421  1.0000 -0.2574167124
N   N3        1.0  0.30608  0.90698  0.84421  1.0000 -0.2574167124
N   N4        1.0  0.69392  0.40698  0.65579  1.0000 -0.2574167124
N   N5        1.0  0.11982  0.32033  0.53880  1.0000 -0.2394604406
N   N6        1.0  0.88018  0.82033  0.96120  1.0000 -0.2394604406
N   N7        1.0  0.88018  0.67967  0.46120  1.0000 -0.2394604406
N   N8        1.0  0.11982  0.17967  0.03880  1.0000 -0.2394604406
N   N9        1.0  0.14228  0.58566  0.96030  1.0000 0.0462543123
N   N10       1.0  0.85772  0.08566  0.53970  1.0000 0.0462543123
N   N11       1.0  0.85772  0.41434  0.03970  1.0000 0.0462543123
N   N12       1.0  0.14228  0.91434  0.46030  1.0000 0.0462543123
O   O1        1.0  0.31228  0.23311  0.02388  1.0000 -0.5273817898
O   O2        1.0  0.68772  0.73311  0.47612  1.0000 -0.5273817898
O   O3        1.0  0.68772  0.76689  0.97612  1.0000 -0.5273817898
O   O4        1.0  0.31228  0.26689  0.52388  1.0000 -0.5273817898
O   O5        1.0  0.34553  0.09203  0.95880  1.0000 -0.5708145372
O   O6        1.0  0.65447  0.59203  0.54120  1.0000 -0.5708145372
O   O7        1.0  0.65447  0.90797  0.04120  1.0000 -0.5708145372
O   O8        1.0  0.34553  0.40797  0.45880  1.0000 -0.5708145372
O   O9        1.0  0.93619  0.25342  0.32761  1.0000 -0.5273817898
O   O10       1.0  0.06381  0.75342  0.17239  1.0000 -0.5273817898
O   O11       1.0  0.06381  0.74658  0.67239  1.0000 -0.5273817898
O   O12       1.0  0.93619  0.24658  0.82761  1.0000 -0.5273817898
O   O13       1.0  0.92060  0.09833  0.24990  1.0000 -0.5273817898
O   O14       1.0  0.07940  0.59833  0.25010  1.0000 -0.5273817898
O   O15       1.0  0.07940  0.90167  0.75010  1.0000 -0.5273817898
O   O16       1.0  0.92060  0.40167  0.74990  1.0000 -0.5273817898
O   O17       1.0  0.14791  0.28772  0.82494  1.0000 -0.5482275954
O   O18       1.0  0.85209  0.78772  0.67506  1.0000 -0.5482275954
O   O19       1.0  0.85209  0.71228  0.17506  1.0000 -0.5446996561
O   O20       1.0  0.14791  0.21228  0.32494  1.0000 -0.5482275954
O   O21       1.0  0.14343  0.13683  0.74688  1.0000 -0.5482275954
O   O22       1.0  0.85657  0.63683  0.75312  1.0000 -0.5482275954
O   O23       1.0  0.85657  0.86317  0.25312  1.0000 -0.5482275954
O   O24       1.0  0.14343  0.36317  0.24688  1.0000 -0.5482275954
O   O25       1.0  0.15914  0.58896  0.48455  1.0000 -0.4945428244
O   O26       1.0  0.84086  0.08896  0.01545  1.0000 -0.4945428244
O   O27       1.0  0.84086  0.41104  0.51545  1.0000 -0.4945428244
O   O28       1.0  0.15914  0.91104  0.98455  1.0000 -0.4945428244
O   O29       1.0  0.11414  0.43113  0.40368  1.0000 -0.5610537997
O   O30       1.0  0.88586  0.93113  0.09632  1.0000 -0.5610537997
O   O31       1.0  0.88586  0.56887  0.59632  1.0000 -0.5610537997
O   O32       1.0  0.11414  0.06887  0.90368  1.0000 -0.5610537997
O   O33       1.0  0.13047  0.40112  0.97414  1.0000 -0.4642324916
O   O34       1.0  0.86953  0.90112  0.52586  1.0000 -0.4642324916
O   O35       1.0  0.86953  0.59888  0.02586  1.0000 -0.4642324916
O   O36       1.0  0.13047  0.09888  0.47414  1.0000 -0.4642324916
