# DDEC6 charges by PACMAN v1.1 (https://github.com/mtap-research/PACMAN-charge/)
data_2015[ZnEu][nan]3[FSR]1
_chemical_formula_sum              "Eu4 Zn2 H52 C72 N12 O32"
_cell_length_a       12.0393
_cell_length_b       12.0393
_cell_length_c       20.3832
_cell_angle_alpha    77.2942
_cell_angle_beta     102.706
_cell_angle_gamma    90.3035

_symmetry_space_group_name_H-M    "P 1"
_symmetry_Int_Tables_number       1

loop_
  _symmetry_equiv_pos_as_xyz
  'x, y, z'

loop_
  _atom_site_type_symbol
  _atom_site_label
  _atom_site_symmetry_multiplicity
  _atom_site_fract_x
  _atom_site_fract_y
  _atom_site_fract_z
  _atom_site_occupancy
  _atom_site_charge
Eu  Eu1       1.0  0.44327  0.43219  0.41741  1.0000 2.068291182
Eu  Eu2       1.0  0.43219  0.44327  0.08259  1.0000 2.068291182
Eu  Eu3       1.0  0.55673  0.56781  0.58259  1.0000 2.068291182
Eu  Eu4       1.0  0.56781  0.55673  0.91741  1.0000 2.068291182
Zn  Zn1       1.0  0.94006  0.94006  0.25000  1.0000 0.486992339
Zn  Zn2       1.0  0.05994  0.05994  0.75000  1.0000 0.486992339
H   H1        1.0  0.27860  0.06080  0.39650  1.0000 0.1413478754
H   H2        1.0  0.06080  0.27860  0.10350  1.0000 0.1413478754
H   H3        1.0  0.72140  0.93920  0.60350  1.0000 0.1413478754
H   H4        1.0  0.93920  0.72140  0.89650  1.0000 0.1413478754
H   H5        1.0  0.91700  0.19420  0.28100  1.0000 0.1007306747
H   H6        1.0  0.19420  0.91700  0.21900  1.0000 0.1007306747
H   H7        1.0  0.08300  0.80580  0.71900  1.0000 0.1007306747
H   H8        1.0  0.80580  0.08300  0.78100  1.0000 0.1007306747
H   H9        1.0  0.04500  0.32060  0.32120  1.0000 0.1413478754
H   H10       1.0  0.32060  0.04500  0.17880  1.0000 0.1413478754
H   H11       1.0  0.95500  0.67940  0.67880  1.0000 0.1413478754
H   H12       1.0  0.67940  0.95500  0.82120  1.0000 0.1413478754
H   H13       1.0  0.27790  0.87170  0.44680  1.0000 0.1487043024
H   H14       1.0  0.87170  0.27790  0.05320  1.0000 0.1487043024
H   H15       1.0  0.72210  0.12830  0.55320  1.0000 0.1487043024
H   H16       1.0  0.12830  0.72210  0.94680  1.0000 0.1487043024
H   H17       1.0  0.17510  0.57990  0.39500  1.0000 0.1413478754
H   H18       1.0  0.57990  0.17510  0.10500  1.0000 0.1413478754
H   H19       1.0  0.82490  0.42010  0.60500  1.0000 0.1413478754
H   H20       1.0  0.42010  0.82490  0.89500  1.0000 0.1413478754
H   H21       1.0  0.03260  0.68220  0.30920  1.0000 0.1007306747
H   H22       1.0  0.68220  0.03260  0.19080  1.0000 0.1007306747
H   H23       1.0  0.96740  0.31780  0.69080  1.0000 0.1007306747
H   H24       1.0  0.31780  0.96740  0.80920  1.0000 0.1007306747
H   H25       1.0  0.83470  0.95710  0.37800  1.0000 0.1007306747
H   H26       1.0  0.95710  0.83470  0.12200  1.0000 0.1007306747
H   H27       1.0  0.16530  0.04290  0.62200  1.0000 0.1007306747
H   H28       1.0  0.04290  0.16530  0.87800  1.0000 0.1007306747
H   H29       1.0  0.72340  0.84780  0.44400  1.0000 0.1413478754
H   H30       1.0  0.84780  0.72340  0.05600  1.0000 0.1413478754
H   H31       1.0  0.27660  0.15220  0.55600  1.0000 0.1487043024
H   H32       1.0  0.15220  0.27660  0.94400  1.0000 0.1413478754
H   H33       1.0  0.65760  0.65540  0.30300  1.0000 0.1413478754
H   H34       1.0  0.65540  0.65760  0.19700  1.0000 0.1413478754
H   H35       1.0  0.34240  0.34460  0.69700  1.0000 0.1413478754
H   H36       1.0  0.34460  0.34240  0.80300  1.0000 0.1413478754
H   H37       1.0  0.48340  0.44440  0.28080  1.0000 0.2985819824
H   H38       1.0  0.44440  0.48340  0.21920  1.0000 0.2985819824
H   H39       1.0  0.51660  0.55560  0.71920  1.0000 0.2985819824
H   H40       1.0  0.55560  0.51660  0.78080  1.0000 0.2985819824
H   H41       1.0  0.59140  0.40820  0.32680  1.0000 0.3727023788
H   H42       1.0  0.40820  0.59140  0.17320  1.0000 0.3727023788
H   H43       1.0  0.40860  0.59180  0.67320  1.0000 0.3727023788
H   H44       1.0  0.59180  0.40860  0.82680  1.0000 0.3727023788
H   H45       1.0  0.27200  0.55320  0.30340  1.0000 0.3769650332
H   H46       1.0  0.55320  0.27200  0.19660  1.0000 0.3769650332
H   H47       1.0  0.72800  0.44680  0.69660  1.0000 0.3769650332
H   H48       1.0  0.44680  0.72800  0.80340  1.0000 0.3769650332
H   H49       1.0  0.34170  0.64110  0.32650  1.0000 0.3642768808
H   H50       1.0  0.64110  0.34170  0.17350  1.0000 0.3642768808
H   H51       1.0  0.65830  0.35890  0.67350  1.0000 0.3642768808
H   H52       1.0  0.35890  0.65830  0.82650  1.0000 0.3727023788
C   C1        1.0  0.17790  0.20350  0.36120  1.0000 0.0368499166
C   C2        1.0  0.20350  0.17790  0.13880  1.0000 0.0368499166
C   C3        1.0  0.82210  0.79650  0.63880  1.0000 0.0368499166
C   C4        1.0  0.79650  0.82210  0.86120  1.0000 0.0368499166
C   C5        1.0  0.20510  0.08930  0.37390  1.0000 -0.1890899516
C   C6        1.0  0.08930  0.20510  0.12610  1.0000 -0.1890899516
C   C7        1.0  0.79490  0.91070  0.62610  1.0000 -0.1890899516
C   C8        1.0  0.91070  0.79490  0.87390  1.0000 -0.1890899516
C   C9        1.0  0.12190  0.01690  0.35270  1.0000 0.1487043024
C   C10       1.0  0.01690  0.12190  0.14730  1.0000 0.1487043024
C   C11       1.0  0.87810  0.98310  0.64730  1.0000 0.1487043024
C   C12       1.0  0.98310  0.87810  0.85270  1.0000 0.1487043024
C   C13       1.0  0.99020  0.16740  0.30490  1.0000 0.0488754099
C   C14       1.0  0.16740  0.99020  0.19510  1.0000 0.0488754099
C   C15       1.0  0.00980  0.83260  0.69510  1.0000 0.0488754099
C   C16       1.0  0.83260  0.00980  0.80490  1.0000 0.0488754099
C   C17       1.0  0.06680  0.24420  0.32780  1.0000 -0.1790103536
C   C18       1.0  0.24420  0.06680  0.17220  1.0000 -0.1790103536
C   C19       1.0  0.93320  0.75580  0.67220  1.0000 -0.1790103536
C   C20       1.0  0.75580  0.93320  0.82780  1.0000 -0.1790103536
C   C21       1.0  0.14450  0.89130  0.36560  1.0000 0.1487043024
C   C22       1.0  0.89130  0.14450  0.13440  1.0000 0.1487043024
C   C23       1.0  0.85550  0.10870  0.63440  1.0000 0.1487043024
C   C24       1.0  0.10870  0.85550  0.86560  1.0000 0.1487043024
C   C25       1.0  0.23020  0.83240  0.41820  1.0000 -0.1790103536
C   C26       1.0  0.83240  0.23020  0.08180  1.0000 -0.1790103536
C   C27       1.0  0.76980  0.16760  0.58180  1.0000 -0.1790103536
C   C28       1.0  0.16760  0.76980  0.91820  1.0000 -0.1790103536
C   C29       1.0  0.24560  0.71760  0.42870  1.0000 0.0322900392
C   C30       1.0  0.71760  0.24560  0.07130  1.0000 0.0322900392
C   C31       1.0  0.75440  0.28240  0.57130  1.0000 0.0322900392
C   C32       1.0  0.28240  0.75440  0.92870  1.0000 0.0322900392
C   C33       1.0  0.16870  0.65890  0.38770  1.0000 -0.2005939536
C   C34       1.0  0.65890  0.16870  0.11230  1.0000 -0.2005939536
C   C35       1.0  0.83130  0.34110  0.61230  1.0000 -0.2005939536
C   C36       1.0  0.34110  0.83130  0.88770  1.0000 -0.2005939536
C   C37       1.0  0.08370  0.72050  0.33660  1.0000 0.0488754099
C   C38       1.0  0.72050  0.08370  0.16340  1.0000 0.0488754099
C   C39       1.0  0.91630  0.27950  0.66340  1.0000 0.0488754099
C   C40       1.0  0.27950  0.91630  0.83660  1.0000 0.0488754099
C   C41       1.0  0.79910  0.89530  0.36340  1.0000 0.0488754099
C   C42       1.0  0.89530  0.79910  0.13660  1.0000 0.0488754099
C   C43       1.0  0.20090  0.10470  0.63660  1.0000 0.0488754099
C   C44       1.0  0.10470  0.20090  0.86340  1.0000 0.0488754099
C   C45       1.0  0.73180  0.83100  0.40290  1.0000 -0.1686153017
C   C46       1.0  0.83100  0.73180  0.09710  1.0000 -0.1686153017
C   C47       1.0  0.26820  0.16900  0.59710  1.0000 -0.1686153017
C   C48       1.0  0.16900  0.26820  0.90290  1.0000 -0.1686153017
C   C49       1.0  0.67800  0.74180  0.37970  1.0000 0.0368499166
C   C50       1.0  0.74180  0.67800  0.12030  1.0000 0.0368499166
C   C51       1.0  0.32200  0.25820  0.62030  1.0000 0.0368499166
C   C52       1.0  0.25820  0.32200  0.87970  1.0000 0.0322900392
C   C53       1.0  0.69310  0.71650  0.31870  1.0000 -0.1890899516
C   C54       1.0  0.71650  0.69310  0.18130  1.0000 -0.1890899516
C   C55       1.0  0.30690  0.28350  0.68130  1.0000 -0.1890899516
C   C56       1.0  0.28350  0.30690  0.81870  1.0000 -0.1890899516
C   C57       1.0  0.76080  0.78340  0.28250  1.0000 0.1413478754
C   C58       1.0  0.78340  0.76080  0.21750  1.0000 0.1413478754
C   C59       1.0  0.23920  0.21660  0.71750  1.0000 0.1413478754
C   C60       1.0  0.21660  0.23920  0.78250  1.0000 0.1413478754
C   C61       1.0  0.60800  0.66340  0.42200  1.0000 0.628509099
C   C62       1.0  0.66340  0.60800  0.07800  1.0000 0.628509099
C   C63       1.0  0.39200  0.33660  0.57800  1.0000 0.628509099
C   C64       1.0  0.33660  0.39200  0.92200  1.0000 0.628509099
C   C65       1.0  0.34520  0.65500  0.48240  1.0000 0.6053618141
C   C66       1.0  0.65500  0.34520  0.01760  1.0000 0.6053618141
C   C67       1.0  0.65480  0.34500  0.51760  1.0000 0.6041139312
C   C68       1.0  0.34500  0.65480  0.98240  1.0000 0.6041139312
C   C69       1.0  0.26660  0.28500  0.38040  1.0000 0.5583704658
C   C70       1.0  0.28500  0.26660  0.11960  1.0000 0.5583704658
C   C71       1.0  0.73340  0.71500  0.61960  1.0000 0.5583704658
C   C72       1.0  0.71500  0.73340  0.88040  1.0000 0.5583704658
N   N1        1.0  0.01700  0.05620  0.31560  1.0000 -0.2695083819
N   N2        1.0  0.05620  0.01700  0.18440  1.0000 -0.2695083819
N   N3        1.0  0.98300  0.94380  0.68440  1.0000 -0.2695083819
N   N4        1.0  0.94380  0.98300  0.81560  1.0000 -0.2695083819
N   N5        1.0  0.07200  0.83420  0.32500  1.0000 -0.2481001034
N   N6        1.0  0.83420  0.07200  0.17500  1.0000 -0.2481001034
N   N7        1.0  0.92800  0.16580  0.67500  1.0000 -0.2481001034
N   N8        1.0  0.16580  0.92800  0.82500  1.0000 -0.2481001034
N   N9        1.0  0.81490  0.87170  0.30420  1.0000 -0.261982625
N   N10       1.0  0.87170  0.81490  0.19580  1.0000 -0.261982625
N   N11       1.0  0.18510  0.12830  0.69580  1.0000 -0.261982625
N   N12       1.0  0.12830  0.18510  0.80420  1.0000 -0.261982625
O   O1        1.0  0.51730  0.39750  0.32010  1.0000 -0.760670846
O   O2        1.0  0.39750  0.51730  0.17990  1.0000 -0.760670846
O   O3        1.0  0.48270  0.60250  0.67990  1.0000 -0.760670846
O   O4        1.0  0.60250  0.48270  0.82010  1.0000 -0.760670846
O   O5        1.0  0.34390  0.57170  0.31760  1.0000 -0.7795864545
O   O6        1.0  0.57170  0.34390  0.18240  1.0000 -0.7795864545
O   O7        1.0  0.65610  0.42830  0.68240  1.0000 -0.7795864545
O   O8        1.0  0.42830  0.65610  0.81760  1.0000 -0.7795864545
O   O9        1.0  0.23910  0.38110  0.38790  1.0000 -0.6584663741
O   O10       1.0  0.38110  0.23910  0.11210  1.0000 -0.6584663741
O   O11       1.0  0.76090  0.61890  0.61210  1.0000 -0.6584663741
O   O12       1.0  0.61890  0.76090  0.88790  1.0000 -0.6584663741
O   O13       1.0  0.36960  0.25380  0.38920  1.0000 -0.6021736391
O   O14       1.0  0.25380  0.36960  0.11080  1.0000 -0.6021736391
O   O15       1.0  0.63040  0.74620  0.61080  1.0000 -0.6021736391
O   O16       1.0  0.74620  0.63040  0.88920  1.0000 -0.6021736391
O   O17       1.0  0.38790  0.69810  0.53270  1.0000 -0.6021736391
O   O18       1.0  0.69810  0.38790  0.96730  1.0000 -0.6021736391
O   O19       1.0  0.61210  0.30190  0.46730  1.0000 -0.6021736391
O   O20       1.0  0.30190  0.61210  0.03270  1.0000 -0.6021736391
O   O21       1.0  0.38450  0.56410  0.47480  1.0000 -0.7315642737
O   O22       1.0  0.56410  0.38450  0.02520  1.0000 -0.7315642737
O   O23       1.0  0.61550  0.43590  0.52520  1.0000 -0.7315642737
O   O24       1.0  0.43590  0.61550  0.97480  1.0000 -0.7315642737
O   O25       1.0  0.56150  0.58470  0.39510  1.0000 -0.702108448
O   O26       1.0  0.58470  0.56150  0.10490  1.0000 -0.702108448
O   O27       1.0  0.43850  0.41530  0.60490  1.0000 -0.702108448
O   O28       1.0  0.41530  0.43850  0.89510  1.0000 -0.702108448
O   O29       1.0  0.60060  0.68160  0.47920  1.0000 -0.6460002117
O   O30       1.0  0.68160  0.60060  0.02080  1.0000 -0.6460002117
O   O31       1.0  0.39940  0.31840  0.52080  1.0000 -0.6460002117
O   O32       1.0  0.31840  0.39940  0.97920  1.0000 -0.6460002117
