# DDEC6 charges by PACMAN v1.1 (https://github.com/mtap-research/PACMAN-charge/)
data_2015[Cd][ths]3[FSR]1
_chemical_formula_sum              "Cd8 H120 C200 S4 N24 O32"
_cell_length_a       14.429
_cell_length_b       17.441
_cell_length_c       17.916
_cell_angle_alpha    90
_cell_angle_beta     90
_cell_angle_gamma    90

_symmetry_space_group_name_H-M    "P 1"
_symmetry_Int_Tables_number       1

loop_
  _symmetry_equiv_pos_as_xyz
  'x, y, z'

loop_
  _atom_site_type_symbol
  _atom_site_label
  _atom_site_symmetry_multiplicity
  _atom_site_fract_x
  _atom_site_fract_y
  _atom_site_fract_z
  _atom_site_occupancy
  _atom_site_charge
Cd  Cd1       1.0  0.49131  0.68253  0.82865  1.0000 0.8018424564
Cd  Cd2       1.0  0.99131  0.68253  0.17135  1.0000 0.8018424564
Cd  Cd3       1.0  0.50323  0.26687  0.66250  1.0000 0.8018424564
Cd  Cd4       1.0  0.00323  0.26687  0.33750  1.0000 0.8018424564
Cd  Cd5       1.0  0.50869  0.18253  0.17135  1.0000 0.8018424564
Cd  Cd6       1.0  0.00869  0.18253  0.82865  1.0000 0.8018424564
Cd  Cd7       1.0  0.49677  0.76687  0.33750  1.0000 0.8018424564
Cd  Cd8       1.0  0.99677  0.76687  0.66250  1.0000 0.8018424564
H   H1        1.0  0.56600  0.50090  0.60520  1.0000 0.1406777994
H   H2        1.0  0.06600  0.50090  0.39480  1.0000 0.1406777994
H   H3        1.0  0.79460  0.56050  0.71890  1.0000 0.1301338922
H   H4        1.0  0.29460  0.56050  0.28110  1.0000 0.1301338922
H   H5        1.0  0.42280  0.51240  0.59290  1.0000 0.1189749062
H   H6        1.0  0.92280  0.51240  0.40710  1.0000 0.1189749062
H   H7        1.0  0.26540  0.54120  0.57700  1.0000 0.1189749062
H   H8        1.0  0.76540  0.54120  0.42300  1.0000 0.1189749062
H   H9        1.0  0.19570  0.62880  0.65770  1.0000 0.145113846
H   H10       1.0  0.69570  0.62880  0.34230  1.0000 0.145113846
H   H11       1.0  0.28020  0.67780  0.75200  1.0000 0.1301338922
H   H12       1.0  0.78020  0.67780  0.24800  1.0000 0.1301338922
H   H13       1.0  0.85140  0.63080  0.80470  1.0000 0.1301338922
H   H14       1.0  0.35140  0.63080  0.19530  1.0000 0.1301338922
H   H15       1.0  0.90310  0.71390  0.89600  1.0000 0.1301338922
H   H16       1.0  0.40310  0.71390  0.10400  1.0000 0.1301338922
H   H17       1.0  0.79540  0.77920  0.96870  1.0000 0.1406777994
H   H18       1.0  0.29540  0.77920  0.03130  1.0000 0.1406777994
H   H19       1.0  0.64120  0.76570  0.94160  1.0000 0.1189749062
H   H20       1.0  0.14120  0.76570  0.05840  1.0000 0.1189749062
H   H21       1.0  0.64900  0.40610  0.55830  1.0000 0.1301338922
H   H22       1.0  0.14900  0.40610  0.44170  1.0000 0.1301338922
H   H23       1.0  0.73920  0.33630  0.47860  1.0000 0.1189749062
H   H24       1.0  0.23920  0.33630  0.52140  1.0000 0.1189749062
H   H25       1.0  0.96170  0.45410  0.54160  1.0000 0.1189749062
H   H26       1.0  0.46170  0.45410  0.45840  1.0000 0.1189749062
H   H27       1.0  0.87110  0.52900  0.62290  1.0000 0.1116293486
H   H28       1.0  0.37110  0.52900  0.37710  1.0000 0.1116293486
H   H29       1.0  0.79170  0.38250  0.79850  1.0000 0.1301338922
H   H30       1.0  0.29170  0.38250  0.20150  1.0000 0.1301338922
H   H31       1.0  0.55190  0.46140  0.87920  1.0000 0.1406777994
H   H32       1.0  0.05190  0.46140  0.12080  1.0000 0.1406777994
H   H33       1.0  0.85520  0.31550  0.70630  1.0000 0.1301338922
H   H34       1.0  0.35520  0.31550  0.29370  1.0000 0.1301338922
H   H35       1.0  0.91510  0.23750  0.61560  1.0000 0.1301338922
H   H36       1.0  0.41510  0.23750  0.38440  1.0000 0.1301338922
H   H37       1.0  0.81450  0.16450  0.54150  1.0000 0.1301338922
H   H38       1.0  0.31450  0.16450  0.45850  1.0000 0.1301338922
H   H39       1.0  0.65750  0.17600  0.56120  1.0000 0.1189749062
H   H40       1.0  0.15750  0.17600  0.43880  1.0000 0.1189749062
H   H41       1.0  0.40880  0.47380  0.85550  1.0000 0.1189749062
H   H42       1.0  0.90880  0.47380  0.14450  1.0000 0.1189749062
H   H43       1.0  0.25040  0.47860  0.83100  1.0000 0.1189749062
H   H44       1.0  0.75040  0.47860  0.16900  1.0000 0.1189749062
H   H45       1.0  0.18850  0.40140  0.74020  1.0000 0.1189749062
H   H46       1.0  0.68850  0.40140  0.25980  1.0000 0.1189749062
H   H47       1.0  0.28470  0.31960  0.67420  1.0000 0.1116293486
H   H48       1.0  0.78470  0.31960  0.32580  1.0000 0.1116293486
H   H49       1.0  0.85330  0.41680  0.90320  1.0000 0.1116293486
H   H50       1.0  0.35330  0.41680  0.09680  1.0000 0.1116293486
H   H51       1.0  0.92930  0.48720  0.99130  1.0000 0.1189749062
H   H52       1.0  0.42930  0.48720  0.00870  1.0000 0.1189749062
H   H53       1.0  0.70170  0.61200  0.02590  1.0000 0.1189749062
H   H54       1.0  0.20170  0.61200  0.97410  1.0000 0.1189749062
H   H55       1.0  0.62480  0.54020  0.93770  1.0000 0.1189749062
H   H56       1.0  0.12480  0.54020  0.06230  1.0000 0.1189749062
H   H57       1.0  0.42150  0.95270  0.92220  1.0000 0.1301338922
H   H58       1.0  0.92150  0.95270  0.07780  1.0000 0.1301338922
H   H59       1.0  0.42480  0.08760  0.88290  1.0000 0.1406777994
H   H60       1.0  0.92480  0.08760  0.11710  1.0000 0.1406777994
H   H61       1.0  0.43400  0.00090  0.39480  1.0000 0.1406777994
H   H62       1.0  0.93400  0.00090  0.60520  1.0000 0.1406777994
H   H63       1.0  0.20540  0.06050  0.28110  1.0000 0.1301338922
H   H64       1.0  0.70540  0.06050  0.71890  1.0000 0.1301338922
H   H65       1.0  0.57720  0.01240  0.40710  1.0000 0.1189749062
H   H66       1.0  0.07720  0.01240  0.59290  1.0000 0.1189749062
H   H67       1.0  0.73460  0.04120  0.42300  1.0000 0.1189749062
H   H68       1.0  0.23460  0.04120  0.57700  1.0000 0.1189749062
H   H69       1.0  0.80430  0.12880  0.34230  1.0000 0.145113846
H   H70       1.0  0.30430  0.12880  0.65770  1.0000 0.145113846
H   H71       1.0  0.71980  0.17780  0.24800  1.0000 0.1301338922
H   H72       1.0  0.21980  0.17780  0.75200  1.0000 0.1301338922
H   H73       1.0  0.14860  0.13080  0.19530  1.0000 0.1301338922
H   H74       1.0  0.64860  0.13080  0.80470  1.0000 0.1301338922
H   H75       1.0  0.09690  0.21390  0.10400  1.0000 0.1301338922
H   H76       1.0  0.59690  0.21390  0.89600  1.0000 0.1301338922
H   H77       1.0  0.20460  0.27920  0.03130  1.0000 0.1406777994
H   H78       1.0  0.70460  0.27920  0.96870  1.0000 0.1406777994
H   H79       1.0  0.35880  0.26570  0.05840  1.0000 0.1189749062
H   H80       1.0  0.85880  0.26570  0.94160  1.0000 0.1189749062
H   H81       1.0  0.35100  0.90610  0.44170  1.0000 0.1301338922
H   H82       1.0  0.85100  0.90610  0.55830  1.0000 0.1301338922
H   H83       1.0  0.26080  0.83630  0.52140  1.0000 0.1189749062
H   H84       1.0  0.76080  0.83630  0.47860  1.0000 0.1189749062
H   H85       1.0  0.03830  0.95410  0.45840  1.0000 0.1189749062
H   H86       1.0  0.53830  0.95410  0.54160  1.0000 0.1189749062
H   H87       1.0  0.12890  0.02900  0.37710  1.0000 0.1116293486
H   H88       1.0  0.62890  0.02900  0.62290  1.0000 0.1116293486
H   H89       1.0  0.20830  0.88250  0.20150  1.0000 0.1301338922
H   H90       1.0  0.70830  0.88250  0.79850  1.0000 0.1301338922
H   H91       1.0  0.44810  0.96140  0.12080  1.0000 0.1406777994
H   H92       1.0  0.94810  0.96140  0.87920  1.0000 0.1406777994
H   H93       1.0  0.14480  0.81550  0.29370  1.0000 0.1301338922
H   H94       1.0  0.64480  0.81550  0.70630  1.0000 0.1301338922
H   H95       1.0  0.08490  0.73750  0.38440  1.0000 0.1301338922
H   H96       1.0  0.58490  0.73750  0.61560  1.0000 0.1301338922
H   H97       1.0  0.18550  0.66450  0.45850  1.0000 0.1301338922
H   H98       1.0  0.68550  0.66450  0.54150  1.0000 0.1301338922
H   H99       1.0  0.34250  0.67600  0.43880  1.0000 0.1189749062
H   H100      1.0  0.84250  0.67600  0.56120  1.0000 0.1189749062
H   H101      1.0  0.59120  0.97380  0.14450  1.0000 0.1189749062
H   H102      1.0  0.09120  0.97380  0.85550  1.0000 0.1189749062
H   H103      1.0  0.74960  0.97860  0.16900  1.0000 0.1189749062
H   H104      1.0  0.24960  0.97860  0.83100  1.0000 0.1189749062
H   H105      1.0  0.81150  0.90140  0.25980  1.0000 0.1189749062
H   H106      1.0  0.31150  0.90140  0.74020  1.0000 0.1189749062
H   H107      1.0  0.71530  0.81960  0.32580  1.0000 0.1116293486
H   H108      1.0  0.21530  0.81960  0.67420  1.0000 0.1116293486
H   H109      1.0  0.14670  0.91680  0.09680  1.0000 0.1116293486
H   H110      1.0  0.64670  0.91680  0.90320  1.0000 0.1116293486
H   H111      1.0  0.07070  0.98720  0.00870  1.0000 0.1189749062
H   H112      1.0  0.57070  0.98720  0.99130  1.0000 0.1189749062
H   H113      1.0  0.29830  0.11200  0.97410  1.0000 0.1189749062
H   H114      1.0  0.79830  0.11200  0.02590  1.0000 0.1189749062
H   H115      1.0  0.37520  0.04020  0.06230  1.0000 0.1189749062
H   H116      1.0  0.87520  0.04020  0.93770  1.0000 0.1189749062
H   H117      1.0  0.57850  0.45270  0.07780  1.0000 0.1301338922
H   H118      1.0  0.07850  0.45270  0.92220  1.0000 0.1301338922
H   H119      1.0  0.57520  0.58760  0.11710  1.0000 0.1406777994
H   H120      1.0  0.07520  0.58760  0.88290  1.0000 0.1406777994
C   C1        1.0  0.54470  0.57070  0.69120  1.0000 0.160535547
C   C2        1.0  0.04470  0.57070  0.30880  1.0000 0.160535547
C   C3        1.0  0.59530  0.52720  0.64370  1.0000 -0.2022693365
C   C4        1.0  0.09530  0.52720  0.35630  1.0000 -0.2022693365
C   C5        1.0  0.68950  0.52160  0.65180  1.0000 0.1301338922
C   C6        1.0  0.18950  0.52160  0.34820  1.0000 0.1301338922
C   C7        1.0  0.73100  0.56270  0.71090  1.0000 -0.2307058073
C   C8        1.0  0.23100  0.56270  0.28910  1.0000 -0.2307058073
C   C9        1.0  0.67460  0.60600  0.75640  1.0000 0.1941357047
C   C10       1.0  0.17460  0.60600  0.24360  1.0000 0.1941357047
C   C11       1.0  0.44260  0.58290  0.68100  1.0000 0.1782500536
C   C12       1.0  0.94260  0.58290  0.31900  1.0000 0.1782500536
C   C13       1.0  0.39350  0.54720  0.62440  1.0000 -0.1708872675
C   C14       1.0  0.89350  0.54720  0.37560  1.0000 -0.1708872675
C   C15       1.0  0.29930  0.56410  0.61510  1.0000 -0.0429685267
C   C16       1.0  0.79930  0.56410  0.38490  1.0000 -0.0429685267
C   C17       1.0  0.25760  0.61530  0.66330  1.0000 -0.129669515
C   C18       1.0  0.75760  0.61530  0.33670  1.0000 -0.129669515
C   C19       1.0  0.30900  0.64490  0.71840  1.0000 0.0684586928
C   C20       1.0  0.80900  0.64490  0.28160  1.0000 0.0684586928
C   C21       1.0  0.71470  0.65490  0.81830  1.0000 0.160535547
C   C22       1.0  0.21470  0.65490  0.18170  1.0000 0.160535547
C   C23       1.0  0.80960  0.65980  0.83230  1.0000 -0.1589354
C   C24       1.0  0.30960  0.65980  0.16770  1.0000 -0.1589354
C   C25       1.0  0.84000  0.70790  0.88730  1.0000 -0.0228824245
C   C26       1.0  0.34000  0.70790  0.11270  1.0000 -0.0228824245
C   C27       1.0  0.77640  0.74750  0.92980  1.0000 -0.1387057251
C   C28       1.0  0.27640  0.74750  0.07020  1.0000 -0.1387057251
C   C29       1.0  0.68400  0.73880  0.91290  1.0000 0.0928485819
C   C30       1.0  0.18400  0.73880  0.08710  1.0000 0.0928485819
C   C31       1.0  0.74940  0.47650  0.59870  1.0000 0.0621803978
C   C32       1.0  0.24940  0.47650  0.40130  1.0000 0.0621803978
C   C33       1.0  0.71200  0.41680  0.55500  1.0000 -0.1387057251
C   C34       1.0  0.21200  0.41680  0.44500  1.0000 -0.1387057251
C   C35       1.0  0.76590  0.37430  0.50800  1.0000 -0.1029593817
C   C36       1.0  0.26590  0.37430  0.49200  1.0000 -0.1029593817
C   C37       1.0  0.86010  0.38790  0.50430  1.0000 -0.0293816049
C   C38       1.0  0.36010  0.38790  0.49570  1.0000 -0.0293816049
C   C39       1.0  0.89850  0.44480  0.54540  1.0000 -0.1110911167
C   C40       1.0  0.39850  0.44480  0.45460  1.0000 -0.1110911167
C   C41       1.0  0.84390  0.49050  0.59440  1.0000 -0.1708872675
C   C42       1.0  0.34390  0.49050  0.40560  1.0000 -0.1708872675
C   C43       1.0  0.92110  0.34060  0.45350  1.0000 0.5398978346
C   C44       1.0  0.42110  0.34060  0.54650  1.0000 0.5398978346
C   C45       1.0  0.67890  0.34200  0.74340  1.0000 0.1684081012
C   C46       1.0  0.17890  0.34200  0.25660  1.0000 0.1684081012
C   C47       1.0  0.72730  0.38430  0.79740  1.0000 -0.2073921321
C   C48       1.0  0.22730  0.38430  0.20260  1.0000 -0.2073921321
C   C49       1.0  0.68160  0.42780  0.84770  1.0000 0.1189749062
C   C50       1.0  0.18160  0.42780  0.15230  1.0000 0.1189749062
C   C51       1.0  0.58500  0.43200  0.84520  1.0000 -0.2307058073
C   C52       1.0  0.08500  0.43200  0.15480  1.0000 -0.2307058073
C   C53       1.0  0.54050  0.39010  0.78940  1.0000 0.2110349887
C   C54       1.0  0.04050  0.39010  0.21060  1.0000 0.2110349887
C   C55       1.0  0.72120  0.29150  0.68720  1.0000 0.160535547
C   C56       1.0  0.22120  0.29150  0.31280  1.0000 0.160535547
C   C57       1.0  0.81560  0.28670  0.67640  1.0000 -0.1589354
C   C58       1.0  0.31560  0.28670  0.32360  1.0000 -0.1589354
C   C59       1.0  0.85130  0.24030  0.62270  1.0000 -0.0228824245
C   C60       1.0  0.35130  0.24030  0.37730  1.0000 -0.0228824245
C   C61       1.0  0.79170  0.19700  0.57830  1.0000 -0.129669515
C   C62       1.0  0.29170  0.19700  0.42170  1.0000 -0.129669515
C   C63       1.0  0.69830  0.20400  0.59070  1.0000 0.0621803978
C   C64       1.0  0.19830  0.20400  0.40930  1.0000 0.0621803978
C   C65       1.0  0.43720  0.39390  0.77620  1.0000 0.1782500536
C   C66       1.0  0.93720  0.39390  0.22380  1.0000 0.1782500536
C   C67       1.0  0.38270  0.44330  0.81850  1.0000 -0.1708872675
C   C68       1.0  0.88270  0.44330  0.18150  1.0000 -0.1708872675
C   C69       1.0  0.28850  0.44560  0.80400  1.0000 -0.0293816049
C   C70       1.0  0.78850  0.44560  0.19600  1.0000 -0.0293816049
C   C71       1.0  0.25160  0.40000  0.75040  1.0000 -0.1222574853
C   C72       1.0  0.75160  0.40000  0.24960  1.0000 -0.1222574853
C   C73       1.0  0.30970  0.35110  0.71090  1.0000 0.0684586928
C   C74       1.0  0.80970  0.35110  0.28910  1.0000 0.0684586928
C   C75       1.0  0.73250  0.47320  0.90790  1.0000 0.0621803978
C   C76       1.0  0.23250  0.47320  0.09210  1.0000 0.0621803978
C   C77       1.0  0.82270  0.45700  0.92680  1.0000 -0.1496299899
C   C78       1.0  0.32270  0.45700  0.07320  1.0000 -0.1496299899
C   C79       1.0  0.86810  0.49900  0.97960  1.0000 -0.1029593817
C   C80       1.0  0.36810  0.49900  0.02040  1.0000 -0.1029593817
C   C81       1.0  0.82430  0.55900  0.01620  1.0000 -0.0228824245
C   C82       1.0  0.32430  0.55900  0.98380  1.0000 -0.0228824245
C   C83       1.0  0.73290  0.57330  0.00050  1.0000 -0.1029593817
C   C84       1.0  0.23290  0.57330  0.99950  1.0000 -0.1029593817
C   C85       1.0  0.68710  0.53050  0.94730  1.0000 -0.1387057251
C   C86       1.0  0.18710  0.53050  0.05270  1.0000 -0.1387057251
C   C87       1.0  0.87790  0.60790  0.07220  1.0000 0.5398978346
C   C88       1.0  0.37790  0.60790  0.92780  1.0000 0.5398978346
C   C89       1.0  0.46780  0.92110  0.81800  1.0000 -0.1222574853
C   C90       1.0  0.96780  0.92110  0.18200  1.0000 -0.1222574853
C   C91       1.0  0.43940  0.96920  0.87500  1.0000 -0.129669515
C   C92       1.0  0.93940  0.96920  0.12500  1.0000 -0.129669515
C   C93       1.0  0.44130  0.04700  0.85200  1.0000 -0.1387057251
C   C94       1.0  0.94130  0.04700  0.14800  1.0000 -0.1387057251
C   C95       1.0  0.47030  0.05640  0.77820  1.0000 -0.1029593817
C   C96       1.0  0.97030  0.05640  0.22180  1.0000 -0.1029593817
C   C97       1.0  0.47930  0.83630  0.81770  1.0000 0.528380973
C   C98       1.0  0.97930  0.83630  0.18230  1.0000 0.528380973
C   C99       1.0  0.47870  0.13000  0.73430  1.0000 0.528380973
C   C100      1.0  0.97870  0.13000  0.26570  1.0000 0.528380973
C   C101      1.0  0.45530  0.07070  0.30880  1.0000 0.160535547
C   C102      1.0  0.95530  0.07070  0.69120  1.0000 0.160535547
C   C103      1.0  0.40470  0.02720  0.35630  1.0000 -0.2022693365
C   C104      1.0  0.90470  0.02720  0.64370  1.0000 -0.2022693365
C   C105      1.0  0.31050  0.02160  0.34820  1.0000 0.1301338922
C   C106      1.0  0.81050  0.02160  0.65180  1.0000 0.1301338922
C   C107      1.0  0.26900  0.06270  0.28910  1.0000 -0.2307058073
C   C108      1.0  0.76900  0.06270  0.71090  1.0000 -0.2307058073
C   C109      1.0  0.32540  0.10600  0.24360  1.0000 0.1941357047
C   C110      1.0  0.82540  0.10600  0.75640  1.0000 0.1941357047
C   C111      1.0  0.55740  0.08290  0.31900  1.0000 0.1782500536
C   C112      1.0  0.05740  0.08290  0.68100  1.0000 0.1782500536
C   C113      1.0  0.60650  0.04720  0.37560  1.0000 -0.1708872675
C   C114      1.0  0.10650  0.04720  0.62440  1.0000 -0.1708872675
C   C115      1.0  0.70070  0.06410  0.38490  1.0000 -0.0429685267
C   C116      1.0  0.20070  0.06410  0.61510  1.0000 -0.0429685267
C   C117      1.0  0.74240  0.11530  0.33670  1.0000 -0.129669515
C   C118      1.0  0.24240  0.11530  0.66330  1.0000 -0.129669515
C   C119      1.0  0.69100  0.14490  0.28160  1.0000 0.0684586928
C   C120      1.0  0.19100  0.14490  0.71840  1.0000 0.0684586928
C   C121      1.0  0.28530  0.15490  0.18170  1.0000 0.160535547
C   C122      1.0  0.78530  0.15490  0.81830  1.0000 0.160535547
C   C123      1.0  0.19040  0.15980  0.16770  1.0000 -0.1589354
C   C124      1.0  0.69040  0.15980  0.83230  1.0000 -0.1589354
C   C125      1.0  0.16000  0.20790  0.11270  1.0000 -0.0228824245
C   C126      1.0  0.66000  0.20790  0.88730  1.0000 -0.0228824245
C   C127      1.0  0.22360  0.24750  0.07020  1.0000 -0.1387057251
C   C128      1.0  0.72360  0.24750  0.92980  1.0000 -0.1387057251
C   C129      1.0  0.31600  0.23880  0.08710  1.0000 0.0928485819
C   C130      1.0  0.81600  0.23880  0.91290  1.0000 0.0928485819
C   C131      1.0  0.25060  0.97650  0.40130  1.0000 0.0621803978
C   C132      1.0  0.75060  0.97650  0.59870  1.0000 0.0621803978
C   C133      1.0  0.28800  0.91680  0.44500  1.0000 -0.1387057251
C   C134      1.0  0.78800  0.91680  0.55500  1.0000 -0.1387057251
C   C135      1.0  0.23410  0.87430  0.49200  1.0000 -0.1029593817
C   C136      1.0  0.73410  0.87430  0.50800  1.0000 -0.1029593817
C   C137      1.0  0.13990  0.88790  0.49570  1.0000 -0.0293816049
C   C138      1.0  0.63990  0.88790  0.50430  1.0000 -0.0293816049
C   C139      1.0  0.10150  0.94480  0.45460  1.0000 -0.1110911167
C   C140      1.0  0.60150  0.94480  0.54540  1.0000 -0.1110911167
C   C141      1.0  0.15610  0.99050  0.40560  1.0000 -0.1708872675
C   C142      1.0  0.65610  0.99050  0.59440  1.0000 -0.1708872675
C   C143      1.0  0.07890  0.84060  0.54650  1.0000 0.5398978346
C   C144      1.0  0.57890  0.84060  0.45350  1.0000 0.5398978346
C   C145      1.0  0.32110  0.84200  0.25660  1.0000 0.1684081012
C   C146      1.0  0.82110  0.84200  0.74340  1.0000 0.1684081012
C   C147      1.0  0.27270  0.88430  0.20260  1.0000 -0.2073921321
C   C148      1.0  0.77270  0.88430  0.79740  1.0000 -0.2073921321
C   C149      1.0  0.31840  0.92780  0.15230  1.0000 0.1189749062
C   C150      1.0  0.81840  0.92780  0.84770  1.0000 0.1189749062
C   C151      1.0  0.41500  0.93200  0.15480  1.0000 -0.2307058073
C   C152      1.0  0.91500  0.93200  0.84520  1.0000 -0.2307058073
C   C153      1.0  0.45950  0.89010  0.21060  1.0000 0.2110349887
C   C154      1.0  0.95950  0.89010  0.78940  1.0000 0.2110349887
C   C155      1.0  0.27880  0.79150  0.31280  1.0000 0.160535547
C   C156      1.0  0.77880  0.79150  0.68720  1.0000 0.160535547
C   C157      1.0  0.18440  0.78670  0.32360  1.0000 -0.1589354
C   C158      1.0  0.68440  0.78670  0.67640  1.0000 -0.1589354
C   C159      1.0  0.14870  0.74030  0.37730  1.0000 -0.0228824245
C   C160      1.0  0.64870  0.74030  0.62270  1.0000 -0.0228824245
C   C161      1.0  0.20830  0.69700  0.42170  1.0000 -0.129669515
C   C162      1.0  0.70830  0.69700  0.57830  1.0000 -0.129669515
C   C163      1.0  0.30170  0.70400  0.40930  1.0000 0.0621803978
C   C164      1.0  0.80170  0.70400  0.59070  1.0000 0.0621803978
C   C165      1.0  0.56280  0.89390  0.22380  1.0000 0.1782500536
C   C166      1.0  0.06280  0.89390  0.77620  1.0000 0.1782500536
C   C167      1.0  0.61730  0.94330  0.18150  1.0000 -0.1708872675
C   C168      1.0  0.11730  0.94330  0.81850  1.0000 -0.1708872675
C   C169      1.0  0.71150  0.94560  0.19600  1.0000 -0.0293816049
C   C170      1.0  0.21150  0.94560  0.80400  1.0000 -0.0293816049
C   C171      1.0  0.74840  0.90000  0.24960  1.0000 -0.1222574853
C   C172      1.0  0.24840  0.90000  0.75040  1.0000 -0.1222574853
C   C173      1.0  0.69030  0.85110  0.28910  1.0000 0.0684586928
C   C174      1.0  0.19030  0.85110  0.71090  1.0000 0.0684586928
C   C175      1.0  0.26750  0.97320  0.09210  1.0000 0.0621803978
C   C176      1.0  0.76750  0.97320  0.90790  1.0000 0.0621803978
C   C177      1.0  0.17730  0.95700  0.07320  1.0000 -0.1496299899
C   C178      1.0  0.67730  0.95700  0.92680  1.0000 -0.1496299899
C   C179      1.0  0.13190  0.99900  0.02040  1.0000 -0.1029593817
C   C180      1.0  0.63190  0.99900  0.97960  1.0000 -0.1029593817
C   C181      1.0  0.17570  0.05900  0.98380  1.0000 -0.0228824245
C   C182      1.0  0.67570  0.05900  0.01620  1.0000 -0.0228824245
C   C183      1.0  0.26710  0.07330  0.99950  1.0000 -0.1029593817
C   C184      1.0  0.76710  0.07330  0.00050  1.0000 -0.1029593817
C   C185      1.0  0.31290  0.03050  0.05270  1.0000 -0.1387057251
C   C186      1.0  0.81290  0.03050  0.94730  1.0000 -0.1387057251
C   C187      1.0  0.12210  0.10790  0.92780  1.0000 0.5398978346
C   C188      1.0  0.62210  0.10790  0.07220  1.0000 0.5398978346
C   C189      1.0  0.53220  0.42110  0.18200  1.0000 -0.1222574853
C   C190      1.0  0.03220  0.42110  0.81800  1.0000 -0.1222574853
C   C191      1.0  0.56060  0.46920  0.12500  1.0000 -0.129669515
C   C192      1.0  0.06060  0.46920  0.87500  1.0000 -0.129669515
C   C193      1.0  0.55870  0.54700  0.14800  1.0000 -0.1387057251
C   C194      1.0  0.05870  0.54700  0.85200  1.0000 -0.1387057251
C   C195      1.0  0.52970  0.55640  0.22180  1.0000 -0.1029593817
C   C196      1.0  0.02970  0.55640  0.77820  1.0000 -0.1029593817
C   C197      1.0  0.52070  0.33630  0.18230  1.0000 0.528380973
C   C198      1.0  0.02070  0.33630  0.81770  1.0000 0.528380973
C   C199      1.0  0.52130  0.63000  0.26570  1.0000 0.528380973
C   C200      1.0  0.02130  0.63000  0.73430  1.0000 0.528380973
S   S1        1.0  0.49512  0.97160  0.73962  1.0000 0.1406777994
S   S2        1.0  0.99512  0.97160  0.26038  1.0000 0.1406777994
S   S3        1.0  0.50488  0.47160  0.26038  1.0000 0.1406777994
S   S4        1.0  0.00488  0.47160  0.73962  1.0000 0.1406777994
N   N1        1.0  0.58530  0.61100  0.74820  1.0000 -0.3014553583
N   N2        1.0  0.08530  0.61100  0.25180  1.0000 -0.3014553583
N   N3        1.0  0.40060  0.62980  0.72840  1.0000 -0.2606768704
N   N4        1.0  0.90060  0.62980  0.27160  1.0000 -0.2606768704
N   N5        1.0  0.65210  0.69510  0.85920  1.0000 -0.2713829226
N   N6        1.0  0.15210  0.69510  0.14080  1.0000 -0.2713829226
N   N7        1.0  0.58400  0.34670  0.74160  1.0000 -0.3014553583
N   N8        1.0  0.08400  0.34670  0.25840  1.0000 -0.3014553583
N   N9        1.0  0.66310  0.25060  0.64470  1.0000 -0.2606768704
N   N10       1.0  0.16310  0.25060  0.35530  1.0000 -0.2606768704
N   N11       1.0  0.40290  0.34830  0.72480  1.0000 -0.2464730053
N   N12       1.0  0.90290  0.34830  0.27520  1.0000 -0.2464730053
N   N13       1.0  0.41470  0.11100  0.25180  1.0000 -0.3014553583
N   N14       1.0  0.91470  0.11100  0.74820  1.0000 -0.3014553583
N   N15       1.0  0.59940  0.12980  0.27160  1.0000 -0.2606768704
N   N16       1.0  0.09940  0.12980  0.72840  1.0000 -0.2606768704
N   N17       1.0  0.34790  0.19510  0.14080  1.0000 -0.2713829226
N   N18       1.0  0.84790  0.19510  0.85920  1.0000 -0.2713829226
N   N19       1.0  0.41600  0.84670  0.25840  1.0000 -0.3014553583
N   N20       1.0  0.91600  0.84670  0.74160  1.0000 -0.3014553583
N   N21       1.0  0.33690  0.75060  0.35530  1.0000 -0.2606768704
N   N22       1.0  0.83690  0.75060  0.64470  1.0000 -0.2606768704
N   N23       1.0  0.59710  0.84830  0.27520  1.0000 -0.2464730053
N   N24       1.0  0.09710  0.84830  0.72480  1.0000 -0.2464730053
O   O1        1.0  0.99800  0.36590  0.43450  1.0000 -0.5486858391
O   O2        1.0  0.49800  0.36590  0.56550  1.0000 -0.5486858391
O   O3        1.0  0.89060  0.27480  0.43020  1.0000 -0.5656556136
O   O4        1.0  0.39060  0.27480  0.56980  1.0000 -0.5656556136
O   O5        1.0  0.83580  0.66170  0.10550  1.0000 -0.5486858391
O   O6        1.0  0.33580  0.66170  0.89450  1.0000 -0.5486858391
O   O7        1.0  0.96270  0.59410  0.08110  1.0000 -0.5592755682
O   O8        1.0  0.46270  0.59410  0.91890  1.0000 -0.5592755682
O   O9        1.0  0.47410  0.80370  0.88250  1.0000 -0.5486858391
O   O10       1.0  0.97410  0.80370  0.11750  1.0000 -0.5486858391
O   O11       1.0  0.48500  0.80330  0.75990  1.0000 -0.5110851771
O   O12       1.0  0.98500  0.80330  0.24010  1.0000 -0.5110851771
O   O13       1.0  0.45690  0.19090  0.76820  1.0000 -0.5486858391
O   O14       1.0  0.95690  0.19090  0.23180  1.0000 -0.5447503573
O   O15       1.0  0.50360  0.12570  0.67020  1.0000 -0.527565623
O   O16       1.0  0.00360  0.12570  0.32980  1.0000 -0.527565623
O   O17       1.0  0.00200  0.86590  0.56550  1.0000 -0.5486858391
O   O18       1.0  0.50200  0.86590  0.43450  1.0000 -0.5486858391
O   O19       1.0  0.10940  0.77480  0.56980  1.0000 -0.5656556136
O   O20       1.0  0.60940  0.77480  0.43020  1.0000 -0.5592755682
O   O21       1.0  0.16420  0.16170  0.89450  1.0000 -0.5486858391
O   O22       1.0  0.66420  0.16170  0.10550  1.0000 -0.5486858391
O   O23       1.0  0.03730  0.09410  0.91890  1.0000 -0.5592755682
O   O24       1.0  0.53730  0.09410  0.08110  1.0000 -0.5592755682
O   O25       1.0  0.52590  0.30370  0.11750  1.0000 -0.5486858391
O   O26       1.0  0.02590  0.30370  0.88250  1.0000 -0.5486858391
O   O27       1.0  0.51500  0.30330  0.24010  1.0000 -0.5110851771
O   O28       1.0  0.01500  0.30330  0.75990  1.0000 -0.5110851771
O   O29       1.0  0.54310  0.69090  0.23180  1.0000 -0.5486858391
O   O30       1.0  0.04310  0.69090  0.76820  1.0000 -0.5447503573
O   O31       1.0  0.49640  0.62570  0.32980  1.0000 -0.527565623
O   O32       1.0  0.99640  0.62570  0.67020  1.0000 -0.527565623
