# DDEC6 charges by PACMAN v1.1 (https://github.com/mtap-research/PACMAN-charge/)
data_2015[Mn][nan]3[FSR]9
_chemical_formula_sum              "Mn6 H6 C24 O18"
_cell_length_a       15.3591
_cell_length_b       15.3591
_cell_length_c       15.3591
_cell_angle_alpha    117.696
_cell_angle_beta     117.696
_cell_angle_gamma    117.696

_symmetry_space_group_name_H-M    "P 1"
_symmetry_Int_Tables_number       1

loop_
  _symmetry_equiv_pos_as_xyz
  'x, y, z'

loop_
  _atom_site_type_symbol
  _atom_site_label
  _atom_site_symmetry_multiplicity
  _atom_site_fract_x
  _atom_site_fract_y
  _atom_site_fract_z
  _atom_site_occupancy
  _atom_site_charge
Mn  Mn1       1.0  0.70570  0.97290  0.38740  1.0000 0.9991478147
Mn  Mn2       1.0  0.97290  0.38740  0.70570  1.0000 0.9991478147
Mn  Mn3       1.0  0.38740  0.70570  0.97290  1.0000 0.9991478147
Mn  Mn4       1.0  0.29430  0.02710  0.61260  1.0000 0.9991478147
Mn  Mn5       1.0  0.02710  0.61260  0.29430  1.0000 0.9991478147
Mn  Mn6       1.0  0.61260  0.29430  0.02710  1.0000 0.9991478147
H   H1        1.0  0.86217  0.30981  0.83974  1.0000 0.1329093449
H   H2        1.0  0.30981  0.83974  0.86217  1.0000 0.1329093449
H   H3        1.0  0.83974  0.86217  0.30981  1.0000 0.1329093449
H   H4        1.0  0.13783  0.69019  0.16026  1.0000 0.1329093449
H   H5        1.0  0.69019  0.16026  0.13783  1.0000 0.1329093449
H   H6        1.0  0.16026  0.13783  0.69019  1.0000 0.1329093449
C   C1        1.0  0.33620  0.77460  0.16620  1.0000 0.6032918117
C   C2        1.0  0.77460  0.16620  0.33620  1.0000 0.6032918117
C   C3        1.0  0.16620  0.33620  0.77460  1.0000 0.6032918117
C   C4        1.0  0.66380  0.22540  0.83380  1.0000 0.6032918117
C   C5        1.0  0.22540  0.83380  0.66380  1.0000 0.6032918117
C   C6        1.0  0.83380  0.66380  0.22540  1.0000 0.6032918117
C   C7        1.0  0.42880  0.89690  0.34430  1.0000 -0.1485108463
C   C8        1.0  0.89690  0.34430  0.42880  1.0000 -0.1485108463
C   C9        1.0  0.34430  0.42880  0.89690  1.0000 -0.1485108463
C   C10       1.0  0.57120  0.10310  0.65570  1.0000 -0.1485108463
C   C11       1.0  0.10310  0.65570  0.57120  1.0000 -0.1485108463
C   C12       1.0  0.65570  0.57120  0.10310  1.0000 -0.1485108463
C   C13       1.0  0.64120  0.07490  0.54490  1.0000 0.3143877806
C   C14       1.0  0.07490  0.54490  0.64120  1.0000 0.3143877806
C   C15       1.0  0.54490  0.64120  0.07490  1.0000 0.3143877806
C   C16       1.0  0.35880  0.92510  0.45510  1.0000 0.3143877806
C   C17       1.0  0.92510  0.45510  0.35880  1.0000 0.3143877806
C   C18       1.0  0.45510  0.35880  0.92510  1.0000 0.3143877806
C   C19       1.0  0.70170  0.17330  0.69500  1.0000 -0.1881561655
C   C20       1.0  0.17330  0.69500  0.70170  1.0000 -0.1881561655
C   C21       1.0  0.69500  0.70170  0.17330  1.0000 -0.1881561655
C   C22       1.0  0.29830  0.82670  0.30500  1.0000 -0.1881561655
C   C23       1.0  0.82670  0.30500  0.29830  1.0000 -0.1881561655
C   C24       1.0  0.30500  0.29830  0.82670  1.0000 -0.1881561655
O   O1        1.0  0.14980  0.61460  0.99360  1.0000 -0.5463773984
O   O2        1.0  0.61460  0.99360  0.14980  1.0000 -0.5463773984
O   O3        1.0  0.99360  0.14980  0.61460  1.0000 -0.5463773984
O   O4        1.0  0.85020  0.38540  0.00640  1.0000 -0.5463773984
O   O5        1.0  0.38540  0.00640  0.85020  1.0000 -0.5463773984
O   O6        1.0  0.00640  0.85020  0.38540  1.0000 -0.5463773984
O   O7        1.0  0.43110  0.80550  0.16640  1.0000 -0.5980374791
O   O8        1.0  0.80550  0.16640  0.43110  1.0000 -0.5980374791
O   O9        1.0  0.16640  0.43110  0.80550  1.0000 -0.5980374791
O   O10       1.0  0.56890  0.19450  0.83360  1.0000 -0.5980374791
O   O11       1.0  0.19450  0.83360  0.56890  1.0000 -0.5980374791
O   O12       1.0  0.83360  0.56890  0.19450  1.0000 -0.5980374791
O   O13       1.0  0.74510  0.11630  0.55560  1.0000 -0.5686548628
O   O14       1.0  0.11630  0.55560  0.74510  1.0000 -0.5686548628
O   O15       1.0  0.55560  0.74510  0.11630  1.0000 -0.5686548628
O   O16       1.0  0.25490  0.88370  0.44440  1.0000 -0.5686548628
O   O17       1.0  0.88370  0.44440  0.25490  1.0000 -0.5686548628
O   O18       1.0  0.44440  0.25490  0.88370  1.0000 -0.5686548628
