# DDEC6 charges by PACMAN v1.1 (https://github.com/mtap-research/PACMAN-charge/)
data_2015[YAg][nan]3[FSR]1
_chemical_formula_sum              "Y4 Ag4 H32 C56 N8 O32"
_cell_length_a       12.0055
_cell_length_b       12.0055
_cell_length_c       16.685
_cell_angle_alpha    83.7249
_cell_angle_beta     96.2751
_cell_angle_gamma    133.667

_symmetry_space_group_name_H-M    "P 1"
_symmetry_Int_Tables_number       1

loop_
  _symmetry_equiv_pos_as_xyz
  'x, y, z'

loop_
  _atom_site_type_symbol
  _atom_site_label
  _atom_site_symmetry_multiplicity
  _atom_site_fract_x
  _atom_site_fract_y
  _atom_site_fract_z
  _atom_site_occupancy
  _atom_site_charge
Y   Y1        1.0  0.30306  0.29406  0.93404  1.0000 1.7563427759
Y   Y2        1.0  0.29406  0.30306  0.56596  1.0000 1.7563427759
Y   Y3        1.0  0.69694  0.70594  0.06596  1.0000 1.7563427759
Y   Y4        1.0  0.70594  0.69694  0.43404  1.0000 1.7563427759
Ag  Ag1       1.0  0.71713  0.03499  0.91882  1.0000 0.324626304
Ag  Ag2       1.0  0.03499  0.71713  0.58118  1.0000 0.324626304
Ag  Ag3       1.0  0.28287  0.96501  0.08118  1.0000 0.324626304
Ag  Ag4       1.0  0.96501  0.28287  0.41882  1.0000 0.324626304
H   H1        1.0  0.03740  0.13340  0.16930  1.0000 0.1494410501
H   H2        1.0  0.13340  0.03740  0.33070  1.0000 0.1494410501
H   H3        1.0  0.96260  0.86660  0.83070  1.0000 0.1494410501
H   H4        1.0  0.86660  0.96260  0.66930  1.0000 0.1494410501
H   H5        1.0  0.38590  0.57830  0.21950  1.0000 0.1494410501
H   H6        1.0  0.57830  0.38590  0.28050  1.0000 0.1494410501
H   H7        1.0  0.61410  0.42170  0.78050  1.0000 0.1494410501
H   H8        1.0  0.42170  0.61410  0.71950  1.0000 0.1494410501
H   H9        1.0  0.91010  0.10810  0.27320  1.0000 0.119784014
H   H10       1.0  0.10810  0.91010  0.22680  1.0000 0.119784014
H   H11       1.0  0.08990  0.89190  0.72680  1.0000 0.119784014
H   H12       1.0  0.89190  0.08990  0.77320  1.0000 0.119784014
H   H13       1.0  0.24320  0.54040  0.31770  1.0000 0.1029538137
H   H14       1.0  0.54040  0.24320  0.18230  1.0000 0.1029538137
H   H15       1.0  0.75680  0.45960  0.68230  1.0000 0.1029538137
H   H16       1.0  0.45960  0.75680  0.81770  1.0000 0.1029538137
H   H17       1.0  0.41580  0.83100  0.04140  1.0000 0.1112449092
H   H18       1.0  0.83100  0.41580  0.45860  1.0000 0.1112449092
H   H19       1.0  0.58420  0.16900  0.95860  1.0000 0.1112449092
H   H20       1.0  0.16900  0.58420  0.54140  1.0000 0.1112449092
H   H21       1.0  0.13050  0.49810  0.88340  1.0000 0.1435739992
H   H22       1.0  0.49810  0.13050  0.61660  1.0000 0.1435739992
H   H23       1.0  0.86950  0.50190  0.11660  1.0000 0.1435739992
H   H24       1.0  0.50190  0.86950  0.38340  1.0000 0.1435739992
H   H25       1.0  0.05740  0.75080  0.94700  1.0000 0.119784014
H   H26       1.0  0.75080  0.05740  0.55300  1.0000 0.119784014
H   H27       1.0  0.94260  0.24920  0.05300  1.0000 0.119784014
H   H28       1.0  0.24920  0.94260  0.44700  1.0000 0.119784014
H   H29       1.0  0.98900  0.56560  0.86780  1.0000 0.1254219932
H   H30       1.0  0.56560  0.98900  0.63220  1.0000 0.1254219932
H   H31       1.0  0.01100  0.43440  0.13220  1.0000 0.1254219932
H   H32       1.0  0.43440  0.01100  0.36780  1.0000 0.1254219932
C   C1        1.0  0.23060  0.35900  0.18450  1.0000 0.013441928
C   C2        1.0  0.35900  0.23060  0.31550  1.0000 0.013441928
C   C3        1.0  0.76940  0.64100  0.81550  1.0000 0.013441928
C   C4        1.0  0.64100  0.76940  0.68450  1.0000 0.013441928
C   C5        1.0  0.08330  0.21710  0.20010  1.0000 -0.1624638366
C   C6        1.0  0.21710  0.08330  0.29990  1.0000 -0.1624638366
C   C7        1.0  0.91670  0.78290  0.79990  1.0000 -0.1624638366
C   C8        1.0  0.78290  0.91670  0.70010  1.0000 -0.1624638366
C   C9        1.0  0.96650  0.03530  0.98930  1.0000 0.4703390484
C   C10       1.0  0.03530  0.96650  0.51070  1.0000 0.4703390484
C   C11       1.0  0.03350  0.96470  0.01070  1.0000 0.4703390484
C   C12       1.0  0.96470  0.03350  0.48930  1.0000 0.4703390484
C   C13       1.0  0.28940  0.48100  0.22940  1.0000 -0.1480280834
C   C14       1.0  0.48100  0.28940  0.27060  1.0000 -0.1480280834
C   C15       1.0  0.71060  0.51900  0.77060  1.0000 -0.1480280834
C   C16       1.0  0.51900  0.71060  0.72940  1.0000 -0.1480280834
C   C17       1.0  0.22210  0.29170  0.74520  1.0000 0.4703390484
C   C18       1.0  0.29170  0.22210  0.75480  1.0000 0.4703390484
C   C19       1.0  0.77790  0.70830  0.25480  1.0000 0.4703390484
C   C20       1.0  0.70830  0.77790  0.24520  1.0000 0.4703390484
C   C21       1.0  0.00740  0.20360  0.26210  1.0000 0.0632453037
C   C22       1.0  0.20360  0.00740  0.23790  1.0000 0.0632453037
C   C23       1.0  0.99260  0.79640  0.73790  1.0000 0.0632453037
C   C24       1.0  0.79640  0.99260  0.76210  1.0000 0.0632453037
C   C25       1.0  0.32700  0.37920  0.12110  1.0000 0.6015675736
C   C26       1.0  0.37920  0.32700  0.37890  1.0000 0.6015675736
C   C27       1.0  0.67300  0.62080  0.87890  1.0000 0.6015675736
C   C28       1.0  0.62080  0.67300  0.62110  1.0000 0.6015675736
C   C29       1.0  0.20320  0.45660  0.28880  1.0000 0.0729771496
C   C30       1.0  0.45660  0.20320  0.21120  1.0000 0.0729771496
C   C31       1.0  0.79680  0.54340  0.71120  1.0000 0.0729771496
C   C32       1.0  0.54340  0.79680  0.78880  1.0000 0.0729771496
C   C33       1.0  0.38940  0.62400  0.97600  1.0000 0.5921782327
C   C34       1.0  0.62400  0.38940  0.52400  1.0000 0.5921782327
C   C35       1.0  0.61060  0.37600  0.02400  1.0000 0.5921782327
C   C36       1.0  0.37600  0.61060  0.47600  1.0000 0.5921782327
C   C37       1.0  0.29170  0.65930  0.96330  1.0000 -0.0861925448
C   C38       1.0  0.65930  0.29170  0.53670  1.0000 -0.0861925448
C   C39       1.0  0.70830  0.34070  0.03670  1.0000 -0.0861925448
C   C40       1.0  0.34070  0.70830  0.46330  1.0000 -0.0861925448
C   C41       1.0  0.32830  0.77530  0.00680  1.0000 0.0225428848
C   C42       1.0  0.77530  0.32830  0.49320  1.0000 0.0225428848
C   C43       1.0  0.67170  0.22470  0.99320  1.0000 0.0225428848
C   C44       1.0  0.22470  0.67170  0.50680  1.0000 0.0225428848
C   C45       1.0  0.16010  0.57790  0.91210  1.0000 -0.0555151461
C   C46       1.0  0.57790  0.16010  0.58790  1.0000 -0.0555151461
C   C47       1.0  0.83990  0.42210  0.08790  1.0000 -0.0555151461
C   C48       1.0  0.42210  0.83990  0.41210  1.0000 -0.0555151461
C   C49       1.0  0.11840  0.72860  0.95060  1.0000 0.0729771496
C   C50       1.0  0.72860  0.11840  0.54940  1.0000 0.0729771496
C   C51       1.0  0.88160  0.27140  0.04940  1.0000 0.0729771496
C   C52       1.0  0.27140  0.88160  0.45060  1.0000 0.0729771496
C   C53       1.0  0.07430  0.61530  0.90380  1.0000 -0.1442014205
C   C54       1.0  0.61530  0.07430  0.59620  1.0000 -0.1442014205
C   C55       1.0  0.92570  0.38470  0.09620  1.0000 -0.1442014205
C   C56       1.0  0.38470  0.92570  0.40380  1.0000 -0.1442014205
N   N1        1.0  0.06720  0.32160  0.30720  1.0000 -0.1811425688
N   N2        1.0  0.32160  0.06720  0.19280  1.0000 -0.1811425688
N   N3        1.0  0.93280  0.67840  0.69280  1.0000 -0.1811425688
N   N4        1.0  0.67840  0.93280  0.80720  1.0000 -0.1811425688
N   N5        1.0  0.24230  0.80870  0.00050  1.0000 -0.1811425688
N   N6        1.0  0.80870  0.24230  0.49950  1.0000 -0.1811425688
N   N7        1.0  0.75770  0.19130  0.99950  1.0000 -0.1811425688
N   N8        1.0  0.19130  0.75770  0.50050  1.0000 -0.1811425688
O   O1        1.0  0.20960  0.32880  0.80840  1.0000 -0.5425144511
O   O2        1.0  0.32880  0.20960  0.69160  1.0000 -0.5425144511
O   O3        1.0  0.79040  0.67120  0.19160  1.0000 -0.5425144511
O   O4        1.0  0.67120  0.79040  0.30840  1.0000 -0.5425144511
O   O5        1.0  0.03560  0.15080  0.94220  1.0000 -0.5325747209
O   O6        1.0  0.15080  0.03560  0.55780  1.0000 -0.5325747209
O   O7        1.0  0.96440  0.84920  0.05780  1.0000 -0.5325747209
O   O8        1.0  0.84920  0.96440  0.44220  1.0000 -0.5325747209
O   O9        1.0  0.26140  0.27560  0.07340  1.0000 -0.5737040418
O   O10       1.0  0.27560  0.26140  0.42660  1.0000 -0.5737040418
O   O11       1.0  0.73860  0.72440  0.92660  1.0000 -0.5737040418
O   O12       1.0  0.72440  0.73860  0.57340  1.0000 -0.5737040418
O   O13       1.0  0.18150  0.30470  0.67420  1.0000 -0.5615814554
O   O14       1.0  0.30470  0.18150  0.82580  1.0000 -0.5615814554
O   O15       1.0  0.81850  0.69530  0.32580  1.0000 -0.5615814554
O   O16       1.0  0.69530  0.81850  0.17420  1.0000 -0.5615814554
O   O17       1.0  0.46590  0.50270  0.12240  1.0000 -0.6110076832
O   O18       1.0  0.50270  0.46590  0.37760  1.0000 -0.6110076832
O   O19       1.0  0.53410  0.49730  0.87760  1.0000 -0.6110076832
O   O20       1.0  0.49730  0.53410  0.62240  1.0000 -0.6110076832
O   O21       1.0  0.83790  0.96530  0.01940  1.0000 -0.5425144511
O   O22       1.0  0.96530  0.83790  0.48060  1.0000 -0.5425144511
O   O23       1.0  0.16210  0.03470  0.98060  1.0000 -0.5425144511
O   O24       1.0  0.03470  0.16210  0.51940  1.0000 -0.5425144511
O   O25       1.0  0.32900  0.49580  0.95420  1.0000 -0.5859352278
O   O26       1.0  0.49580  0.32900  0.54580  1.0000 -0.5859352278
O   O27       1.0  0.67100  0.50420  0.04580  1.0000 -0.5859352278
O   O28       1.0  0.50420  0.67100  0.45420  1.0000 -0.5859352278
O   O29       1.0  0.52170  0.72270  0.00700  1.0000 -0.5737040418
O   O30       1.0  0.72270  0.52170  0.49300  1.0000 -0.5737040418
O   O31       1.0  0.47830  0.27730  0.99300  1.0000 -0.5737040418
O   O32       1.0  0.27730  0.47830  0.50700  1.0000 -0.5737040418
