# DDEC6 charges by PACMAN v1.1 (https://github.com/mtap-research/PACMAN-charge/)
data_2015[Ni][dia]3[FSR]4
_chemical_formula_sum              "Ni4 H72 C112 N32 O16"
_cell_length_a       8.726
_cell_length_b       15.847
_cell_length_c       21.156
_cell_angle_alpha    90
_cell_angle_beta     90
_cell_angle_gamma    90

_symmetry_space_group_name_H-M    "P 1"
_symmetry_Int_Tables_number       1

loop_
  _symmetry_equiv_pos_as_xyz
  'x, y, z'

loop_
  _atom_site_type_symbol
  _atom_site_label
  _atom_site_symmetry_multiplicity
  _atom_site_fract_x
  _atom_site_fract_y
  _atom_site_fract_z
  _atom_site_occupancy
  _atom_site_charge
Ni  Ni1       1.0  0.26975  0.25000  0.00000  1.0000 0.6736090435
Ni  Ni2       1.0  0.26975  0.75000  0.50000  1.0000 0.6736090435
Ni  Ni3       1.0  0.73025  0.25000  0.50000  1.0000 0.6736090435
Ni  Ni4       1.0  0.73025  0.75000  0.00000  1.0000 0.6736090435
H   H1        1.0  0.13900  0.02340  0.54450  1.0000 0.1199340742
H   H2        1.0  0.13900  0.47660  0.45550  1.0000 0.1199340742
H   H3        1.0  0.13900  0.97660  0.04450  1.0000 0.1199340742
H   H4        1.0  0.13900  0.52340  0.95550  1.0000 0.1199340742
H   H5        1.0  0.93300  0.85140  0.65490  1.0000 0.1134731946
H   H6        1.0  0.93300  0.64860  0.34510  1.0000 0.1134731946
H   H7        1.0  0.93300  0.14860  0.15490  1.0000 0.1134731946
H   H8        1.0  0.93300  0.35140  0.84510  1.0000 0.1134731946
H   H9        1.0  0.89390  0.22690  0.65750  1.0000 0.2801277628
H   H10       1.0  0.89390  0.27310  0.34250  1.0000 0.2801277628
H   H11       1.0  0.89390  0.77310  0.15750  1.0000 0.2801277628
H   H12       1.0  0.89390  0.72690  0.84250  1.0000 0.2801277628
H   H13       1.0  0.02060  0.13060  0.60030  1.0000 0.1275524972
H   H14       1.0  0.02060  0.36940  0.39970  1.0000 0.1275524972
H   H15       1.0  0.02060  0.86940  0.10030  1.0000 0.1275524972
H   H16       1.0  0.02060  0.63060  0.89970  1.0000 0.1275524972
H   H17       1.0  0.82000  0.95880  0.71270  1.0000 0.1199340742
H   H18       1.0  0.82000  0.54120  0.28730  1.0000 0.1199340742
H   H19       1.0  0.82000  0.04120  0.21270  1.0000 0.1199340742
H   H20       1.0  0.82000  0.45880  0.78730  1.0000 0.1199340742
H   H21       1.0  0.61170  0.33240  0.81930  1.0000 0.139003939
H   H22       1.0  0.61170  0.16760  0.18070  1.0000 0.139003939
H   H23       1.0  0.61170  0.66760  0.31930  1.0000 0.139003939
H   H24       1.0  0.61170  0.83240  0.68070  1.0000 0.139003939
H   H25       1.0  0.45290  0.35270  0.90460  1.0000 0.1134731946
H   H26       1.0  0.45290  0.14730  0.09540  1.0000 0.1134731946
H   H27       1.0  0.45290  0.64730  0.40460  1.0000 0.1134731946
H   H28       1.0  0.45290  0.85270  0.59540  1.0000 0.1134731946
H   H29       1.0  0.59920  0.08420  0.85570  1.0000 0.139003939
H   H30       1.0  0.59920  0.41580  0.14430  1.0000 0.139003939
H   H31       1.0  0.59920  0.91580  0.35570  1.0000 0.139003939
H   H32       1.0  0.59920  0.58420  0.64430  1.0000 0.139003939
H   H33       1.0  0.43870  0.11160  0.93890  1.0000 0.1199340742
H   H34       1.0  0.43870  0.38840  0.06110  1.0000 0.1199340742
H   H35       1.0  0.43870  0.88840  0.43890  1.0000 0.1199340742
H   H36       1.0  0.43870  0.61160  0.56110  1.0000 0.1199340742
H   H37       1.0  0.86100  0.02340  0.95550  1.0000 0.1199340742
H   H38       1.0  0.86100  0.47660  0.04450  1.0000 0.1199340742
H   H39       1.0  0.86100  0.97660  0.45550  1.0000 0.1199340742
H   H40       1.0  0.86100  0.52340  0.54450  1.0000 0.1199340742
H   H41       1.0  0.06700  0.85140  0.84510  1.0000 0.1134731946
H   H42       1.0  0.06700  0.64860  0.15490  1.0000 0.1134731946
H   H43       1.0  0.06700  0.14860  0.34510  1.0000 0.1134731946
H   H44       1.0  0.06700  0.35140  0.65490  1.0000 0.1134731946
H   H45       1.0  0.10610  0.22690  0.84250  1.0000 0.2801277628
H   H46       1.0  0.10610  0.27310  0.15750  1.0000 0.2801277628
H   H47       1.0  0.10610  0.77310  0.34250  1.0000 0.2801277628
H   H48       1.0  0.10610  0.72690  0.65750  1.0000 0.2801277628
H   H49       1.0  0.97940  0.13060  0.89970  1.0000 0.1275524972
H   H50       1.0  0.97940  0.36940  0.10030  1.0000 0.1275524972
H   H51       1.0  0.97940  0.86940  0.39970  1.0000 0.1275524972
H   H52       1.0  0.97940  0.63060  0.60030  1.0000 0.1275524972
H   H53       1.0  0.18000  0.95880  0.78730  1.0000 0.1199340742
H   H54       1.0  0.18000  0.54120  0.21270  1.0000 0.1199340742
H   H55       1.0  0.18000  0.04120  0.28730  1.0000 0.1199340742
H   H56       1.0  0.18000  0.45880  0.71270  1.0000 0.1199340742
H   H57       1.0  0.38830  0.33240  0.68070  1.0000 0.139003939
H   H58       1.0  0.38830  0.16760  0.31930  1.0000 0.139003939
H   H59       1.0  0.38830  0.66760  0.18070  1.0000 0.139003939
H   H60       1.0  0.38830  0.83240  0.81930  1.0000 0.139003939
H   H61       1.0  0.54710  0.35270  0.59540  1.0000 0.1134731946
H   H62       1.0  0.54710  0.14730  0.40460  1.0000 0.1134731946
H   H63       1.0  0.54710  0.64730  0.09540  1.0000 0.1134731946
H   H64       1.0  0.54710  0.85270  0.90460  1.0000 0.1134731946
H   H65       1.0  0.40080  0.08420  0.64430  1.0000 0.139003939
H   H66       1.0  0.40080  0.41580  0.35570  1.0000 0.139003939
H   H67       1.0  0.40080  0.91580  0.14430  1.0000 0.139003939
H   H68       1.0  0.40080  0.58420  0.85570  1.0000 0.139003939
H   H69       1.0  0.56130  0.11160  0.56110  1.0000 0.1199340742
H   H70       1.0  0.56130  0.38840  0.43890  1.0000 0.1199340742
H   H71       1.0  0.56130  0.88840  0.06110  1.0000 0.1199340742
H   H72       1.0  0.56130  0.61160  0.93890  1.0000 0.1199340742
C   C1        1.0  0.12590  0.85752  0.55861  1.0000 0.5414407207
C   C2        1.0  0.12590  0.64248  0.44139  1.0000 0.5414407207
C   C3        1.0  0.12590  0.14248  0.05861  1.0000 0.5414407207
C   C4        1.0  0.12590  0.35752  0.94139  1.0000 0.5414407207
C   C5        1.0  0.04760  0.92642  0.59398  1.0000 -0.026952873
C   C6        1.0  0.04760  0.57358  0.40602  1.0000 -0.026952873
C   C7        1.0  0.04760  0.07358  0.09398  1.0000 -0.026952873
C   C8        1.0  0.04760  0.42642  0.90602  1.0000 -0.026952873
C   C9        1.0  0.07400  0.01044  0.57793  1.0000 -0.0945857633
C   C10       1.0  0.07400  0.48956  0.42207  1.0000 -0.0945857633
C   C11       1.0  0.07400  0.98956  0.07793  1.0000 -0.0945857633
C   C12       1.0  0.07400  0.51044  0.92207  1.0000 -0.0945857633
C   C13       1.0  0.90860  0.05553  0.66235  1.0000 0.0293554356
C   C14       1.0  0.90860  0.44447  0.33765  1.0000 0.0293554356
C   C15       1.0  0.90860  0.94447  0.16235  1.0000 0.0293554356
C   C16       1.0  0.90860  0.55553  0.83765  1.0000 0.0293554356
C   C17       1.0  0.83770  0.12195  0.70101  1.0000 0.2701605661
C   C18       1.0  0.83770  0.37805  0.29899  1.0000 0.2701605661
C   C19       1.0  0.83770  0.87805  0.20101  1.0000 0.2701605661
C   C20       1.0  0.83770  0.62195  0.79899  1.0000 0.2701605661
C   C21       1.0  0.71870  0.18875  0.77178  1.0000 0.2410804769
C   C22       1.0  0.71870  0.31125  0.22822  1.0000 0.2410804769
C   C23       1.0  0.71870  0.81125  0.27178  1.0000 0.2410804769
C   C24       1.0  0.71870  0.68875  0.72822  1.0000 0.2410804769
C   C25       1.0  0.95160  0.90744  0.64422  1.0000 -0.106731155
C   C26       1.0  0.95160  0.59256  0.35578  1.0000 -0.106731155
C   C27       1.0  0.95160  0.09256  0.14422  1.0000 -0.106731155
C   C28       1.0  0.95160  0.40744  0.85578  1.0000 -0.106731155
C   C29       1.0  0.62300  0.20521  0.82707  1.0000 0.0786055694
C   C30       1.0  0.62300  0.29479  0.17293  1.0000 0.0786055694
C   C31       1.0  0.62300  0.79479  0.32707  1.0000 0.0786055694
C   C32       1.0  0.62300  0.70521  0.67293  1.0000 0.0786055694
C   C33       1.0  0.00390  0.07468  0.61162  1.0000 -0.1201674342
C   C34       1.0  0.00390  0.42532  0.38838  1.0000 -0.1201674342
C   C35       1.0  0.00390  0.92532  0.11162  1.0000 -0.1201674342
C   C36       1.0  0.00390  0.57468  0.88838  1.0000 -0.1201674342
C   C37       1.0  0.88310  0.97180  0.67865  1.0000 -0.1201674342
C   C38       1.0  0.88310  0.52820  0.32135  1.0000 -0.1201674342
C   C39       1.0  0.88310  0.02820  0.17865  1.0000 -0.1201674342
C   C40       1.0  0.88310  0.47180  0.82135  1.0000 -0.1201674342
C   C41       1.0  0.57800  0.28644  0.84280  1.0000 -0.1786329495
C   C42       1.0  0.57800  0.21356  0.15720  1.0000 -0.1786329495
C   C43       1.0  0.57800  0.71356  0.34280  1.0000 -0.1786329495
C   C44       1.0  0.57800  0.78644  0.65720  1.0000 -0.1786329495
C   C45       1.0  0.48180  0.29792  0.89421  1.0000 0.0901992014
C   C46       1.0  0.48180  0.20208  0.10579  1.0000 0.0901992014
C   C47       1.0  0.48180  0.70208  0.39421  1.0000 0.0901992014
C   C48       1.0  0.48180  0.79792  0.60579  1.0000 0.0901992014
C   C49       1.0  0.57000  0.13947  0.86438  1.0000 -0.1636886941
C   C50       1.0  0.57000  0.36053  0.13562  1.0000 -0.1636886941
C   C51       1.0  0.57000  0.86053  0.36438  1.0000 -0.1636886941
C   C52       1.0  0.57000  0.63947  0.63562  1.0000 -0.1636886941
C   C53       1.0  0.47370  0.15647  0.91444  1.0000 0.0786055694
C   C54       1.0  0.47370  0.34353  0.08556  1.0000 0.0786055694
C   C55       1.0  0.47370  0.84353  0.41444  1.0000 0.0786055694
C   C56       1.0  0.47370  0.65647  0.58556  1.0000 0.0786055694
C   C57       1.0  0.87410  0.85752  0.94139  1.0000 0.5414407207
C   C58       1.0  0.87410  0.64248  0.05861  1.0000 0.5414407207
C   C59       1.0  0.87410  0.14248  0.44139  1.0000 0.5414407207
C   C60       1.0  0.87410  0.35752  0.55861  1.0000 0.5414407207
C   C61       1.0  0.95240  0.92642  0.90602  1.0000 -0.026952873
C   C62       1.0  0.95240  0.57358  0.09398  1.0000 -0.026952873
C   C63       1.0  0.95240  0.07358  0.40602  1.0000 -0.026952873
C   C64       1.0  0.95240  0.42642  0.59398  1.0000 -0.026952873
C   C65       1.0  0.92600  0.01044  0.92207  1.0000 -0.0945857633
C   C66       1.0  0.92600  0.48956  0.07793  1.0000 -0.0945857633
C   C67       1.0  0.92600  0.98956  0.42207  1.0000 -0.0945857633
C   C68       1.0  0.92600  0.51044  0.57793  1.0000 -0.0945857633
C   C69       1.0  0.09140  0.05553  0.83765  1.0000 0.0293554356
C   C70       1.0  0.09140  0.44447  0.16235  1.0000 0.0293554356
C   C71       1.0  0.09140  0.94447  0.33765  1.0000 0.0293554356
C   C72       1.0  0.09140  0.55553  0.66235  1.0000 0.0293554356
C   C73       1.0  0.16230  0.12195  0.79899  1.0000 0.2701605661
C   C74       1.0  0.16230  0.37805  0.20101  1.0000 0.2701605661
C   C75       1.0  0.16230  0.87805  0.29899  1.0000 0.2701605661
C   C76       1.0  0.16230  0.62195  0.70101  1.0000 0.2701605661
C   C77       1.0  0.28130  0.18875  0.72822  1.0000 0.2410804769
C   C78       1.0  0.28130  0.31125  0.27178  1.0000 0.2410804769
C   C79       1.0  0.28130  0.81125  0.22822  1.0000 0.2410804769
C   C80       1.0  0.28130  0.68875  0.77178  1.0000 0.2410804769
C   C81       1.0  0.04840  0.90744  0.85578  1.0000 -0.106731155
C   C82       1.0  0.04840  0.59256  0.14422  1.0000 -0.106731155
C   C83       1.0  0.04840  0.09256  0.35578  1.0000 -0.106731155
C   C84       1.0  0.04840  0.40744  0.64422  1.0000 -0.106731155
C   C85       1.0  0.37700  0.20521  0.67293  1.0000 0.0786055694
C   C86       1.0  0.37700  0.29479  0.32707  1.0000 0.0786055694
C   C87       1.0  0.37700  0.79479  0.17293  1.0000 0.0786055694
C   C88       1.0  0.37700  0.70521  0.82707  1.0000 0.0786055694
C   C89       1.0  0.99610  0.07468  0.88838  1.0000 -0.1201674342
C   C90       1.0  0.99610  0.42532  0.11162  1.0000 -0.1201674342
C   C91       1.0  0.99610  0.92532  0.38838  1.0000 -0.1201674342
C   C92       1.0  0.99610  0.57468  0.61162  1.0000 -0.1201674342
C   C93       1.0  0.11690  0.97180  0.82135  1.0000 -0.1201674342
C   C94       1.0  0.11690  0.52820  0.17865  1.0000 -0.1201674342
C   C95       1.0  0.11690  0.02820  0.32135  1.0000 -0.1201674342
C   C96       1.0  0.11690  0.47180  0.67865  1.0000 -0.1201674342
C   C97       1.0  0.42200  0.28644  0.65720  1.0000 -0.1786329495
C   C98       1.0  0.42200  0.21356  0.34280  1.0000 -0.1786329495
C   C99       1.0  0.42200  0.71356  0.15720  1.0000 -0.1786329495
C   C100      1.0  0.42200  0.78644  0.84280  1.0000 -0.1786329495
C   C101      1.0  0.51820  0.29792  0.60579  1.0000 0.0901992014
C   C102      1.0  0.51820  0.20208  0.39421  1.0000 0.0901992014
C   C103      1.0  0.51820  0.70208  0.10579  1.0000 0.0901992014
C   C104      1.0  0.51820  0.79792  0.89421  1.0000 0.0901992014
C   C105      1.0  0.43000  0.13947  0.63562  1.0000 -0.1636886941
C   C106      1.0  0.43000  0.36053  0.36438  1.0000 -0.1636886941
C   C107      1.0  0.43000  0.86053  0.13562  1.0000 -0.1636886941
C   C108      1.0  0.43000  0.63947  0.86438  1.0000 -0.1636886941
C   C109      1.0  0.52630  0.15647  0.58556  1.0000 0.0786055694
C   C110      1.0  0.52630  0.34353  0.41444  1.0000 0.0786055694
C   C111      1.0  0.52630  0.84353  0.08556  1.0000 0.0786055694
C   C112      1.0  0.52630  0.65647  0.91444  1.0000 0.0786055694
N   N1        1.0  0.42840  0.23478  0.92948  1.0000 -0.2365109073
N   N2        1.0  0.42840  0.26522  0.07052  1.0000 -0.2365109073
N   N3        1.0  0.42840  0.76522  0.42948  1.0000 -0.2365109073
N   N4        1.0  0.42840  0.73478  0.57052  1.0000 -0.2365109073
N   N5        1.0  0.75630  0.10909  0.75328  1.0000 -0.4211224066
N   N6        1.0  0.75630  0.39091  0.24672  1.0000 -0.4211224066
N   N7        1.0  0.75630  0.89091  0.25328  1.0000 -0.4211224066
N   N8        1.0  0.75630  0.60909  0.74672  1.0000 -0.4211224066
N   N9        1.0  0.77100  0.24986  0.73435  1.0000 -0.2602467882
N   N10       1.0  0.77100  0.25014  0.26565  1.0000 -0.2602467882
N   N11       1.0  0.77100  0.75014  0.23435  1.0000 -0.2602467882
N   N12       1.0  0.77100  0.74986  0.76565  1.0000 -0.2602467882
N   N13       1.0  0.84670  0.20501  0.68921  1.0000 -0.1353462515
N   N14       1.0  0.84670  0.29499  0.31079  1.0000 -0.1353462515
N   N15       1.0  0.84670  0.79499  0.18921  1.0000 -0.1353462515
N   N16       1.0  0.84670  0.70501  0.81079  1.0000 -0.1353462515
N   N17       1.0  0.57160  0.23478  0.57052  1.0000 -0.2365109073
N   N18       1.0  0.57160  0.26522  0.42948  1.0000 -0.2365109073
N   N19       1.0  0.57160  0.76522  0.07052  1.0000 -0.2365109073
N   N20       1.0  0.57160  0.73478  0.92948  1.0000 -0.2365109073
N   N21       1.0  0.24370  0.10909  0.74672  1.0000 -0.4211224066
N   N22       1.0  0.24370  0.39091  0.25328  1.0000 -0.4211224066
N   N23       1.0  0.24370  0.89091  0.24672  1.0000 -0.4211224066
N   N24       1.0  0.24370  0.60909  0.75328  1.0000 -0.4211224066
N   N25       1.0  0.22900  0.24986  0.76565  1.0000 -0.2602467882
N   N26       1.0  0.22900  0.25014  0.23435  1.0000 -0.2602467882
N   N27       1.0  0.22900  0.75014  0.26565  1.0000 -0.2602467882
N   N28       1.0  0.22900  0.74986  0.73435  1.0000 -0.2602467882
N   N29       1.0  0.15330  0.20501  0.81079  1.0000 -0.1353462515
N   N30       1.0  0.15330  0.29499  0.18921  1.0000 -0.1353462515
N   N31       1.0  0.15330  0.79499  0.31079  1.0000 -0.1353462515
N   N32       1.0  0.15330  0.70501  0.68921  1.0000 -0.1353462515
O   O1        1.0  0.22450  0.87587  0.51647  1.0000 -0.5336345183
O   O2        1.0  0.22450  0.62413  0.48353  1.0000 -0.5336345183
O   O3        1.0  0.22450  0.12413  0.01647  1.0000 -0.5336345183
O   O4        1.0  0.22450  0.37587  0.98353  1.0000 -0.5336345183
O   O5        1.0  0.09630  0.78063  0.57086  1.0000 -0.5409016358
O   O6        1.0  0.09630  0.71937  0.42914  1.0000 -0.5409016358
O   O7        1.0  0.09630  0.21937  0.07086  1.0000 -0.5409016358
O   O8        1.0  0.09630  0.28063  0.92914  1.0000 -0.5409016358
O   O9        1.0  0.77550  0.87587  0.98353  1.0000 -0.5336345183
O   O10       1.0  0.77550  0.62413  0.01647  1.0000 -0.5336345183
O   O11       1.0  0.77550  0.12413  0.48353  1.0000 -0.5336345183
O   O12       1.0  0.77550  0.37587  0.51647  1.0000 -0.5336345183
O   O13       1.0  0.90370  0.78063  0.92914  1.0000 -0.5409016358
O   O14       1.0  0.90370  0.71937  0.07086  1.0000 -0.5409016358
O   O15       1.0  0.90370  0.21937  0.42914  1.0000 -0.5409016358
O   O16       1.0  0.90370  0.28063  0.57086  1.0000 -0.5409016358
