# DDEC6 charges by PACMAN v1.1 (https://github.com/mtap-research/PACMAN-charge/)
data_2015[GdAg][nan]3[FSR]1
_chemical_formula_sum              "Gd4 Ag4 H32 C56 N8 O32"
_cell_length_a       12.0447
_cell_length_b       12.0447
_cell_length_c       16.828
_cell_angle_alpha    83.493
_cell_angle_beta     96.507
_cell_angle_gamma    133.462

_symmetry_space_group_name_H-M    "P 1"
_symmetry_Int_Tables_number       1

loop_
  _symmetry_equiv_pos_as_xyz
  'x, y, z'

loop_
  _atom_site_type_symbol
  _atom_site_label
  _atom_site_symmetry_multiplicity
  _atom_site_fract_x
  _atom_site_fract_y
  _atom_site_fract_z
  _atom_site_occupancy
  _atom_site_charge
Gd  Gd1       1.0  0.70457  0.69549  0.93432  1.0000 2.018594894
Gd  Gd2       1.0  0.69549  0.70457  0.56568  1.0000 2.018594894
Gd  Gd3       1.0  0.29543  0.30451  0.06568  1.0000 2.018594894
Gd  Gd4       1.0  0.30451  0.29543  0.43432  1.0000 2.018594894
Ag  Ag1       1.0  0.03825  0.72041  0.08332  1.0000 0.3332867803
Ag  Ag2       1.0  0.72041  0.03825  0.41668  1.0000 0.3332867803
Ag  Ag3       1.0  0.96175  0.27959  0.91668  1.0000 0.3332867803
Ag  Ag4       1.0  0.27959  0.96175  0.58332  1.0000 0.3332867803
H   H1        1.0  0.75090  0.05370  0.05270  1.0000 0.1204967282
H   H2        1.0  0.05370  0.75090  0.44730  1.0000 0.1204967282
H   H3        1.0  0.24910  0.94630  0.94730  1.0000 0.1204967282
H   H4        1.0  0.94630  0.24910  0.55270  1.0000 0.1204967282
H   H5        1.0  0.86650  0.96650  0.16770  1.0000 0.1433653416
H   H6        1.0  0.96650  0.86650  0.33230  1.0000 0.1433653416
H   H7        1.0  0.13350  0.03350  0.83230  1.0000 0.1433653416
H   H8        1.0  0.03350  0.13350  0.66770  1.0000 0.1433653416
H   H9        1.0  0.82710  0.41110  0.95790  1.0000 0.1119960355
H   H10       1.0  0.41110  0.82710  0.54210  1.0000 0.1119960355
H   H11       1.0  0.17290  0.58890  0.04210  1.0000 0.1119960355
H   H12       1.0  0.58890  0.17290  0.45790  1.0000 0.1119960355
H   H13       1.0  0.50560  0.13380  0.11830  1.0000 0.1433653416
H   H14       1.0  0.13380  0.50560  0.38170  1.0000 0.1433653416
H   H15       1.0  0.49440  0.86620  0.88170  1.0000 0.1433653416
H   H16       1.0  0.86620  0.49440  0.61830  1.0000 0.1433653416
H   H17       1.0  0.42680  0.61820  0.21980  1.0000 0.153360072
H   H18       1.0  0.61820  0.42680  0.28020  1.0000 0.153360072
H   H19       1.0  0.57320  0.38180  0.78020  1.0000 0.153360072
H   H20       1.0  0.38180  0.57320  0.71980  1.0000 0.153360072
H   H21       1.0  0.56930  0.99030  0.12950  1.0000 0.1204967282
H   H22       1.0  0.99030  0.56930  0.37050  1.0000 0.1204967282
H   H23       1.0  0.43070  0.00970  0.87050  1.0000 0.1204967282
H   H24       1.0  0.00970  0.43070  0.62950  1.0000 0.1204967282
H   H25       1.0  0.46490  0.75970  0.31920  1.0000 0.1029976936
H   H26       1.0  0.75970  0.46490  0.18080  1.0000 0.1029976936
H   H27       1.0  0.53510  0.24030  0.68080  1.0000 0.1029976936
H   H28       1.0  0.24030  0.53510  0.81920  1.0000 0.1029976936
H   H29       1.0  0.89110  0.08970  0.27330  1.0000 0.1204967282
H   H30       1.0  0.08970  0.89110  0.22670  1.0000 0.1204967282
H   H31       1.0  0.10890  0.91030  0.72670  1.0000 0.1204967282
H   H32       1.0  0.91030  0.10890  0.77330  1.0000 0.1204967282
C   C1        1.0  0.72880  0.11460  0.04850  1.0000 0.0722726084
C   C2        1.0  0.11460  0.72880  0.45150  1.0000 0.0722726084
C   C3        1.0  0.27120  0.88540  0.95150  1.0000 0.0722726084
C   C4        1.0  0.88540  0.27120  0.54850  1.0000 0.0722726084
C   C5        1.0  0.64320  0.77300  0.18480  1.0000 0.0148832532
C   C6        1.0  0.77300  0.64320  0.31520  1.0000 0.0148832532
C   C7        1.0  0.35680  0.22700  0.81520  1.0000 0.0148832532
C   C8        1.0  0.22700  0.35680  0.68480  1.0000 0.0148832532
C   C9        1.0  0.62700  0.38920  0.02440  1.0000 0.6100264521
C   C10       1.0  0.38920  0.62700  0.47560  1.0000 0.6100264521
C   C11       1.0  0.37300  0.61080  0.97560  1.0000 0.6100264521
C   C12       1.0  0.61080  0.37300  0.52440  1.0000 0.6100264521
C   C13       1.0  0.62130  0.67770  0.12140  1.0000 0.6205762061
C   C14       1.0  0.67770  0.62130  0.37860  1.0000 0.6205762061
C   C15       1.0  0.37870  0.32230  0.87860  1.0000 0.6205762061
C   C16       1.0  0.32230  0.37870  0.62140  1.0000 0.6205762061
C   C17       1.0  0.66100  0.29060  0.03640  1.0000 -0.0783122466
C   C18       1.0  0.29060  0.66100  0.46360  1.0000 -0.0783122466
C   C19       1.0  0.33900  0.70940  0.96360  1.0000 -0.0783122466
C   C20       1.0  0.70940  0.33900  0.53640  1.0000 -0.0783122466
C   C21       1.0  0.78400  0.91980  0.19900  1.0000 -0.1553449748
C   C22       1.0  0.91980  0.78400  0.30100  1.0000 -0.1553449748
C   C23       1.0  0.21600  0.08020  0.80100  1.0000 -0.1553449748
C   C24       1.0  0.08020  0.21600  0.69900  1.0000 -0.1553449748
C   C25       1.0  0.77290  0.32450  0.99240  1.0000 0.0266596856
C   C26       1.0  0.32450  0.77290  0.50760  1.0000 0.0266596856
C   C27       1.0  0.22710  0.67550  0.00760  1.0000 0.0266596856
C   C28       1.0  0.67550  0.22710  0.49240  1.0000 0.0266596856
C   C29       1.0  0.58240  0.16160  0.08810  1.0000 -0.054923792
C   C30       1.0  0.16160  0.58240  0.41190  1.0000 -0.054923792
C   C31       1.0  0.41760  0.83840  0.91190  1.0000 -0.054923792
C   C32       1.0  0.83840  0.41760  0.58810  1.0000 -0.054923792
C   C33       1.0  0.52320  0.71420  0.22950  1.0000 -0.1425433202
C   C34       1.0  0.71420  0.52320  0.27050  1.0000 -0.1425433202
C   C35       1.0  0.47680  0.28580  0.77050  1.0000 -0.1425433202
C   C36       1.0  0.28580  0.47680  0.72950  1.0000 -0.1425433202
C   C37       1.0  0.61940  0.07560  0.09410  1.0000 -0.1425433202
C   C38       1.0  0.07560  0.61940  0.40590  1.0000 -0.1425433202
C   C39       1.0  0.38060  0.92440  0.90590  1.0000 -0.1425433202
C   C40       1.0  0.92440  0.38060  0.59410  1.0000 -0.1425433202
C   C41       1.0  0.54750  0.79990  0.28970  1.0000 0.0768693941
C   C42       1.0  0.79990  0.54750  0.21030  1.0000 0.0768693941
C   C43       1.0  0.45250  0.20010  0.71030  1.0000 0.0768693941
C   C44       1.0  0.20010  0.45250  0.78970  1.0000 0.0768693941
C   C45       1.0  0.70770  0.77810  0.74460  1.0000 0.4727194416
C   C46       1.0  0.77810  0.70770  0.75540  1.0000 0.4727194416
C   C47       1.0  0.29230  0.22190  0.25540  1.0000 0.4727194416
C   C48       1.0  0.22190  0.29230  0.24460  1.0000 0.4727194416
C   C49       1.0  0.79640  0.99340  0.26190  1.0000 0.0722726084
C   C50       1.0  0.99340  0.79640  0.23810  1.0000 0.0722726084
C   C51       1.0  0.20360  0.00660  0.73810  1.0000 0.0722726084
C   C52       1.0  0.00660  0.20360  0.76190  1.0000 0.0722726084
C   C53       1.0  0.03330  0.96410  0.01160  1.0000 0.4821445676
C   C54       1.0  0.96410  0.03330  0.48840  1.0000 0.4821445676
C   C55       1.0  0.96670  0.03590  0.98840  1.0000 0.4821445676
C   C56       1.0  0.03590  0.96670  0.51160  1.0000 0.4821445676
N   N1        1.0  0.68150  0.93490  0.30680  1.0000 -0.1813428221
N   N2        1.0  0.93490  0.68150  0.19320  1.0000 -0.1813428221
N   N3        1.0  0.31850  0.06510  0.69320  1.0000 -0.1813428221
N   N4        1.0  0.06510  0.31850  0.80680  1.0000 -0.1813428221
N   N5        1.0  0.80630  0.23810  0.99750  1.0000 -0.1813428221
N   N6        1.0  0.23810  0.80630  0.50250  1.0000 -0.1813428221
N   N7        1.0  0.19370  0.76190  0.00250  1.0000 -0.1813428221
N   N8        1.0  0.76190  0.19370  0.49750  1.0000 -0.1813428221
O   O1        1.0  0.66870  0.78830  0.80710  1.0000 -0.5808895794
O   O2        1.0  0.78830  0.66870  0.69290  1.0000 -0.5808895794
O   O3        1.0  0.33130  0.21170  0.19290  1.0000 -0.5808895794
O   O4        1.0  0.21170  0.33130  0.30710  1.0000 -0.5808895794
O   O5        1.0  0.72610  0.74430  0.07340  1.0000 -0.6403909592
O   O6        1.0  0.74430  0.72610  0.42660  1.0000 -0.6403909592
O   O7        1.0  0.27390  0.25570  0.92660  1.0000 -0.6403909592
O   O8        1.0  0.25570  0.27390  0.57340  1.0000 -0.6403909592
O   O9        1.0  0.96720  0.83980  0.98220  1.0000 -0.5588464258
O   O10       1.0  0.83980  0.96720  0.51780  1.0000 -0.5588464258
O   O11       1.0  0.03280  0.16020  0.01780  1.0000 -0.5588464258
O   O12       1.0  0.16020  0.03280  0.48220  1.0000 -0.5588464258
O   O13       1.0  0.72650  0.52110  0.99440  1.0000 -0.626768258
O   O14       1.0  0.52110  0.72650  0.50560  1.0000 -0.626768258
O   O15       1.0  0.27350  0.47890  0.00560  1.0000 -0.626768258
O   O16       1.0  0.47890  0.27350  0.49440  1.0000 -0.626768258
O   O17       1.0  0.50090  0.33090  0.04640  1.0000 -0.6403909592
O   O18       1.0  0.33090  0.50090  0.45360  1.0000 -0.6403909592
O   O19       1.0  0.49910  0.66910  0.95360  1.0000 -0.6403909592
O   O20       1.0  0.66910  0.49910  0.54640  1.0000 -0.6403909592
O   O21       1.0  0.49970  0.54030  0.12220  1.0000 -0.6577338246
O   O22       1.0  0.54030  0.49970  0.37780  1.0000 -0.6577338246
O   O23       1.0  0.50030  0.45970  0.87780  1.0000 -0.6577338246
O   O24       1.0  0.45970  0.50030  0.62220  1.0000 -0.6577338246
O   O25       1.0  0.69610  0.81910  0.67500  1.0000 -0.587753628
O   O26       1.0  0.81910  0.69610  0.82500  1.0000 -0.587753628
O   O27       1.0  0.30390  0.18090  0.32500  1.0000 -0.587753628
O   O28       1.0  0.18090  0.30390  0.17500  1.0000 -0.587753628
O   O29       1.0  0.14860  0.03360  0.05940  1.0000 -0.587753628
O   O30       1.0  0.03360  0.14860  0.44060  1.0000 -0.587753628
O   O31       1.0  0.85140  0.96640  0.94060  1.0000 -0.587753628
O   O32       1.0  0.96640  0.85140  0.55940  1.0000 -0.587753628
