# DDEC6 charges by PACMAN v1.1 (https://github.com/mtap-research/PACMAN-charge/)
data_2015[Cd][nan]3[FSR]4
_chemical_formula_sum              "Cd8 H56 C72 N16 O40"
_cell_length_a       14.4919
_cell_length_b       14.4919
_cell_length_c       18.2221
_cell_angle_alpha    61.3342
_cell_angle_beta     118.666
_cell_angle_gamma    106.914

_symmetry_space_group_name_H-M    "P 1"
_symmetry_Int_Tables_number       1

loop_
  _symmetry_equiv_pos_as_xyz
  'x, y, z'

loop_
  _atom_site_type_symbol
  _atom_site_label
  _atom_site_symmetry_multiplicity
  _atom_site_fract_x
  _atom_site_fract_y
  _atom_site_fract_z
  _atom_site_occupancy
  _atom_site_charge
Cd  Cd1       1.0  0.63489  0.08507  0.78165  1.0000 0.9270749648
Cd  Cd2       1.0  0.08507  0.63489  0.71835  1.0000 0.9270749648
Cd  Cd3       1.0  0.36511  0.91493  0.21835  1.0000 0.9270749648
Cd  Cd4       1.0  0.91493  0.36511  0.28165  1.0000 0.9270749648
Cd  Cd5       1.0  0.33141  0.90465  0.72213  1.0000 0.936544772
Cd  Cd6       1.0  0.90465  0.33141  0.77787  1.0000 0.936544772
Cd  Cd7       1.0  0.66859  0.09535  0.27787  1.0000 0.936544772
Cd  Cd8       1.0  0.09535  0.66859  0.22213  1.0000 0.936544772
H   H1        1.0  0.52920  0.25780  0.65650  1.0000 0.3633276184
H   H2        1.0  0.25780  0.52920  0.84350  1.0000 0.3633276184
H   H3        1.0  0.47080  0.74220  0.34350  1.0000 0.3633276184
H   H4        1.0  0.74220  0.47080  0.15650  1.0000 0.3633276184
H   H5        1.0  0.45280  0.17440  0.65740  1.0000 0.3775382561
H   H6        1.0  0.17440  0.45280  0.84260  1.0000 0.3775382561
H   H7        1.0  0.54720  0.82560  0.34260  1.0000 0.3775382561
H   H8        1.0  0.82560  0.54720  0.15740  1.0000 0.3775382561
H   H9        1.0  0.39320  0.79200  0.67310  1.0000 0.3693782945
H   H10       1.0  0.79200  0.39320  0.82690  1.0000 0.3693782945
H   H11       1.0  0.60680  0.20800  0.32690  1.0000 0.3693782945
H   H12       1.0  0.20800  0.60680  0.17310  1.0000 0.3693782945
H   H13       1.0  0.28460  0.77100  0.64350  1.0000 0.3775382561
H   H14       1.0  0.77100  0.28460  0.85650  1.0000 0.3775382561
H   H15       1.0  0.71540  0.22900  0.35650  1.0000 0.3775382561
H   H16       1.0  0.22900  0.71540  0.14350  1.0000 0.3775382561
H   H17       1.0  0.03040  0.06000  0.80000  1.0000 0.1200536487
H   H18       1.0  0.06000  0.03040  0.70000  1.0000 0.1200536487
H   H19       1.0  0.96960  0.94000  0.20000  1.0000 0.1200536487
H   H20       1.0  0.94000  0.96960  0.30000  1.0000 0.1200536487
H   H21       1.0  0.80770  0.83070  0.80500  1.0000 0.1200536487
H   H22       1.0  0.83070  0.80770  0.69500  1.0000 0.1200536487
H   H23       1.0  0.19230  0.16930  0.19500  1.0000 0.1200536487
H   H24       1.0  0.16930  0.19230  0.30500  1.0000 0.1200536487
H   H25       1.0  0.89400  0.04080  0.85920  1.0000 0.1367724499
H   H26       1.0  0.04080  0.89400  0.64080  1.0000 0.1367724499
H   H27       1.0  0.10600  0.95920  0.14080  1.0000 0.1367724499
H   H28       1.0  0.95920  0.10600  0.35920  1.0000 0.1367724499
H   H29       1.0  0.97330  0.95590  0.93880  1.0000 0.1367724499
H   H30       1.0  0.95590  0.97330  0.56120  1.0000 0.1367724499
H   H31       1.0  0.02670  0.04410  0.06120  1.0000 0.1367724499
H   H32       1.0  0.04410  0.02670  0.43880  1.0000 0.1367724499
H   H33       1.0  0.69390  0.70050  0.00380  1.0000 0.1524450143
H   H34       1.0  0.70050  0.69390  0.49620  1.0000 0.1524450143
H   H35       1.0  0.30610  0.29950  0.99620  1.0000 0.1524450143
H   H36       1.0  0.29950  0.30610  0.50380  1.0000 0.1524450143
H   H37       1.0  0.21060  0.75800  0.99020  1.0000 0.1524450143
H   H38       1.0  0.75800  0.21060  0.50980  1.0000 0.1524450143
H   H39       1.0  0.78940  0.24200  0.00980  1.0000 0.1524450143
H   H40       1.0  0.24200  0.78940  0.49020  1.0000 0.1524450143
H   H41       1.0  0.42950  0.07910  0.92270  1.0000 0.130727153
H   H42       1.0  0.07910  0.42950  0.57730  1.0000 0.130727153
H   H43       1.0  0.57050  0.92090  0.07730  1.0000 0.130727153
H   H44       1.0  0.92090  0.57050  0.42270  1.0000 0.130727153
H   H45       1.0  0.42350  0.07430  0.83630  1.0000 0.130727153
H   H46       1.0  0.07430  0.42350  0.66370  1.0000 0.130727153
H   H47       1.0  0.57650  0.92570  0.16370  1.0000 0.130727153
H   H48       1.0  0.92570  0.57650  0.33630  1.0000 0.130727153
H   H49       1.0  0.29050  0.16410  0.90770  1.0000 0.1200536487
H   H50       1.0  0.16410  0.29050  0.59230  1.0000 0.1200536487
H   H51       1.0  0.70950  0.83590  0.09230  1.0000 0.1200536487
H   H52       1.0  0.83590  0.70950  0.40770  1.0000 0.1200536487
H   H53       1.0  0.28570  0.16590  0.68620  1.0000 0.1088939093
H   H54       1.0  0.16590  0.28570  0.81380  1.0000 0.1088939093
H   H55       1.0  0.71430  0.83410  0.31380  1.0000 0.1088939093
H   H56       1.0  0.83410  0.71430  0.18620  1.0000 0.1088939093
C   C1        1.0  0.98980  0.00600  0.78160  1.0000 -0.1260485875
C   C2        1.0  0.00600  0.98980  0.71840  1.0000 -0.1260485875
C   C3        1.0  0.01020  0.99400  0.21840  1.0000 -0.1260485875
C   C4        1.0  0.99400  0.01020  0.28160  1.0000 -0.1260485875
C   C5        1.0  0.85890  0.87310  0.78340  1.0000 -0.1422297547
C   C6        1.0  0.87310  0.85890  0.71660  1.0000 -0.1422297547
C   C7        1.0  0.14110  0.12690  0.21660  1.0000 -0.1422297547
C   C8        1.0  0.12690  0.14110  0.28340  1.0000 -0.1422297547
C   C9        1.0  0.92010  0.94830  0.81520  1.0000 0.0873215345
C   C10       1.0  0.94830  0.92010  0.68480  1.0000 0.0873215345
C   C11       1.0  0.07990  0.05170  0.18480  1.0000 0.0873215345
C   C12       1.0  0.05170  0.07990  0.31520  1.0000 0.0873215345
C   C13       1.0  0.90740  0.96740  0.88490  1.0000 -0.1906758289
C   C14       1.0  0.96740  0.90740  0.61510  1.0000 -0.1906758289
C   C15       1.0  0.09260  0.03260  0.11510  1.0000 -0.1906758289
C   C16       1.0  0.03260  0.09260  0.38490  1.0000 -0.1906758289
C   C17       1.0  0.82340  0.79980  0.98400  1.0000 0.0008352671
C   C18       1.0  0.79980  0.82340  0.51600  1.0000 0.0008352671
C   C19       1.0  0.17660  0.20020  0.01600  1.0000 0.0008352671
C   C20       1.0  0.20020  0.17660  0.48400  1.0000 0.0008352671
C   C21       1.0  0.71930  0.76470  0.96890  1.0000 -0.2422064657
C   C22       1.0  0.76470  0.71930  0.53110  1.0000 -0.2422064657
C   C23       1.0  0.28070  0.23530  0.03110  1.0000 -0.2422064657
C   C24       1.0  0.23530  0.28070  0.46890  1.0000 -0.2422064657
C   C25       1.0  0.66010  0.84470  0.89080  1.0000 0.0873215345
C   C26       1.0  0.84470  0.66010  0.60920  1.0000 0.0873215345
C   C27       1.0  0.33990  0.15530  0.10920  1.0000 0.0873215345
C   C28       1.0  0.15530  0.33990  0.39080  1.0000 0.0873215345
C   C29       1.0  0.18830  0.74950  0.82400  1.0000 0.540430065
C   C30       1.0  0.74950  0.18830  0.67600  1.0000 0.540430065
C   C31       1.0  0.81170  0.25050  0.17600  1.0000 0.540430065
C   C32       1.0  0.25050  0.81170  0.32400  1.0000 0.540430065
C   C33       1.0  0.54060  0.85400  0.84220  1.0000 0.5622498949
C   C34       1.0  0.85400  0.54060  0.65780  1.0000 0.5622498949
C   C35       1.0  0.45940  0.14600  0.15780  1.0000 0.5622498949
C   C36       1.0  0.14600  0.45940  0.34220  1.0000 0.5622498949
C   C37       1.0  0.33390  0.92750  0.04520  1.0000 0.5287251731
C   C38       1.0  0.92750  0.33390  0.45480  1.0000 0.5287251731
C   C39       1.0  0.66610  0.07250  0.95480  1.0000 0.5287251731
C   C40       1.0  0.07250  0.66610  0.54520  1.0000 0.5287251731
C   C41       1.0  0.30350  0.89790  0.96820  1.0000 -0.0030970524
C   C42       1.0  0.89790  0.30350  0.53180  1.0000 -0.0030970524
C   C43       1.0  0.69650  0.10210  0.03180  1.0000 -0.0030970524
C   C44       1.0  0.10210  0.69650  0.46820  1.0000 -0.0030970524
C   C45       1.0  0.24360  0.81140  0.95360  1.0000 -0.2265323738
C   C46       1.0  0.81140  0.24360  0.54640  1.0000 -0.2265323738
C   C47       1.0  0.75640  0.18860  0.04640  1.0000 -0.2265323738
C   C48       1.0  0.18860  0.75640  0.45360  1.0000 -0.2265323738
C   C49       1.0  0.24070  0.81790  0.87290  1.0000 0.0438495164
C   C50       1.0  0.81790  0.24070  0.62710  1.0000 0.0438495164
C   C51       1.0  0.75930  0.18210  0.12710  1.0000 0.0438495164
C   C52       1.0  0.18210  0.75930  0.37290  1.0000 0.0438495164
C   C53       1.0  0.92370  0.75850  0.06330  1.0000 0.5287251731
C   C54       1.0  0.75850  0.92370  0.43670  1.0000 0.5287251731
C   C55       1.0  0.07630  0.24150  0.93670  1.0000 0.5287251731
C   C56       1.0  0.24150  0.07630  0.56330  1.0000 0.5287251731
C   C57       1.0  0.38220  0.06640  0.86810  1.0000 -0.1975036452
C   C58       1.0  0.06640  0.38220  0.63190  1.0000 -0.1975036452
C   C59       1.0  0.61780  0.93360  0.13190  1.0000 -0.1975036452
C   C60       1.0  0.93360  0.61780  0.36810  1.0000 -0.1975036452
C   C61       1.0  0.29910  0.14770  0.80600  1.0000 0.1088939093
C   C62       1.0  0.14770  0.29910  0.69400  1.0000 0.1088939093
C   C63       1.0  0.70090  0.85230  0.19400  1.0000 0.1088939093
C   C64       1.0  0.85230  0.70090  0.30600  1.0000 0.1088939093
C   C65       1.0  0.26390  0.18710  0.84460  1.0000 -0.1422297547
C   C66       1.0  0.18710  0.26390  0.65540  1.0000 -0.1422297547
C   C67       1.0  0.73610  0.81290  0.15540  1.0000 -0.1422297547
C   C68       1.0  0.81290  0.73610  0.34460  1.0000 -0.1422297547
C   C69       1.0  0.26090  0.18910  0.71270  1.0000 -0.1422297547
C   C70       1.0  0.18910  0.26090  0.78730  1.0000 -0.1422297547
C   C71       1.0  0.73910  0.81090  0.28730  1.0000 -0.1422297547
C   C72       1.0  0.81090  0.73910  0.21270  1.0000 -0.1422297547
N   N1        1.0  0.72190  0.92530  0.85900  1.0000 -0.257727627
N   N2        1.0  0.92530  0.72190  0.64100  1.0000 -0.257727627
N   N3        1.0  0.27810  0.07470  0.14100  1.0000 -0.257727627
N   N4        1.0  0.07470  0.27810  0.35900  1.0000 -0.257727627
N   N5        1.0  0.82170  0.90030  0.91330  1.0000 0.1955747714
N   N6        1.0  0.90030  0.82170  0.58670  1.0000 0.1955747714
N   N7        1.0  0.17830  0.09970  0.08670  1.0000 0.1955747714
N   N8        1.0  0.09970  0.17830  0.41330  1.0000 0.1955747714
N   N9        1.0  0.29480  0.90920  0.83680  1.0000 -0.2853865663
N   N10       1.0  0.90920  0.29480  0.66320  1.0000 -0.2853865663
N   N11       1.0  0.70520  0.09080  0.16320  1.0000 -0.2853865663
N   N12       1.0  0.09080  0.70520  0.33680  1.0000 -0.2849518995
N   N13       1.0  0.33110  0.95730  0.89450  1.0000 0.2070245778
N   N14       1.0  0.95730  0.33110  0.60550  1.0000 0.2070245778
N   N15       1.0  0.66890  0.04270  0.10550  1.0000 0.2070245778
N   N16       1.0  0.04270  0.66890  0.39450  1.0000 0.2070245778
O   O1        1.0  0.47720  0.77820  0.86500  1.0000 -0.5266698639
O   O2        1.0  0.77820  0.47720  0.63500  1.0000 -0.5266698639
O   O3        1.0  0.52280  0.22180  0.13500  1.0000 -0.5266698639
O   O4        1.0  0.22180  0.52280  0.36500  1.0000 -0.5266698639
O   O5        1.0  0.51000  0.94340  0.77770  1.0000 -0.5727406109
O   O6        1.0  0.94340  0.51000  0.72230  1.0000 -0.5727406109
O   O7        1.0  0.49000  0.05660  0.22230  1.0000 -0.5727406109
O   O8        1.0  0.05660  0.49000  0.27770  1.0000 -0.5727406109
O   O9        1.0  0.20600  0.77180  0.75490  1.0000 -0.5727406109
O   O10       1.0  0.77180  0.20600  0.74510  1.0000 -0.5727406109
O   O11       1.0  0.79400  0.22820  0.24510  1.0000 -0.5727406109
O   O12       1.0  0.22820  0.79400  0.25490  1.0000 -0.5727406109
O   O13       1.0  0.12730  0.67030  0.84900  1.0000 -0.5209297428
O   O14       1.0  0.67030  0.12730  0.65100  1.0000 -0.5209297428
O   O15       1.0  0.87270  0.32970  0.15100  1.0000 -0.5209297428
O   O16       1.0  0.32970  0.87270  0.34900  1.0000 -0.5209297428
O   O17       1.0  0.30060  0.86020  0.10590  1.0000 -0.5514731298
O   O18       1.0  0.86020  0.30060  0.39410  1.0000 -0.5514731298
O   O19       1.0  0.69940  0.13980  0.89410  1.0000 -0.5514731298
O   O20       1.0  0.13980  0.69940  0.60590  1.0000 -0.5514731298
O   O21       1.0  0.38880  0.00800  0.05000  1.0000 -0.5209297428
O   O22       1.0  0.00800  0.38880  0.45000  1.0000 -0.5209297428
O   O23       1.0  0.61120  0.99200  0.95000  1.0000 -0.5209297428
O   O24       1.0  0.99200  0.61120  0.55000  1.0000 -0.5209297428
O   O25       1.0  0.00600  0.81340  0.08060  1.0000 -0.5070173929
O   O26       1.0  0.81340  0.00600  0.41940  1.0000 -0.5070173929
O   O27       1.0  0.99400  0.18660  0.91940  1.0000 -0.5070173929
O   O28       1.0  0.18660  0.99400  0.58060  1.0000 -0.5070173929
O   O29       1.0  0.91590  0.66170  0.11540  1.0000 -0.5514731298
O   O30       1.0  0.66170  0.91590  0.38460  1.0000 -0.5514731298
O   O31       1.0  0.08410  0.33830  0.88460  1.0000 -0.5514731298
O   O32       1.0  0.33830  0.08410  0.61540  1.0000 -0.5514731298
O   O33       1.0  0.50740  0.20040  0.69080  1.0000 -0.6357823501
O   O34       1.0  0.20040  0.50740  0.80920  1.0000 -0.6357823501
O   O35       1.0  0.49260  0.79960  0.30920  1.0000 -0.6357823501
O   O36       1.0  0.79960  0.49260  0.19080  1.0000 -0.6357823501
O   O37       1.0  0.33490  0.81910  0.64710  1.0000 -0.6357823501
O   O38       1.0  0.81910  0.33490  0.85290  1.0000 -0.6357823501
O   O39       1.0  0.66510  0.18090  0.35290  1.0000 -0.6357823501
O   O40       1.0  0.18090  0.66510  0.14710  1.0000 -0.6357823501
