# DDEC6 charges by PACMAN v1.1 (https://github.com/mtap-research/PACMAN-charge/)
data_2015[Ni][sit]3[FSR]1
_chemical_formula_sum              "Ni4 H40 C68 N12 O16"
_cell_length_a       14.8449
_cell_length_b       14.8449
_cell_length_c       11.6392
_cell_angle_alpha    72.6531
_cell_angle_beta     107.347
_cell_angle_gamma    82.9844

_symmetry_space_group_name_H-M    "P 1"
_symmetry_Int_Tables_number       1

loop_
  _symmetry_equiv_pos_as_xyz
  'x, y, z'

loop_
  _atom_site_type_symbol
  _atom_site_label
  _atom_site_symmetry_multiplicity
  _atom_site_fract_x
  _atom_site_fract_y
  _atom_site_fract_z
  _atom_site_occupancy
  _atom_site_charge
Ni  Ni1       1.0  0.06896  0.69024  0.38787  1.0000 0.6923346643
Ni  Ni2       1.0  0.30976  0.93104  0.38787  1.0000 0.6923346643
Ni  Ni3       1.0  0.69024  0.06896  0.61213  1.0000 0.6923346643
Ni  Ni4       1.0  0.93104  0.30976  0.61213  1.0000 0.6923346643
H   H1        1.0  0.01410  0.76210  0.58340  1.0000 0.1175337682
H   H2        1.0  0.23790  0.98590  0.58340  1.0000 0.1175337682
H   H3        1.0  0.02900  0.70520  0.79450  1.0000 0.1383892012
H   H4        1.0  0.29480  0.97100  0.79450  1.0000 0.1383892012
H   H5        1.0  0.16930  0.44630  0.82500  1.0000 0.1383892012
H   H6        1.0  0.55370  0.83070  0.82500  1.0000 0.1383892012
H   H7        1.0  0.15020  0.51100  0.61230  1.0000 0.1175337682
H   H8        1.0  0.48900  0.84980  0.61230  1.0000 0.1175337682
H   H9        1.0  0.07280  0.65040  0.00500  1.0000 0.1291788698
H   H10       1.0  0.34960  0.92720  0.00500  1.0000 0.1291788698
H   H11       1.0  0.16330  0.40970  0.31970  1.0000 0.1291788698
H   H12       1.0  0.59030  0.83670  0.31970  1.0000 0.1291788698
H   H13       1.0  0.36180  0.10800  0.46080  1.0000 0.1118407373
H   H14       1.0  0.89200  0.63820  0.46080  1.0000 0.1118407373
H   H15       1.0  0.30280  0.27360  0.38190  1.0000 0.1383892012
H   H16       1.0  0.72640  0.69720  0.38190  1.0000 0.1383892012
H   H17       1.0  0.12690  0.25090  0.06020  1.0000 0.1383892012
H   H18       1.0  0.74910  0.87310  0.06020  1.0000 0.1383892012
H   H19       1.0  0.18360  0.08580  0.15310  1.0000 0.1175337682
H   H20       1.0  0.91420  0.81640  0.15310  1.0000 0.1175337682
H   H21       1.0  0.76210  0.01410  0.41660  1.0000 0.1175337682
H   H22       1.0  0.98590  0.23790  0.41660  1.0000 0.1175337682
H   H23       1.0  0.70520  0.02900  0.20550  1.0000 0.1383892012
H   H24       1.0  0.97100  0.29480  0.20550  1.0000 0.1383892012
H   H25       1.0  0.44630  0.16930  0.17500  1.0000 0.1383892012
H   H26       1.0  0.83070  0.55370  0.17500  1.0000 0.1383892012
H   H27       1.0  0.51100  0.15020  0.38770  1.0000 0.1175337682
H   H28       1.0  0.84980  0.48900  0.38770  1.0000 0.1175337682
H   H29       1.0  0.65040  0.07280  0.99500  1.0000 0.1291788698
H   H30       1.0  0.92720  0.34960  0.99500  1.0000 0.1291788698
H   H31       1.0  0.40970  0.16330  0.68030  1.0000 0.1291788698
H   H32       1.0  0.83670  0.59030  0.68030  1.0000 0.1291788698
H   H33       1.0  0.10800  0.36180  0.53920  1.0000 0.1118407373
H   H34       1.0  0.63820  0.89200  0.53920  1.0000 0.1118407373
H   H35       1.0  0.27360  0.30280  0.61810  1.0000 0.1383892012
H   H36       1.0  0.69720  0.72640  0.61810  1.0000 0.1383892012
H   H37       1.0  0.25090  0.12690  0.93980  1.0000 0.1383892012
H   H38       1.0  0.87310  0.74910  0.93980  1.0000 0.1383892012
H   H39       1.0  0.08580  0.18360  0.84690  1.0000 0.1175337682
H   H40       1.0  0.81640  0.91420  0.84690  1.0000 0.1175337682
C   C1        1.0  0.04580  0.69780  0.63260  1.0000 0.0802022119
C   C2        1.0  0.30220  0.95420  0.63260  1.0000 0.0802022119
C   C3        1.0  0.05480  0.66400  0.75990  1.0000 -0.1972790398
C   C4        1.0  0.33600  0.94520  0.75990  1.0000 -0.1972790398
C   C5        1.0  0.10280  0.56800  0.83750  1.0000 0.090598156
C   C6        1.0  0.43200  0.89720  0.83750  1.0000 0.090598156
C   C7        1.0  0.13770  0.51110  0.77840  1.0000 -0.171558487
C   C8        1.0  0.48890  0.86230  0.77840  1.0000 -0.171558487
C   C9        1.0  0.12550  0.55070  0.64970  1.0000 0.0987708394
C   C10       1.0  0.44930  0.87450  0.64970  1.0000 0.0987708394
C   C11       1.0  0.11610  0.52630  0.97550  1.0000 0.199099121
C   C12       1.0  0.47370  0.88390  0.97550  1.0000 0.199099121
C   C13       1.0  0.09620  0.58360  0.04520  1.0000 -0.1928769673
C   C14       1.0  0.41640  0.90380  0.04520  1.0000 -0.1928769673
C   C15       1.0  0.11160  0.54000  0.17390  1.0000 0.0408745113
C   C16       1.0  0.46000  0.88840  0.17390  1.0000 0.0408745113
C   C17       1.0  0.15010  0.44070  0.23230  1.0000 -0.2080681088
C   C18       1.0  0.55930  0.84990  0.23230  1.0000 -0.2080681088
C   C19       1.0  0.16870  0.38870  0.15650  1.0000 0.1907163237
C   C20       1.0  0.61130  0.83130  0.15650  1.0000 0.1907163237
C   C21       1.0  0.31260  0.13700  0.38080  1.0000 0.0802022119
C   C22       1.0  0.86300  0.68740  0.38080  1.0000 0.0802022119
C   C23       1.0  0.27830  0.23710  0.33260  1.0000 -0.1972790398
C   C24       1.0  0.76290  0.72170  0.33260  1.0000 -0.1972790398
C   C25       1.0  0.20830  0.28250  0.21240  1.0000 0.0802022119
C   C26       1.0  0.71750  0.79170  0.21240  1.0000 0.0802022119
C   C27       1.0  0.17320  0.22360  0.14270  1.0000 -0.1972790398
C   C28       1.0  0.77640  0.82680  0.14270  1.0000 -0.1972790398
C   C29       1.0  0.20860  0.12440  0.19890  1.0000 0.0987708394
C   C30       1.0  0.87560  0.79140  0.19890  1.0000 0.0987708394
C   C31       1.0  0.08930  0.59910  0.25120  1.0000 0.5333857064
C   C32       1.0  0.40090  0.91070  0.25120  1.0000 0.5333857064
C   C33       1.0  0.23590  0.76410  0.42490  1.0000 0.4686202382
C   C34       1.0  0.14840  0.85160  0.38100  1.0000 0.4614008789
C   C35       1.0  0.69780  0.04580  0.36740  1.0000 0.0802022119
C   C36       1.0  0.95420  0.30220  0.36740  1.0000 0.0802022119
C   C37       1.0  0.66400  0.05480  0.24010  1.0000 -0.1972790398
C   C38       1.0  0.94520  0.33600  0.24010  1.0000 -0.1972790398
C   C39       1.0  0.56800  0.10280  0.16250  1.0000 0.090598156
C   C40       1.0  0.89720  0.43200  0.16250  1.0000 0.090598156
C   C41       1.0  0.51110  0.13770  0.22160  1.0000 -0.171558487
C   C42       1.0  0.86230  0.48890  0.22160  1.0000 -0.171558487
C   C43       1.0  0.55070  0.12550  0.35030  1.0000 0.0987708394
C   C44       1.0  0.87450  0.44930  0.35030  1.0000 0.0987708394
C   C45       1.0  0.52630  0.11610  0.02450  1.0000 0.199099121
C   C46       1.0  0.88390  0.47370  0.02450  1.0000 0.199099121
C   C47       1.0  0.58360  0.09620  0.95480  1.0000 -0.1928769673
C   C48       1.0  0.90380  0.41640  0.95480  1.0000 -0.1928769673
C   C49       1.0  0.54000  0.11160  0.82610  1.0000 0.0408745113
C   C50       1.0  0.88840  0.46000  0.82610  1.0000 0.0408745113
C   C51       1.0  0.44070  0.15010  0.76770  1.0000 -0.2080681088
C   C52       1.0  0.84990  0.55930  0.76770  1.0000 -0.2080681088
C   C53       1.0  0.38870  0.16870  0.84350  1.0000 0.1907163237
C   C54       1.0  0.83130  0.61130  0.84350  1.0000 0.1907163237
C   C55       1.0  0.13700  0.31260  0.61920  1.0000 0.0802022119
C   C56       1.0  0.68740  0.86300  0.61920  1.0000 0.0802022119
C   C57       1.0  0.23710  0.27830  0.66740  1.0000 -0.1972790398
C   C58       1.0  0.72170  0.76290  0.66740  1.0000 -0.1972790398
C   C59       1.0  0.28250  0.20830  0.78760  1.0000 0.0802022119
C   C60       1.0  0.79170  0.71750  0.78760  1.0000 0.0802022119
C   C61       1.0  0.22360  0.17320  0.85730  1.0000 -0.1972790398
C   C62       1.0  0.82680  0.77640  0.85730  1.0000 -0.1972790398
C   C63       1.0  0.12440  0.20860  0.80110  1.0000 0.0987708394
C   C64       1.0  0.79140  0.87560  0.80110  1.0000 0.0987708394
C   C65       1.0  0.59910  0.08930  0.74880  1.0000 0.5333857064
C   C66       1.0  0.91070  0.40090  0.74880  1.0000 0.5333857064
C   C67       1.0  0.76410  0.23590  0.57510  1.0000 0.4686202382
C   C68       1.0  0.85160  0.14840  0.61900  1.0000 0.4614008789
N   N1        1.0  0.08050  0.64290  0.57560  1.0000 -0.2315640549
N   N2        1.0  0.35710  0.91950  0.57560  1.0000 -0.2315640549
N   N3        1.0  0.15020  0.43100  0.03030  1.0000 -0.3049470063
N   N4        1.0  0.56900  0.84980  0.03030  1.0000 -0.3057162936
N   N5        1.0  0.27690  0.08070  0.31530  1.0000 -0.216367359
N   N6        1.0  0.91930  0.72310  0.31530  1.0000 -0.216367359
N   N7        1.0  0.64290  0.08050  0.42440  1.0000 -0.2315640549
N   N8        1.0  0.91950  0.35710  0.42440  1.0000 -0.2315640549
N   N9        1.0  0.43100  0.15020  0.96970  1.0000 -0.3049470063
N   N10       1.0  0.84980  0.56900  0.96970  1.0000 -0.3057162936
N   N11       1.0  0.08070  0.27690  0.68470  1.0000 -0.216367359
N   N12       1.0  0.72310  0.91930  0.68470  1.0000 -0.216367359
O   O1        1.0  0.09113  0.55513  0.36360  1.0000 -0.5406447972
O   O2        1.0  0.44487  0.90887  0.36360  1.0000 -0.5406447972
O   O3        1.0  0.07050  0.68970  0.20360  1.0000 -0.5130043502
O   O4        1.0  0.31030  0.92950  0.20360  1.0000 -0.5130043502
O   O5        1.0  0.21728  0.68260  0.44070  1.0000 -0.4647713478
O   O6        1.0  0.31740  0.78272  0.44070  1.0000 -0.4647713478
O   O7        1.0  0.06628  0.83352  0.36450  1.0000 -0.4904997002
O   O8        1.0  0.16648  0.93372  0.36450  1.0000 -0.4904997002
O   O9        1.0  0.55513  0.09113  0.63640  1.0000 -0.5406447972
O   O10       1.0  0.90887  0.44487  0.63640  1.0000 -0.5406447972
O   O11       1.0  0.68970  0.07050  0.79640  1.0000 -0.5130043502
O   O12       1.0  0.92950  0.31030  0.79640  1.0000 -0.5130043502
O   O13       1.0  0.68260  0.21728  0.55930  1.0000 -0.4647713478
O   O14       1.0  0.78272  0.31740  0.55930  1.0000 -0.4647713478
O   O15       1.0  0.83352  0.06628  0.63550  1.0000 -0.4904997002
O   O16       1.0  0.93372  0.16648  0.63550  1.0000 -0.4904997002
