# DDEC6 charges by PACMAN v1.1 (https://github.com/mtap-research/PACMAN-charge/)
data_2015[Cd][nuc]3[FSR]2
_chemical_formula_sum              "Cd4 H144 C192 N48"
_cell_length_a       15.8983
_cell_length_b       15.8983
_cell_length_c       21.6675
_cell_angle_alpha    90
_cell_angle_beta     90
_cell_angle_gamma    90

_symmetry_space_group_name_H-M    "P 1"
_symmetry_Int_Tables_number       1

loop_
  _symmetry_equiv_pos_as_xyz
  'x, y, z'

loop_
  _atom_site_type_symbol
  _atom_site_label
  _atom_site_symmetry_multiplicity
  _atom_site_fract_x
  _atom_site_fract_y
  _atom_site_fract_z
  _atom_site_occupancy
  _atom_site_charge
Cd  Cd1       1.0  0.05878  0.05878  0.00000  1.0000 0.6407694228
Cd  Cd2       1.0  0.94122  0.94122  0.50000  1.0000 0.6407694228
Cd  Cd3       1.0  0.44122  0.55878  0.75000  1.0000 0.6407694228
Cd  Cd4       1.0  0.55878  0.44122  0.25000  1.0000 0.6407694228
H   H1        1.0  0.73720  0.50820  0.32350  1.0000 0.0943878971
H   H2        1.0  0.26280  0.49180  0.82350  1.0000 0.0943878971
H   H3        1.0  0.99180  0.23720  0.07350  1.0000 0.0943878971
H   H4        1.0  0.00820  0.76280  0.57350  1.0000 0.0943878971
H   H5        1.0  0.76280  0.00820  0.42650  1.0000 0.0943878971
H   H6        1.0  0.23720  0.99180  0.92650  1.0000 0.0943878971
H   H7        1.0  0.50820  0.73720  0.67650  1.0000 0.0943878971
H   H8        1.0  0.49180  0.26280  0.17650  1.0000 0.0943878971
H   H9        1.0  0.84510  0.60330  0.31500  1.0000 0.1273311012
H   H10       1.0  0.15490  0.39670  0.81500  1.0000 0.1273311012
H   H11       1.0  0.89670  0.34510  0.06500  1.0000 0.1273311012
H   H12       1.0  0.10330  0.65490  0.56500  1.0000 0.1273311012
H   H13       1.0  0.65490  0.10330  0.43500  1.0000 0.1273311012
H   H14       1.0  0.34510  0.89670  0.93500  1.0000 0.1273311012
H   H15       1.0  0.60330  0.84510  0.68500  1.0000 0.1273311012
H   H16       1.0  0.39670  0.15490  0.18500  1.0000 0.1273311012
H   H17       1.0  0.76730  0.65100  0.14230  1.0000 0.1273311012
H   H18       1.0  0.23270  0.34900  0.64230  1.0000 0.1273311012
H   H19       1.0  0.84900  0.26730  0.89230  1.0000 0.1273311012
H   H20       1.0  0.15100  0.73270  0.39230  1.0000 0.1273311012
H   H21       1.0  0.73270  0.15100  0.60770  1.0000 0.1273311012
H   H22       1.0  0.26730  0.84900  0.10770  1.0000 0.1273311012
H   H23       1.0  0.65100  0.76730  0.85770  1.0000 0.1273311012
H   H24       1.0  0.34900  0.23270  0.35770  1.0000 0.1273311012
H   H25       1.0  0.66120  0.55600  0.15720  1.0000 0.1001529735
H   H26       1.0  0.33880  0.44400  0.65720  1.0000 0.1001529735
H   H27       1.0  0.94400  0.16120  0.90720  1.0000 0.1001529735
H   H28       1.0  0.05600  0.83880  0.40720  1.0000 0.1001529735
H   H29       1.0  0.83880  0.05600  0.59280  1.0000 0.1001529735
H   H30       1.0  0.16120  0.94400  0.09280  1.0000 0.1001529735
H   H31       1.0  0.55600  0.66120  0.84280  1.0000 0.1001529735
H   H32       1.0  0.44400  0.33880  0.34280  1.0000 0.1001529735
H   H33       1.0  0.96130  0.66800  0.28960  1.0000 0.111100506
H   H34       1.0  0.03870  0.33200  0.78960  1.0000 0.111100506
H   H35       1.0  0.83200  0.46130  0.03960  1.0000 0.111100506
H   H36       1.0  0.16800  0.53870  0.53960  1.0000 0.111100506
H   H37       1.0  0.53870  0.16800  0.46040  1.0000 0.111100506
H   H38       1.0  0.46130  0.83200  0.96040  1.0000 0.111100506
H   H39       1.0  0.66800  0.96130  0.71040  1.0000 0.111100506
H   H40       1.0  0.33200  0.03870  0.21040  1.0000 0.111100506
H   H41       1.0  0.06130  0.77360  0.27990  1.0000 0.111100506
H   H42       1.0  0.93870  0.22640  0.77990  1.0000 0.111100506
H   H43       1.0  0.72640  0.56130  0.02990  1.0000 0.111100506
H   H44       1.0  0.27360  0.43870  0.52990  1.0000 0.111100506
H   H45       1.0  0.43870  0.27360  0.47010  1.0000 0.111100506
H   H46       1.0  0.56130  0.72640  0.97010  1.0000 0.111100506
H   H47       1.0  0.77360  0.06130  0.72010  1.0000 0.111100506
H   H48       1.0  0.22640  0.93870  0.22010  1.0000 0.111100506
H   H49       1.0  0.04330  0.87870  0.20810  1.0000 0.111100506
H   H50       1.0  0.95670  0.12130  0.70810  1.0000 0.111100506
H   H51       1.0  0.62130  0.54330  0.95810  1.0000 0.111100506
H   H52       1.0  0.37870  0.45670  0.45810  1.0000 0.111100506
H   H53       1.0  0.45670  0.37870  0.54190  1.0000 0.111100506
H   H54       1.0  0.54330  0.62130  0.04190  1.0000 0.111100506
H   H55       1.0  0.87870  0.04330  0.79190  1.0000 0.111100506
H   H56       1.0  0.12130  0.95670  0.29190  1.0000 0.111100506
H   H57       1.0  0.82760  0.77270  0.15290  1.0000 0.1001529735
H   H58       1.0  0.17240  0.22730  0.65290  1.0000 0.1001529735
H   H59       1.0  0.72730  0.32760  0.90290  1.0000 0.1001529735
H   H60       1.0  0.27270  0.67240  0.40290  1.0000 0.1001529735
H   H61       1.0  0.67240  0.27270  0.59710  1.0000 0.1001529735
H   H62       1.0  0.32760  0.72730  0.09710  1.0000 0.1001529735
H   H63       1.0  0.77270  0.82760  0.84710  1.0000 0.1001529735
H   H64       1.0  0.22730  0.17240  0.34710  1.0000 0.1001529735
H   H65       1.0  0.79730  0.99580  0.95570  1.0000 0.111100506
H   H66       1.0  0.20270  0.00420  0.45570  1.0000 0.111100506
H   H67       1.0  0.50420  0.29730  0.70570  1.0000 0.111100506
H   H68       1.0  0.49580  0.70270  0.20570  1.0000 0.111100506
H   H69       1.0  0.70270  0.49580  0.79430  1.0000 0.111100506
H   H70       1.0  0.29730  0.50420  0.29430  1.0000 0.111100506
H   H71       1.0  0.99580  0.79730  0.04430  1.0000 0.111100506
H   H72       1.0  0.00420  0.20270  0.54430  1.0000 0.111100506
H   H73       1.0  0.70150  0.08790  0.91300  1.0000 0.111100506
H   H74       1.0  0.29850  0.91210  0.41300  1.0000 0.111100506
H   H75       1.0  0.41210  0.20150  0.66300  1.0000 0.111100506
H   H76       1.0  0.58790  0.79850  0.16300  1.0000 0.111100506
H   H77       1.0  0.79850  0.58790  0.83700  1.0000 0.111100506
H   H78       1.0  0.20150  0.41210  0.33700  1.0000 0.111100506
H   H79       1.0  0.08790  0.70150  0.08700  1.0000 0.111100506
H   H80       1.0  0.91210  0.29850  0.58700  1.0000 0.111100506
H   H81       1.0  0.65030  0.20000  0.96890  1.0000 0.1001529735
H   H82       1.0  0.34970  0.80000  0.46890  1.0000 0.1001529735
H   H83       1.0  0.30000  0.15030  0.71890  1.0000 0.1001529735
H   H84       1.0  0.70000  0.84970  0.21890  1.0000 0.1001529735
H   H85       1.0  0.84970  0.70000  0.78110  1.0000 0.1001529735
H   H86       1.0  0.15030  0.30000  0.28110  1.0000 0.1001529735
H   H87       1.0  0.20000  0.65030  0.03110  1.0000 0.1001529735
H   H88       1.0  0.80000  0.34970  0.53110  1.0000 0.1001529735
H   H89       1.0  0.80040  0.13580  0.10990  1.0000 0.111100506
H   H90       1.0  0.19960  0.86420  0.60990  1.0000 0.111100506
H   H91       1.0  0.36420  0.30040  0.85990  1.0000 0.111100506
H   H92       1.0  0.63580  0.69960  0.35990  1.0000 0.111100506
H   H93       1.0  0.69960  0.63580  0.64010  1.0000 0.111100506
H   H94       1.0  0.30040  0.36420  0.14010  1.0000 0.111100506
H   H95       1.0  0.13580  0.80040  0.89010  1.0000 0.111100506
H   H96       1.0  0.86420  0.19960  0.39010  1.0000 0.111100506
H   H97       1.0  0.58580  0.28630  0.03210  1.0000 0.1273311012
H   H98       1.0  0.41420  0.71370  0.53210  1.0000 0.1273311012
H   H99       1.0  0.21370  0.08580  0.78210  1.0000 0.1273311012
H   H100      1.0  0.78630  0.91420  0.28210  1.0000 0.1273311012
H   H101      1.0  0.91420  0.78630  0.71790  1.0000 0.1273311012
H   H102      1.0  0.08580  0.21370  0.21790  1.0000 0.1273311012
H   H103      1.0  0.28630  0.58580  0.96790  1.0000 0.1273311012
H   H104      1.0  0.71370  0.41420  0.46790  1.0000 0.1273311012
H   H105      1.0  0.53760  0.38830  0.09800  1.0000 0.1001529735
H   H106      1.0  0.46240  0.61170  0.59800  1.0000 0.1001529735
H   H107      1.0  0.11170  0.03760  0.84800  1.0000 0.1001529735
H   H108      1.0  0.88830  0.96240  0.34800  1.0000 0.1001529735
H   H109      1.0  0.96240  0.88830  0.65200  1.0000 0.1001529735
H   H110      1.0  0.03760  0.11170  0.15200  1.0000 0.1001529735
H   H111      1.0  0.38830  0.53760  0.90200  1.0000 0.1001529735
H   H112      1.0  0.61170  0.46240  0.40200  1.0000 0.1001529735
H   H113      1.0  0.72820  0.35750  0.20800  1.0000 0.1001529735
H   H114      1.0  0.27180  0.64250  0.70800  1.0000 0.1001529735
H   H115      1.0  0.14250  0.22820  0.95800  1.0000 0.1001529735
H   H116      1.0  0.85750  0.77180  0.45800  1.0000 0.1001529735
H   H117      1.0  0.77180  0.85750  0.54200  1.0000 0.1001529735
H   H118      1.0  0.22820  0.14250  0.04200  1.0000 0.1001529735
H   H119      1.0  0.35750  0.72820  0.79200  1.0000 0.1001529735
H   H120      1.0  0.64250  0.27180  0.29200  1.0000 0.1001529735
H   H121      1.0  0.78260  0.25520  0.14600  1.0000 0.1273311012
H   H122      1.0  0.21740  0.74480  0.64600  1.0000 0.1273311012
H   H123      1.0  0.24480  0.28260  0.89600  1.0000 0.1273311012
H   H124      1.0  0.75520  0.71740  0.39600  1.0000 0.1273311012
H   H125      1.0  0.71740  0.75520  0.60400  1.0000 0.1273311012
H   H126      1.0  0.28260  0.24480  0.10400  1.0000 0.1273311012
H   H127      1.0  0.25520  0.78260  0.85400  1.0000 0.1273311012
H   H128      1.0  0.74480  0.21740  0.35400  1.0000 0.1273311012
H   H129      1.0  0.74340  0.88840  0.09510  1.0000 0.2482166
H   H130      1.0  0.25660  0.11160  0.59510  1.0000 0.2482166
H   H131      1.0  0.61160  0.24340  0.84510  1.0000 0.2482166
H   H132      1.0  0.38840  0.75660  0.34510  1.0000 0.2482166
H   H133      1.0  0.75660  0.38840  0.65490  1.0000 0.2482166
H   H134      1.0  0.24340  0.61160  0.15490  1.0000 0.2482166
H   H135      1.0  0.88840  0.74340  0.90490  1.0000 0.2482166
H   H136      1.0  0.11160  0.25660  0.40490  1.0000 0.2482166
H   H137      1.0  0.75900  0.96620  0.14120  1.0000 0.2482166
H   H138      1.0  0.24100  0.03380  0.64120  1.0000 0.2482166
H   H139      1.0  0.53380  0.25900  0.89120  1.0000 0.2482166
H   H140      1.0  0.46620  0.74100  0.39120  1.0000 0.2482166
H   H141      1.0  0.74100  0.46620  0.60880  1.0000 0.2482166
H   H142      1.0  0.25900  0.53380  0.10880  1.0000 0.2482166
H   H143      1.0  0.96620  0.75900  0.85880  1.0000 0.2482166
H   H144      1.0  0.03380  0.24100  0.35880  1.0000 0.2482166
C   C1        1.0  0.74250  0.53830  0.28700  1.0000 0.0647027761
C   C2        1.0  0.25750  0.46170  0.78700  1.0000 0.0647027761
C   C3        1.0  0.96170  0.24250  0.03700  1.0000 0.0647027761
C   C4        1.0  0.03830  0.75750  0.53700  1.0000 0.0647027761
C   C5        1.0  0.75750  0.03830  0.46300  1.0000 0.0647027761
C   C6        1.0  0.24250  0.96170  0.96300  1.0000 0.0647027761
C   C7        1.0  0.53830  0.74250  0.71300  1.0000 0.0647027761
C   C8        1.0  0.46170  0.25750  0.21300  1.0000 0.0647027761
C   C9        1.0  0.80820  0.59580  0.28210  1.0000 -0.2084674134
C   C10       1.0  0.19180  0.40420  0.78210  1.0000 -0.2084674134
C   C11       1.0  0.90420  0.30820  0.03210  1.0000 -0.2084674134
C   C12       1.0  0.09580  0.69180  0.53210  1.0000 -0.2084674134
C   C13       1.0  0.69180  0.09580  0.46790  1.0000 -0.2084674134
C   C14       1.0  0.30820  0.90420  0.96790  1.0000 -0.2084674134
C   C15       1.0  0.59580  0.80820  0.71790  1.0000 -0.2084674134
C   C16       1.0  0.40420  0.19180  0.21790  1.0000 -0.2084674134
C   C17       1.0  0.81860  0.64180  0.22820  1.0000 0.111100506
C   C18       1.0  0.18140  0.35820  0.72820  1.0000 0.111100506
C   C19       1.0  0.85820  0.31860  0.97820  1.0000 0.111100506
C   C20       1.0  0.14180  0.68140  0.47820  1.0000 0.111100506
C   C21       1.0  0.68140  0.14180  0.52180  1.0000 0.111100506
C   C22       1.0  0.31860  0.85820  0.02180  1.0000 0.111100506
C   C23       1.0  0.64180  0.81860  0.77180  1.0000 0.111100506
C   C24       1.0  0.35820  0.18140  0.27180  1.0000 0.111100506
C   C25       1.0  0.76190  0.62400  0.18020  1.0000 -0.2084674134
C   C26       1.0  0.23810  0.37600  0.68020  1.0000 -0.2084674134
C   C27       1.0  0.87600  0.26190  0.93020  1.0000 -0.2084674134
C   C28       1.0  0.12400  0.73810  0.43020  1.0000 -0.2084674134
C   C29       1.0  0.73810  0.12400  0.56980  1.0000 -0.2084674134
C   C30       1.0  0.26190  0.87600  0.06980  1.0000 -0.2084674134
C   C31       1.0  0.62400  0.76190  0.81980  1.0000 -0.2084674134
C   C32       1.0  0.37600  0.23810  0.31980  1.0000 -0.2084674134
C   C33       1.0  0.69830  0.56620  0.18950  1.0000 0.0678708591
C   C34       1.0  0.30170  0.43380  0.68950  1.0000 0.0678708591
C   C35       1.0  0.93380  0.19830  0.93950  1.0000 0.0678708591
C   C36       1.0  0.06620  0.80170  0.43950  1.0000 0.0678708591
C   C37       1.0  0.80170  0.06620  0.56050  1.0000 0.0678708591
C   C38       1.0  0.19830  0.93380  0.06050  1.0000 0.0678708591
C   C39       1.0  0.56620  0.69830  0.81050  1.0000 0.0678708591
C   C40       1.0  0.43380  0.30170  0.31050  1.0000 0.0678708591
C   C41       1.0  0.88360  0.70850  0.22220  1.0000 0.0678708591
C   C42       1.0  0.11640  0.29150  0.72220  1.0000 0.0678708591
C   C43       1.0  0.79150  0.38360  0.97220  1.0000 0.0678708591
C   C44       1.0  0.20850  0.61640  0.47220  1.0000 0.0678708591
C   C45       1.0  0.61640  0.20850  0.52780  1.0000 0.0678708591
C   C46       1.0  0.38360  0.79150  0.02780  1.0000 0.0678708591
C   C47       1.0  0.70850  0.88360  0.77780  1.0000 0.0678708591
C   C48       1.0  0.29150  0.11640  0.27780  1.0000 0.0678708591
C   C49       1.0  0.95400  0.71000  0.26010  1.0000 -0.1610647507
C   C50       1.0  0.04600  0.29000  0.76010  1.0000 -0.1610647507
C   C51       1.0  0.79000  0.45400  0.01010  1.0000 -0.1610647507
C   C52       1.0  0.21000  0.54600  0.51010  1.0000 -0.1610647507
C   C53       1.0  0.54600  0.21000  0.48990  1.0000 -0.1610647507
C   C54       1.0  0.45400  0.79000  0.98990  1.0000 -0.1610647507
C   C55       1.0  0.71000  0.95400  0.73990  1.0000 -0.1610647507
C   C56       1.0  0.29000  0.04600  0.23990  1.0000 -0.1610647507
C   C57       1.0  0.01390  0.77370  0.25460  1.0000 -0.1114659208
C   C58       1.0  0.98610  0.22630  0.75460  1.0000 -0.1114659208
C   C59       1.0  0.72630  0.51390  0.00460  1.0000 -0.1114659208
C   C60       1.0  0.27370  0.48610  0.50460  1.0000 -0.1114659208
C   C61       1.0  0.48610  0.27370  0.49540  1.0000 -0.1114659208
C   C62       1.0  0.51390  0.72630  0.99540  1.0000 -0.1114659208
C   C63       1.0  0.77370  0.01390  0.74540  1.0000 -0.1114659208
C   C64       1.0  0.22630  0.98610  0.24540  1.0000 -0.1114659208
C   C65       1.0  0.00300  0.83670  0.21190  1.0000 -0.1610647507
C   C66       1.0  0.99700  0.16330  0.71190  1.0000 -0.1610647507
C   C67       1.0  0.66330  0.50300  0.96190  1.0000 -0.1610647507
C   C68       1.0  0.33670  0.49700  0.46190  1.0000 -0.1610647507
C   C69       1.0  0.49700  0.33670  0.53810  1.0000 -0.1610647507
C   C70       1.0  0.50300  0.66330  0.03810  1.0000 -0.1610647507
C   C71       1.0  0.83670  0.00300  0.78810  1.0000 -0.1610647507
C   C72       1.0  0.16330  0.99700  0.28810  1.0000 -0.1610647507
C   C73       1.0  0.93270  0.83810  0.17473  1.0000 0.0354982995
C   C74       1.0  0.06730  0.16190  0.67473  1.0000 0.0354982995
C   C75       1.0  0.66190  0.43270  0.92473  1.0000 0.0354982995
C   C76       1.0  0.33810  0.56730  0.42473  1.0000 0.0354982995
C   C77       1.0  0.56730  0.33810  0.57527  1.0000 0.0354982995
C   C78       1.0  0.43270  0.66190  0.07527  1.0000 0.0354982995
C   C79       1.0  0.83810  0.93270  0.82527  1.0000 0.0354982995
C   C80       1.0  0.16190  0.06730  0.32527  1.0000 0.0354982995
C   C81       1.0  0.87390  0.77300  0.17910  1.0000 -0.1994080666
C   C82       1.0  0.12610  0.22700  0.67910  1.0000 -0.1994080666
C   C83       1.0  0.72700  0.37390  0.92910  1.0000 -0.1994080666
C   C84       1.0  0.27300  0.62610  0.42910  1.0000 -0.1994080666
C   C85       1.0  0.62610  0.27300  0.57090  1.0000 -0.1994080666
C   C86       1.0  0.37390  0.72700  0.07090  1.0000 -0.1994080666
C   C87       1.0  0.77300  0.87390  0.82090  1.0000 -0.1994080666
C   C88       1.0  0.22700  0.12610  0.32090  1.0000 -0.1994080666
C   C89       1.0  0.92350  0.90730  0.13003  1.0000 0.1754550979
C   C90       1.0  0.07650  0.09270  0.63003  1.0000 0.1754550979
C   C91       1.0  0.59270  0.42350  0.88003  1.0000 0.1754550979
C   C92       1.0  0.40730  0.57650  0.38003  1.0000 0.1754550979
C   C93       1.0  0.57650  0.40730  0.61997  1.0000 0.1754550979
C   C94       1.0  0.42350  0.59270  0.11997  1.0000 0.1754550979
C   C95       1.0  0.90730  0.92350  0.86997  1.0000 0.1754550979
C   C96       1.0  0.09270  0.07650  0.36997  1.0000 0.1754550979
C   C97       1.0  0.87190  0.00260  0.06773  1.0000 0.1565426037
C   C98       1.0  0.12810  0.99740  0.56773  1.0000 0.1565426037
C   C99       1.0  0.49740  0.37190  0.81773  1.0000 0.1565426037
C   C100      1.0  0.50260  0.62810  0.31773  1.0000 0.1565426037
C   C101      1.0  0.62810  0.50260  0.68227  1.0000 0.1565426037
C   C102      1.0  0.37190  0.49740  0.18227  1.0000 0.1565426037
C   C103      1.0  0.00260  0.87190  0.93227  1.0000 0.1565426037
C   C104      1.0  0.99740  0.12810  0.43227  1.0000 0.1565426037
C   C105      1.0  0.80960  0.05770  0.03761  1.0000 0.0276071074
C   C106      1.0  0.19040  0.94230  0.53761  1.0000 0.0276071074
C   C107      1.0  0.44230  0.30960  0.78761  1.0000 0.0276071074
C   C108      1.0  0.55770  0.69040  0.28761  1.0000 0.0276071074
C   C109      1.0  0.69040  0.55770  0.71239  1.0000 0.0276071074
C   C110      1.0  0.30960  0.44230  0.21239  1.0000 0.0276071074
C   C111      1.0  0.05770  0.80960  0.96239  1.0000 0.0276071074
C   C112      1.0  0.94230  0.19040  0.46239  1.0000 0.0276071074
C   C113      1.0  0.77880  0.04220  0.97800  1.0000 -0.1665166646
C   C114      1.0  0.22120  0.95780  0.47800  1.0000 -0.1665166646
C   C115      1.0  0.45780  0.27880  0.72800  1.0000 -0.1665166646
C   C116      1.0  0.54220  0.72120  0.22800  1.0000 -0.1665166646
C   C117      1.0  0.72120  0.54220  0.77200  1.0000 -0.1665166646
C   C118      1.0  0.27880  0.45780  0.27200  1.0000 -0.1665166646
C   C119      1.0  0.04220  0.77880  0.02200  1.0000 -0.1665166646
C   C120      1.0  0.95780  0.22120  0.52200  1.0000 -0.1665166646
C   C121      1.0  0.72070  0.09680  0.95300  1.0000 -0.1006135188
C   C122      1.0  0.27930  0.90320  0.45300  1.0000 -0.1006135188
C   C123      1.0  0.40320  0.22070  0.70300  1.0000 -0.1006135188
C   C124      1.0  0.59680  0.77930  0.20300  1.0000 -0.1006135188
C   C125      1.0  0.77930  0.59680  0.79700  1.0000 -0.1006135188
C   C126      1.0  0.22070  0.40320  0.29700  1.0000 -0.1006135188
C   C127      1.0  0.09680  0.72070  0.04700  1.0000 -0.1006135188
C   C128      1.0  0.90320  0.27930  0.54700  1.0000 -0.1006135188
C   C129      1.0  0.69040  0.16480  0.98640  1.0000 -0.1665166646
C   C130      1.0  0.30960  0.83520  0.48640  1.0000 -0.1665166646
C   C131      1.0  0.33520  0.19040  0.73640  1.0000 -0.1665166646
C   C132      1.0  0.66480  0.80960  0.23640  1.0000 -0.1665166646
C   C133      1.0  0.80960  0.66480  0.76360  1.0000 -0.1665166646
C   C134      1.0  0.19040  0.33520  0.26360  1.0000 -0.1665166646
C   C135      1.0  0.16480  0.69040  0.01360  1.0000 -0.1665166646
C   C136      1.0  0.83520  0.30960  0.51360  1.0000 -0.1665166646
C   C137      1.0  0.71920  0.18070  0.04579  1.0000 0.0678708591
C   C138      1.0  0.28080  0.81930  0.54579  1.0000 0.0678708591
C   C139      1.0  0.31930  0.21920  0.79579  1.0000 0.0678708591
C   C140      1.0  0.68070  0.78080  0.29579  1.0000 0.0678708591
C   C141      1.0  0.78080  0.68070  0.70421  1.0000 0.0678708591
C   C142      1.0  0.21920  0.31930  0.20421  1.0000 0.0678708591
C   C143      1.0  0.18070  0.71920  0.95421  1.0000 0.0678708591
C   C144      1.0  0.81930  0.28080  0.45421  1.0000 0.0678708591
C   C145      1.0  0.77980  0.12590  0.07040  1.0000 -0.2084674134
C   C146      1.0  0.22020  0.87410  0.57040  1.0000 -0.2084674134
C   C147      1.0  0.37410  0.27980  0.82040  1.0000 -0.2084674134
C   C148      1.0  0.62590  0.72020  0.32040  1.0000 -0.2084674134
C   C149      1.0  0.72020  0.62590  0.67960  1.0000 -0.2084674134
C   C150      1.0  0.27980  0.37410  0.17960  1.0000 -0.2084674134
C   C151      1.0  0.12590  0.77980  0.92960  1.0000 -0.2084674134
C   C152      1.0  0.87410  0.22020  0.42960  1.0000 -0.2084674134
C   C153      1.0  0.68850  0.25310  0.08280  1.0000 0.115484
C   C154      1.0  0.31150  0.74690  0.58280  1.0000 0.115484
C   C155      1.0  0.24690  0.18850  0.83280  1.0000 0.115484
C   C156      1.0  0.75310  0.81150  0.33280  1.0000 0.115484
C   C157      1.0  0.81150  0.75310  0.66720  1.0000 0.115484
C   C158      1.0  0.18850  0.24690  0.16720  1.0000 0.115484
C   C159      1.0  0.25310  0.68850  0.91720  1.0000 0.115484
C   C160      1.0  0.74690  0.31150  0.41720  1.0000 0.115484
C   C161      1.0  0.61500  0.29790  0.06830  1.0000 -0.2176960252
C   C162      1.0  0.38500  0.70210  0.56830  1.0000 -0.2176960252
C   C163      1.0  0.20210  0.11500  0.81830  1.0000 -0.2176960252
C   C164      1.0  0.79790  0.88500  0.31830  1.0000 -0.2176960252
C   C165      1.0  0.88500  0.79790  0.68170  1.0000 -0.2176960252
C   C166      1.0  0.11500  0.20210  0.18170  1.0000 -0.2176960252
C   C167      1.0  0.29790  0.61500  0.93170  1.0000 -0.2176960252
C   C168      1.0  0.70210  0.38500  0.43170  1.0000 -0.2176960252
C   C169      1.0  0.58640  0.35950  0.10850  1.0000 0.0678708591
C   C170      1.0  0.41360  0.64050  0.60850  1.0000 0.0678708591
C   C171      1.0  0.14050  0.08640  0.85850  1.0000 0.0678708591
C   C172      1.0  0.85950  0.91360  0.35850  1.0000 0.0678708591
C   C173      1.0  0.91360  0.85950  0.64150  1.0000 0.0678708591
C   C174      1.0  0.08640  0.14050  0.14150  1.0000 0.0678708591
C   C175      1.0  0.35950  0.58640  0.89150  1.0000 0.0678708591
C   C176      1.0  0.64050  0.41360  0.39150  1.0000 0.0678708591
C   C177      1.0  0.69830  0.34150  0.17310  1.0000 0.0276071074
C   C178      1.0  0.30170  0.65850  0.67310  1.0000 0.0276071074
C   C179      1.0  0.15850  0.19830  0.92310  1.0000 0.0276071074
C   C180      1.0  0.84150  0.80170  0.42310  1.0000 0.0276071074
C   C181      1.0  0.80170  0.84150  0.57690  1.0000 0.0276071074
C   C182      1.0  0.19830  0.15850  0.07690  1.0000 0.0276071074
C   C183      1.0  0.34150  0.69830  0.82690  1.0000 0.0276071074
C   C184      1.0  0.65850  0.30170  0.32690  1.0000 0.0276071074
C   C185      1.0  0.73130  0.27970  0.13590  1.0000 -0.2084674134
C   C186      1.0  0.26870  0.72030  0.63590  1.0000 -0.2084674134
C   C187      1.0  0.22030  0.23130  0.88590  1.0000 -0.2084674134
C   C188      1.0  0.77970  0.76870  0.38590  1.0000 -0.2084674134
C   C189      1.0  0.76870  0.77970  0.61410  1.0000 -0.2084674134
C   C190      1.0  0.23130  0.22030  0.11410  1.0000 -0.2084674134
C   C191      1.0  0.27970  0.73130  0.86410  1.0000 -0.2084674134
C   C192      1.0  0.72030  0.26870  0.36410  1.0000 -0.2084674134
N   N1        1.0  0.68680  0.52410  0.24230  1.0000 -0.2375002226
N   N2        1.0  0.31320  0.47590  0.74230  1.0000 -0.2375002226
N   N3        1.0  0.97590  0.18680  0.99230  1.0000 -0.2375002226
N   N4        1.0  0.02410  0.81320  0.49230  1.0000 -0.2375002226
N   N5        1.0  0.81320  0.02410  0.50770  1.0000 -0.2375002226
N   N6        1.0  0.18680  0.97590  0.00770  1.0000 -0.2375002226
N   N7        1.0  0.52410  0.68680  0.75770  1.0000 -0.2375002226
N   N8        1.0  0.47590  0.31320  0.25770  1.0000 -0.2375002226
N   N9        1.0  0.98760  0.94670  0.10489  1.0000 -0.275559365
N   N10       1.0  0.01240  0.05330  0.60489  1.0000 -0.275559365
N   N11       1.0  0.55330  0.48760  0.85489  1.0000 -0.275559365
N   N12       1.0  0.44670  0.51240  0.35489  1.0000 -0.275559365
N   N13       1.0  0.51240  0.44670  0.64511  1.0000 -0.275559365
N   N14       1.0  0.48760  0.55330  0.14511  1.0000 -0.275559365
N   N15       1.0  0.94670  0.98760  0.89511  1.0000 -0.275559365
N   N16       1.0  0.05330  0.01240  0.39511  1.0000 -0.275559365
N   N17       1.0  0.95480  0.00760  0.06595  1.0000 -0.2304893836
N   N18       1.0  0.04520  0.99240  0.56595  1.0000 -0.2304893836
N   N19       1.0  0.49240  0.45480  0.81595  1.0000 -0.2304893836
N   N20       1.0  0.50760  0.54520  0.31595  1.0000 -0.2304893836
N   N21       1.0  0.54520  0.50760  0.68405  1.0000 -0.2304893836
N   N22       1.0  0.45480  0.49240  0.18405  1.0000 -0.2304893836
N   N23       1.0  0.00760  0.95480  0.93405  1.0000 -0.2304893836
N   N24       1.0  0.99240  0.04520  0.43405  1.0000 -0.2304893836
N   N25       1.0  0.85036  0.94010  0.10774  1.0000 0.0488124284
N   N26       1.0  0.14964  0.05990  0.60774  1.0000 0.0488124284
N   N27       1.0  0.55990  0.35036  0.85774  1.0000 0.0488124284
N   N28       1.0  0.44010  0.64964  0.35774  1.0000 0.0488124284
N   N29       1.0  0.64964  0.44010  0.64226  1.0000 0.0488124284
N   N30       1.0  0.35036  0.55990  0.14226  1.0000 0.0488124284
N   N31       1.0  0.94010  0.85036  0.89226  1.0000 0.0488124284
N   N32       1.0  0.05990  0.14964  0.39226  1.0000 0.0488124284
N   N33       1.0  0.76850  0.91700  0.12570  1.0000 -0.5229262702
N   N34       1.0  0.23150  0.08300  0.62570  1.0000 -0.5229262702
N   N35       1.0  0.58300  0.26850  0.87570  1.0000 -0.5229262702
N   N36       1.0  0.41700  0.73150  0.37570  1.0000 -0.5229262702
N   N37       1.0  0.73150  0.41700  0.62430  1.0000 -0.5229262702
N   N38       1.0  0.26850  0.58300  0.12430  1.0000 -0.5229262702
N   N39       1.0  0.91700  0.76850  0.87430  1.0000 -0.5229262702
N   N40       1.0  0.08300  0.23150  0.37430  1.0000 -0.5229262702
N   N41       1.0  0.62420  0.38010  0.16108  1.0000 -0.2375002226
N   N42       1.0  0.37580  0.61990  0.66108  1.0000 -0.2375002226
N   N43       1.0  0.11990  0.12420  0.91108  1.0000 -0.2375002226
N   N44       1.0  0.88010  0.87580  0.41108  1.0000 -0.2375002226
N   N45       1.0  0.87580  0.88010  0.58892  1.0000 -0.2375002226
N   N46       1.0  0.12420  0.11990  0.08892  1.0000 -0.2375002226
N   N47       1.0  0.38010  0.62420  0.83892  1.0000 -0.2375002226
N   N48       1.0  0.61990  0.37580  0.33892  1.0000 -0.2375002226
