# DDEC6 charges by PACMAN v1.1 (https://github.com/mtap-research/PACMAN-charge/)
data_2015[U][nan]3[FSR]9
_chemical_formula_sum              "U4 H24 C32 N4 O26"
_cell_length_a       9.6416
_cell_length_b       10.973
_cell_length_c       16.0937
_cell_angle_alpha    69.5315
_cell_angle_beta     75.1736
_cell_angle_gamma    70.39

_symmetry_space_group_name_H-M    "P 1"
_symmetry_Int_Tables_number       1

loop_
  _symmetry_equiv_pos_as_xyz
  'x, y, z'

loop_
  _atom_site_type_symbol
  _atom_site_label
  _atom_site_symmetry_multiplicity
  _atom_site_fract_x
  _atom_site_fract_y
  _atom_site_fract_z
  _atom_site_occupancy
  _atom_site_charge
U   U1        1.0  0.10097  0.08007  0.62022  1.0000 2.3872947079
U   U2        1.0  0.89903  0.91993  0.37978  1.0000 2.3872947079
U   U3        1.0  0.85495  0.16780  0.00320  1.0000 2.3716110569
U   U4        1.0  0.14505  0.83220  0.99680  1.0000 2.3716110569
H   H1        1.0  0.10330  0.34090  0.81710  1.0000 0.1320191307
H   H2        1.0  0.89670  0.65910  0.18290  1.0000 0.1320191307
H   H3        1.0  0.06500  0.73770  0.74760  1.0000 0.1320191307
H   H4        1.0  0.93500  0.26230  0.25240  1.0000 0.1320191307
H   H5        1.0  0.06680  0.56710  0.56210  1.0000 0.1320191307
H   H6        1.0  0.93320  0.43290  0.43790  1.0000 0.1320191307
H   H7        1.0  0.09120  0.45020  0.92710  1.0000 0.2995050929
H   H8        1.0  0.90880  0.54980  0.07290  1.0000 0.2995050929
H   H9        1.0  0.08640  0.59580  0.89930  1.0000 0.2995050929
H   H10       1.0  0.91360  0.40420  0.10070  1.0000 0.2995050929
H   H11       1.0  0.76970  0.44320  0.70090  1.0000 0.1381196138
H   H12       1.0  0.23030  0.55680  0.29910  1.0000 0.1381196138
H   H13       1.0  0.43920  0.78080  0.62480  1.0000 0.145092426
H   H14       1.0  0.56080  0.21920  0.37520  1.0000 0.145092426
H   H15       1.0  0.46220  0.58900  0.88580  1.0000 0.1381196138
H   H16       1.0  0.53780  0.41100  0.11420  1.0000 0.1381196138
H   H17       1.0  0.63780  0.69150  0.51490  1.0000 0.2995050929
H   H18       1.0  0.36220  0.30850  0.48510  1.0000 0.2995050929
H   H19       1.0  0.75830  0.56620  0.54440  1.0000 0.2910155637
H   H20       1.0  0.24170  0.43380  0.45560  1.0000 0.2910155637
H   H21       1.0  0.04710  0.96760  0.12190  1.0000 0.325725196
H   H22       1.0  0.95290  0.03240  0.87810  1.0000 0.3242601735
H   H23       1.0  0.95020  0.93010  0.12630  1.0000 0.3101198656
H   H24       1.0  0.04980  0.06990  0.87370  1.0000 0.3101198656
C   C1        1.0  0.08860  0.30880  0.66700  1.0000 0.5432739836
C   C2        1.0  0.91140  0.69120  0.33300  1.0000 0.5432739836
C   C3        1.0  0.08450  0.43260  0.68760  1.0000 -0.0058619869
C   C4        1.0  0.91550  0.56740  0.31240  1.0000 -0.0058619869
C   C5        1.0  0.09380  0.42420  0.77360  1.0000 -0.2128094154
C   C6        1.0  0.90620  0.57580  0.22640  1.0000 -0.2128094154
C   C7        1.0  0.08970  0.53450  0.79780  1.0000 0.2740806324
C   C8        1.0  0.91030  0.46550  0.20220  1.0000 0.2740806324
C   C9        1.0  0.07420  0.66060  0.73260  1.0000 -0.2199742662
C   C10       1.0  0.92580  0.33940  0.26740  1.0000 -0.2199742662
C   C11       1.0  0.07280  0.66750  0.64460  1.0000 -0.0058619869
C   C12       1.0  0.92720  0.33250  0.35540  1.0000 -0.0058619869
C   C13       1.0  0.07350  0.55820  0.62070  1.0000 -0.154799478
C   C14       1.0  0.92650  0.44180  0.37930  1.0000 -0.154799478
C   C15       1.0  0.07100  0.80360  0.56960  1.0000 0.6483622772
C   C16       1.0  0.92900  0.19640  0.43040  1.0000 0.6483622772
C   C17       1.0  0.70760  0.39080  0.87170  1.0000 0.5679746849
C   C18       1.0  0.29240  0.60920  0.12830  1.0000 0.5679746849
C   C19       1.0  0.62650  0.50090  0.80190  1.0000 -0.0035369763
C   C20       1.0  0.37350  0.49910  0.19810  1.0000 -0.0035369763
C   C21       1.0  0.68460  0.50870  0.71510  1.0000 -0.1938439625
C   C22       1.0  0.31540  0.49130  0.28490  1.0000 -0.1938439625
C   C23       1.0  0.61600  0.61680  0.64520  1.0000 0.2813323719
C   C24       1.0  0.38400  0.38320  0.35480  1.0000 0.2813323719
C   C25       1.0  0.48740  0.71060  0.66920  1.0000 -0.2049199956
C   C26       1.0  0.51260  0.28940  0.33080  1.0000 -0.2049199956
C   C27       1.0  0.42980  0.70060  0.75960  1.0000 -0.0206005004
C   C28       1.0  0.57020  0.29940  0.24040  1.0000 -0.0206005004
C   C29       1.0  0.50000  0.59580  0.82560  1.0000 -0.1401555407
C   C30       1.0  0.50000  0.40420  0.17440  1.0000 -0.1401555407
C   C31       1.0  0.29010  0.80470  0.78400  1.0000 0.639246164
C   C32       1.0  0.70990  0.19530  0.21600  1.0000 0.639246164
N   N1        1.0  0.08900  0.52580  0.88580  1.0000 -0.588129701
N   N2        1.0  0.91100  0.47420  0.11420  1.0000 -0.588129701
N   N3        1.0  0.67840  0.62600  0.55720  1.0000 -0.588129701
N   N4        1.0  0.32160  0.37400  0.44280  1.0000 -0.588129701
O   O1        1.0  0.93970  0.07020  0.69330  1.0000 -0.6108549404
O   O2        1.0  0.06030  0.92980  0.30670  1.0000 -0.6108549404
O   O3        1.0  0.26460  0.09220  0.54690  1.0000 -0.6220147031
O   O4        1.0  0.73540  0.90780  0.45310  1.0000 -0.6220147031
O   O5        1.0  0.14500  0.19470  0.71420  1.0000 -0.5606696921
O   O6        1.0  0.85500  0.80530  0.28580  1.0000 -0.5606696921
O   O7        1.0  0.03790  0.32300  0.59700  1.0000 -0.5987497586
O   O8        1.0  0.96210  0.67700  0.40300  1.0000 -0.5987497586
O   O9        1.0  0.03230  0.81600  0.50030  1.0000 -0.581441583
O   O10       1.0  0.96770  0.18400  0.49970  1.0000 -0.581441583
O   O11       1.0  0.10370  0.89090  0.58640  1.0000 -0.6108549404
O   O12       1.0  0.89630  0.10910  0.41360  1.0000 -0.6108549404
O   O13       1.0  0.99590  0.24480  0.98530  1.0000 -0.6857953685
O   O14       1.0  0.00410  0.75520  0.01470  1.0000 -0.6857953685
O   O15       1.0  0.71110  0.09590  0.02320  1.0000 -0.6530187743
O   O16       1.0  0.28890  0.90410  0.97680  1.0000 -0.6530187743
O   O17       1.0  0.67680  0.39150  0.95270  1.0000 -0.5606696921
O   O18       1.0  0.32320  0.60850  0.04730  1.0000 -0.5606696921
O   O19       1.0  0.80170  0.29120  0.85090  1.0000 -0.5691951531
O   O20       1.0  0.19830  0.70880  0.14910  1.0000 -0.5691951531
O   O21       1.0  0.22450  0.77840  0.86110  1.0000 -0.5987497586
O   O22       1.0  0.77550  0.22160  0.13890  1.0000 -0.5987497586
O   O23       1.0  0.24370  0.90910  0.72300  1.0000 -0.6220147031
O   O24       1.0  0.75630  0.09090  0.27700  1.0000 -0.6220147031
O   O25       1.0  0.00230  0.96970  0.08640  1.0000 -0.7425557393
O   O26       1.0  0.99770  0.03030  0.91360  1.0000 -0.7425557393
