# DDEC6 charges by PACMAN v1.1 (https://github.com/mtap-research/PACMAN-charge/)
data_2015[CoCe][nan]3[FSR]2
_chemical_formula_sum              "Ce4 Co4 H72 C144 N24 O48"
_cell_length_a       22.9119
_cell_length_b       21.5749
_cell_length_c       18.2682
_cell_angle_alpha    69.6403
_cell_angle_beta     61.9843
_cell_angle_gamma    48.3753

_symmetry_space_group_name_H-M    "P 1"
_symmetry_Int_Tables_number       1

loop_
  _symmetry_equiv_pos_as_xyz
  'x, y, z'

loop_
  _atom_site_type_symbol
  _atom_site_label
  _atom_site_symmetry_multiplicity
  _atom_site_fract_x
  _atom_site_fract_y
  _atom_site_fract_z
  _atom_site_occupancy
  _atom_site_charge
Ce  Ce1       1.0  0.02288  0.47712  0.47712  1.0000 2.0049219042
Ce  Ce2       1.0  0.47712  0.02288  0.02288  1.0000 2.0049219042
Ce  Ce3       1.0  0.22712  0.77288  0.77288  1.0000 2.0049219042
Ce  Ce4       1.0  0.77288  0.22712  0.22712  1.0000 2.0049219042
Co  Co1       1.0  0.51717  0.98283  0.51717  1.0000 0.4831309304
Co  Co2       1.0  0.98283  0.51717  0.98283  1.0000 0.4831309304
Co  Co3       1.0  0.73283  0.26717  0.73283  1.0000 0.4831309304
Co  Co4       1.0  0.26717  0.73283  0.26717  1.0000 0.4831309304
H   H1        1.0  0.58030  0.80310  0.57550  1.0000 0.1104414647
H   H2        1.0  0.80310  0.58030  0.04110  1.0000 0.1104414647
H   H3        1.0  0.04110  0.57550  0.80310  1.0000 0.1104414647
H   H4        1.0  0.57550  0.04110  0.58030  1.0000 0.1104414647
H   H5        1.0  0.66970  0.44690  0.67450  1.0000 0.1104414647
H   H6        1.0  0.44690  0.66970  0.20890  1.0000 0.1104414647
H   H7        1.0  0.20890  0.67450  0.44690  1.0000 0.1104414647
H   H8        1.0  0.67450  0.20890  0.66970  1.0000 0.1104414647
H   H9        1.0  0.71490  0.67170  0.57130  1.0000 0.1493922094
H   H10       1.0  0.67170  0.71490  0.04210  1.0000 0.1493922094
H   H11       1.0  0.04210  0.57130  0.67170  1.0000 0.1493922094
H   H12       1.0  0.57130  0.04210  0.71490  1.0000 0.1493922094
H   H13       1.0  0.53510  0.57830  0.67870  1.0000 0.1493922094
H   H14       1.0  0.57830  0.53510  0.20790  1.0000 0.1493922094
H   H15       1.0  0.20790  0.67870  0.57830  1.0000 0.1493922094
H   H16       1.0  0.67870  0.20790  0.53510  1.0000 0.1493922094
H   H17       1.0  0.81870  0.79670  0.43730  1.0000 0.1629763306
H   H18       1.0  0.79670  0.81870  0.94730  1.0000 0.1629763306
H   H19       1.0  0.94730  0.43730  0.79670  1.0000 0.1629763306
H   H20       1.0  0.43730  0.94730  0.81870  1.0000 0.1629763306
H   H21       1.0  0.43130  0.45330  0.81270  1.0000 0.1629763306
H   H22       1.0  0.45330  0.43130  0.30270  1.0000 0.1629763306
H   H23       1.0  0.30270  0.81270  0.45330  1.0000 0.1629763306
H   H24       1.0  0.81270  0.30270  0.43130  1.0000 0.1629763306
H   H25       1.0  0.78860  0.91640  0.36740  1.0000 0.1493922094
H   H26       1.0  0.91640  0.78860  0.92760  1.0000 0.1493922094
H   H27       1.0  0.92760  0.36740  0.91640  1.0000 0.1493922094
H   H28       1.0  0.36740  0.92760  0.78860  1.0000 0.1493922094
H   H29       1.0  0.46140  0.33360  0.88260  1.0000 0.1493922094
H   H30       1.0  0.33360  0.46140  0.32240  1.0000 0.1493922094
H   H31       1.0  0.32240  0.88260  0.33360  1.0000 0.1493922094
H   H32       1.0  0.88260  0.32240  0.46140  1.0000 0.1493922094
H   H33       1.0  0.60520  0.16120  0.34200  1.0000 0.1629763306
H   H34       1.0  0.16120  0.60520  0.89160  1.0000 0.1629763306
H   H35       1.0  0.89160  0.34200  0.16120  1.0000 0.1629763306
H   H36       1.0  0.34200  0.89160  0.60520  1.0000 0.1629763306
H   H37       1.0  0.64480  0.08880  0.90800  1.0000 0.1629763306
H   H38       1.0  0.08880  0.64480  0.35840  1.0000 0.1629763306
H   H39       1.0  0.35840  0.90800  0.08880  1.0000 0.1629763306
H   H40       1.0  0.90800  0.35840  0.64480  1.0000 0.1629763306
H   H41       1.0  0.50780  0.13660  0.42780  1.0000 0.1104414647
H   H42       1.0  0.13660  0.50780  0.92780  1.0000 0.1104414647
H   H43       1.0  0.92780  0.42780  0.13660  1.0000 0.1104414647
H   H44       1.0  0.42780  0.92780  0.50780  1.0000 0.1104414647
H   H45       1.0  0.74220  0.11340  0.82220  1.0000 0.1104414647
H   H46       1.0  0.11340  0.74220  0.32220  1.0000 0.1104414647
H   H47       1.0  0.32220  0.82220  0.11340  1.0000 0.1104414647
H   H48       1.0  0.82220  0.32220  0.74220  1.0000 0.1104414647
H   H49       1.0  0.61860  0.86120  0.38240  1.0000 0.1104414647
H   H50       1.0  0.86120  0.61860  0.13780  1.0000 0.1104414647
H   H51       1.0  0.13780  0.38240  0.86120  1.0000 0.1104414647
H   H52       1.0  0.38240  0.13780  0.61860  1.0000 0.1104414647
H   H53       1.0  0.63140  0.38880  0.86760  1.0000 0.1104414647
H   H54       1.0  0.38880  0.63140  0.11220  1.0000 0.1104414647
H   H55       1.0  0.11220  0.86760  0.38880  1.0000 0.1104414647
H   H56       1.0  0.86760  0.11220  0.63140  1.0000 0.1104414647
H   H57       1.0  0.60850  0.86730  0.25950  1.0000 0.1493922094
H   H58       1.0  0.86730  0.60850  0.26470  1.0000 0.1493922094
H   H59       1.0  0.26470  0.25950  0.86730  1.0000 0.1493922094
H   H60       1.0  0.25950  0.26470  0.60850  1.0000 0.1493922094
H   H61       1.0  0.64150  0.38270  0.99050  1.0000 0.1493922094
H   H62       1.0  0.38270  0.64150  0.98530  1.0000 0.1493922094
H   H63       1.0  0.98530  0.99050  0.38270  1.0000 0.1493922094
H   H64       1.0  0.99050  0.98530  0.64150  1.0000 0.1493922094
H   H65       1.0  0.39780  0.10360  0.30280  1.0000 0.1629763306
H   H66       1.0  0.10360  0.39780  0.19580  1.0000 0.1629763306
H   H67       1.0  0.19580  0.30280  0.10360  1.0000 0.1629763306
H   H68       1.0  0.30280  0.19580  0.39780  1.0000 0.1629763306
H   H69       1.0  0.85220  0.14640  0.94720  1.0000 0.1629763306
H   H70       1.0  0.14640  0.85220  0.05420  1.0000 0.1629763306
H   H71       1.0  0.05420  0.94720  0.14640  1.0000 0.1629763306
H   H72       1.0  0.94720  0.05420  0.85220  1.0000 0.1629763306
C   C1        1.0  0.63027  0.80247  0.54953  1.0000 0.0496086141
C   C2        1.0  0.80247  0.63027  0.01773  1.0000 0.0496086141
C   C3        1.0  0.01773  0.54953  0.80247  1.0000 0.0496086141
C   C4        1.0  0.54953  0.01773  0.63027  1.0000 0.0496086141
C   C5        1.0  0.61973  0.44753  0.70047  1.0000 0.0496086141
C   C6        1.0  0.44753  0.61973  0.23227  1.0000 0.0496086141
C   C7        1.0  0.23227  0.70047  0.44753  1.0000 0.0496086141
C   C8        1.0  0.70047  0.23227  0.61973  1.0000 0.0496086141
C   C9        1.0  0.70749  0.72749  0.54591  1.0000 -0.1392788156
C   C10       1.0  0.72749  0.70749  0.01911  1.0000 -0.1392788156
C   C11       1.0  0.01911  0.54591  0.72749  1.0000 -0.1392788156
C   C12       1.0  0.54591  0.01911  0.70749  1.0000 -0.1392788156
C   C13       1.0  0.54251  0.52251  0.70409  1.0000 -0.1392788156
C   C14       1.0  0.52251  0.54251  0.23089  1.0000 -0.1392788156
C   C15       1.0  0.23089  0.70409  0.52251  1.0000 -0.1392788156
C   C16       1.0  0.70409  0.23089  0.54251  1.0000 -0.1392788156
C   C17       1.0  0.77709  0.72533  0.50507  1.0000 0.0689092236
C   C18       1.0  0.72533  0.77709  0.99251  1.0000 0.0689092236
C   C19       1.0  0.99251  0.50507  0.72533  1.0000 0.0689092236
C   C20       1.0  0.50507  0.99251  0.77709  1.0000 0.0689092236
C   C21       1.0  0.47291  0.52467  0.74493  1.0000 0.0689092236
C   C22       1.0  0.52467  0.47291  0.25749  1.0000 0.0689092236
C   C23       1.0  0.25749  0.74493  0.52467  1.0000 0.0689092236
C   C24       1.0  0.74493  0.25749  0.47291  1.0000 0.0689092236
C   C25       1.0  0.76769  0.79829  0.46771  1.0000 -0.1696962775
C   C26       1.0  0.79829  0.76769  0.96631  1.0000 -0.1696962775
C   C27       1.0  0.96631  0.46771  0.79829  1.0000 -0.1696962775
C   C28       1.0  0.46771  0.96631  0.76769  1.0000 -0.1696962775
C   C29       1.0  0.48231  0.45171  0.78229  1.0000 -0.1696962775
C   C30       1.0  0.45171  0.48231  0.28369  1.0000 -0.1696962775
C   C31       1.0  0.28369  0.78229  0.45171  1.0000 -0.1696962775
C   C32       1.0  0.78229  0.28369  0.48231  1.0000 -0.1696962775
C   C33       1.0  0.68885  0.87115  0.47165  1.0000 0.1493922094
C   C34       1.0  0.87115  0.68885  0.96835  1.0000 0.1493922094
C   C35       1.0  0.96835  0.47165  0.87115  1.0000 0.1493922094
C   C36       1.0  0.47165  0.96835  0.68885  1.0000 0.1493922094
C   C37       1.0  0.56115  0.37885  0.77835  1.0000 0.1493922094
C   C38       1.0  0.37885  0.56115  0.28165  1.0000 0.1493922094
C   C39       1.0  0.28165  0.77835  0.37885  1.0000 0.1493922094
C   C40       1.0  0.77835  0.28165  0.56115  1.0000 0.1493922094
C   C41       1.0  0.67108  0.95112  0.43188  1.0000 0.1401510076
C   C42       1.0  0.95112  0.67108  0.94592  1.0000 0.1401510076
C   C43       1.0  0.94592  0.43188  0.95112  1.0000 0.1401510076
C   C44       1.0  0.43188  0.94592  0.67108  1.0000 0.1401510076
C   C45       1.0  0.57892  0.29888  0.81812  1.0000 0.1401510076
C   C46       1.0  0.29888  0.57892  0.30408  1.0000 0.1401510076
C   C47       1.0  0.30408  0.81812  0.29888  1.0000 0.1401510076
C   C48       1.0  0.81812  0.30408  0.57892  1.0000 0.1401510076
C   C49       1.0  0.73143  0.96203  0.37957  1.0000 -0.1696962775
C   C50       1.0  0.96203  0.73143  0.92697  1.0000 -0.1696962775
C   C51       1.0  0.92697  0.37957  0.96203  1.0000 -0.1696962775
C   C52       1.0  0.37957  0.92697  0.73143  1.0000 -0.1696962775
C   C53       1.0  0.51857  0.28797  0.87043  1.0000 -0.1696962775
C   C54       1.0  0.28797  0.51857  0.32303  1.0000 -0.1696962775
C   C55       1.0  0.32303  0.87043  0.28797  1.0000 -0.1696962775
C   C56       1.0  0.87043  0.32303  0.51857  1.0000 -0.1696962775
C   C57       1.0  0.70713  0.04053  0.34527  1.0000 0.0581478011
C   C58       1.0  0.04053  0.70713  0.90707  1.0000 0.0581478011
C   C59       1.0  0.90707  0.34527  0.04053  1.0000 0.0581478011
C   C60       1.0  0.34527  0.90707  0.70713  1.0000 0.0581478011
C   C61       1.0  0.54287  0.20947  0.90473  1.0000 0.0581478011
C   C62       1.0  0.20947  0.54287  0.34293  1.0000 0.0581478011
C   C63       1.0  0.34293  0.90473  0.20947  1.0000 0.0581478011
C   C64       1.0  0.90473  0.34293  0.54287  1.0000 0.0581478011
C   C65       1.0  0.62288  0.10668  0.36412  1.0000 -0.1392788156
C   C66       1.0  0.10668  0.62288  0.90632  1.0000 -0.1392788156
C   C67       1.0  0.90632  0.36412  0.10668  1.0000 -0.1392788156
C   C68       1.0  0.36412  0.90632  0.62288  1.0000 -0.1392788156
C   C69       1.0  0.62712  0.14332  0.88588  1.0000 -0.1392788156
C   C70       1.0  0.14332  0.62712  0.34368  1.0000 -0.1392788156
C   C71       1.0  0.34368  0.88588  0.14332  1.0000 -0.1392788156
C   C72       1.0  0.88588  0.34368  0.62712  1.0000 -0.1392788156
C   C73       1.0  0.56522  0.09172  0.41588  1.0000 0.0496086141
C   C74       1.0  0.09172  0.56522  0.92718  1.0000 0.0496086141
C   C75       1.0  0.92718  0.41588  0.09172  1.0000 0.0496086141
C   C76       1.0  0.41588  0.92718  0.56522  1.0000 0.0496086141
C   C77       1.0  0.68478  0.15828  0.83412  1.0000 0.0496086141
C   C78       1.0  0.15828  0.68478  0.32282  1.0000 0.0496086141
C   C79       1.0  0.32282  0.83412  0.15828  1.0000 0.0496086141
C   C80       1.0  0.83412  0.32282  0.68478  1.0000 0.0496086141
C   C81       1.0  0.86287  0.64451  0.50049  1.0000 0.5518030435
C   C82       1.0  0.64451  0.86287  0.99213  1.0000 0.5518030435
C   C83       1.0  0.99213  0.50049  0.64451  1.0000 0.5518030435
C   C84       1.0  0.50049  0.99213  0.86287  1.0000 0.5518030435
C   C85       1.0  0.38713  0.60549  0.74951  1.0000 0.5518030435
C   C86       1.0  0.60549  0.38713  0.25787  1.0000 0.5518030435
C   C87       1.0  0.25787  0.74951  0.60549  1.0000 0.5518030435
C   C88       1.0  0.74951  0.25787  0.38713  1.0000 0.5518030435
C   C89       1.0  0.77216  0.05456  0.28544  1.0000 0.5711710066
C   C90       1.0  0.05456  0.77216  0.88784  1.0000 0.5711710066
C   C91       1.0  0.88784  0.28544  0.05456  1.0000 0.5711710066
C   C92       1.0  0.28544  0.88784  0.77216  1.0000 0.5711710066
C   C93       1.0  0.47784  0.19544  0.96456  1.0000 0.5711710066
C   C94       1.0  0.19544  0.47784  0.36216  1.0000 0.5711710066
C   C95       1.0  0.36216  0.96456  0.19544  1.0000 0.5711710066
C   C96       1.0  0.96456  0.36216  0.47784  1.0000 0.5711710066
C   C97       1.0  0.57302  0.91062  0.36638  1.0000 0.0496086141
C   C98       1.0  0.91062  0.57302  0.14998  1.0000 0.0496086141
C   C99       1.0  0.14998  0.36638  0.91062  1.0000 0.0496086141
C   C100      1.0  0.36638  0.14998  0.57302  1.0000 0.0496086141
C   C101      1.0  0.67698  0.33938  0.88362  1.0000 0.0496086141
C   C102      1.0  0.33938  0.67698  0.10002  1.0000 0.0496086141
C   C103      1.0  0.10002  0.88362  0.33938  1.0000 0.0496086141
C   C104      1.0  0.88362  0.10002  0.67698  1.0000 0.0496086141
C   C105      1.0  0.56765  0.91405  0.29295  1.0000 -0.1392788156
C   C106      1.0  0.91405  0.56765  0.22535  1.0000 -0.1392788156
C   C107      1.0  0.22535  0.29295  0.91405  1.0000 -0.1392788156
C   C108      1.0  0.29295  0.22535  0.56765  1.0000 -0.1392788156
C   C109      1.0  0.68235  0.33595  0.95705  1.0000 -0.1392788156
C   C110      1.0  0.33595  0.68235  0.02465  1.0000 -0.1392788156
C   C111      1.0  0.02465  0.95705  0.33595  1.0000 -0.1392788156
C   C112      1.0  0.95705  0.02465  0.68235  1.0000 -0.1392788156
C   C113      1.0  0.50245  0.98605  0.26795  1.0000 0.0794522422
C   C114      1.0  0.98605  0.50245  0.24355  1.0000 0.0794522422
C   C115      1.0  0.24355  0.26795  0.98605  1.0000 0.0794522422
C   C116      1.0  0.26795  0.24355  0.50245  1.0000 0.0794522422
C   C117      1.0  0.74755  0.26395  0.98205  1.0000 0.0794522422
C   C118      1.0  0.26395  0.74755  0.00645  1.0000 0.0794522422
C   C119      1.0  0.00645  0.98205  0.26395  1.0000 0.0794522422
C   C120      1.0  0.98205  0.00645  0.74755  1.0000 0.0794522422
C   C121      1.0  0.44287  0.05327  0.31873  1.0000 -0.1568966299
C   C122      1.0  0.05327  0.44287  0.18513  1.0000 -0.1568966299
C   C123      1.0  0.18513  0.31873  0.05327  1.0000 -0.1568966299
C   C124      1.0  0.31873  0.18513  0.44287  1.0000 -0.1568966299
C   C125      1.0  0.80713  0.19673  0.93127  1.0000 -0.1568966299
C   C126      1.0  0.19673  0.80713  0.06487  1.0000 -0.1568966299
C   C127      1.0  0.06487  0.93127  0.19673  1.0000 -0.1568966299
C   C128      1.0  0.93127  0.06487  0.80713  1.0000 -0.1568966299
C   C129      1.0  0.45082  0.04512  0.39268  1.0000 0.1401510076
C   C130      1.0  0.04512  0.45082  0.11138  1.0000 0.1401510076
C   C131      1.0  0.11138  0.39268  0.04512  1.0000 0.1401510076
C   C132      1.0  0.39268  0.11138  0.45082  1.0000 0.1401510076
C   C133      1.0  0.79918  0.20488  0.85732  1.0000 0.1401510076
C   C134      1.0  0.20488  0.79918  0.13862  1.0000 0.1401510076
C   C135      1.0  0.13862  0.85732  0.20488  1.0000 0.1401510076
C   C136      1.0  0.85732  0.13862  0.79918  1.0000 0.1401510076
C   C137      1.0  0.49673  0.99493  0.18507  1.0000 0.5437385724
C   C138      1.0  0.99493  0.49673  0.32327  1.0000 0.5437385724
C   C139      1.0  0.32327  0.18507  0.99493  1.0000 0.5437385724
C   C140      1.0  0.18507  0.32327  0.49673  1.0000 0.5437385724
C   C141      1.0  0.75327  0.25507  0.06493  1.0000 0.5437385724
C   C142      1.0  0.25507  0.75327  0.92673  1.0000 0.5437385724
C   C143      1.0  0.92673  0.06493  0.25507  1.0000 0.5437385724
C   C144      1.0  0.06493  0.92673  0.75327  1.0000 0.5437385724
N   N1        1.0  0.62070  0.87294  0.51366  1.0000 -0.204364711
N   N2        1.0  0.87294  0.62070  0.99270  1.0000 -0.204364711
N   N3        1.0  0.99270  0.51366  0.87294  1.0000 -0.204364711
N   N4        1.0  0.51366  0.99270  0.62070  1.0000 -0.204364711
N   N5        1.0  0.62930  0.37706  0.73634  1.0000 -0.204364711
N   N6        1.0  0.37706  0.62930  0.25730  1.0000 -0.204364711
N   N7        1.0  0.25730  0.73634  0.37706  1.0000 -0.204364711
N   N8        1.0  0.73634  0.25730  0.62930  1.0000 -0.204364711
N   N9        1.0  0.58833  0.01583  0.44937  1.0000 -0.2120696051
N   N10       1.0  0.01583  0.58833  0.94647  1.0000 -0.2120696051
N   N11       1.0  0.94647  0.44937  0.01583  1.0000 -0.2120696051
N   N12       1.0  0.44937  0.94647  0.58833  1.0000 -0.2120696051
N   N13       1.0  0.66167  0.23417  0.80063  1.0000 -0.2120696051
N   N14       1.0  0.23417  0.66167  0.30353  1.0000 -0.2120696051
N   N15       1.0  0.30353  0.80063  0.23417  1.0000 -0.2120696051
N   N16       1.0  0.80063  0.30353  0.66167  1.0000 -0.2120696051
N   N17       1.0  0.51629  0.97453  0.41611  1.0000 -0.2120696051
N   N18       1.0  0.97453  0.51629  0.09307  1.0000 -0.2120696051
N   N19       1.0  0.09307  0.41611  0.97453  1.0000 -0.2120696051
N   N20       1.0  0.41611  0.09307  0.51629  1.0000 -0.2120696051
N   N21       1.0  0.73371  0.27547  0.83389  1.0000 -0.2120696051
N   N22       1.0  0.27547  0.73371  0.15693  1.0000 -0.2120696051
N   N23       1.0  0.15693  0.83389  0.27547  1.0000 -0.2120696051
N   N24       1.0  0.83389  0.15693  0.73371  1.0000 -0.2120696051
O   O1        1.0  0.86641  0.58507  0.54851  1.0000 -0.569412747
O   O2        1.0  0.58507  0.86641  0.00001  1.0000 -0.569412747
O   O3        1.0  0.00001  0.54851  0.58507  1.0000 -0.569412747
O   O4        1.0  0.54851  0.00001  0.86641  1.0000 -0.569412747
O   O5        1.0  0.38359  0.66493  0.70149  1.0000 -0.569412747
O   O6        1.0  0.66493  0.38359  0.24999  1.0000 -0.569412747
O   O7        1.0  0.24999  0.70149  0.66493  1.0000 -0.569412747
O   O8        1.0  0.70149  0.24999  0.38359  1.0000 -0.569412747
O   O9        1.0  0.92563  0.64045  0.44913  1.0000 -0.5817314476
O   O10       1.0  0.64045  0.92563  0.98479  1.0000 -0.5817314476
O   O11       1.0  0.98479  0.44913  0.64045  1.0000 -0.5817314476
O   O12       1.0  0.44913  0.98479  0.92563  1.0000 -0.5817314476
O   O13       1.0  0.32437  0.60955  0.80087  1.0000 -0.5817314476
O   O14       1.0  0.60955  0.32437  0.26521  1.0000 -0.5817314476
O   O15       1.0  0.26521  0.80087  0.60955  1.0000 -0.5817314476
O   O16       1.0  0.80087  0.26521  0.32437  1.0000 -0.5817314476
O   O17       1.0  0.84521  0.99241  0.25979  1.0000 -0.5309310048
O   O18       1.0  0.99241  0.84521  0.90259  1.0000 -0.5309310048
O   O19       1.0  0.90259  0.25979  0.99241  1.0000 -0.5309310048
O   O20       1.0  0.25979  0.90259  0.84521  1.0000 -0.5309310048
O   O21       1.0  0.40479  0.25759  0.99021  1.0000 -0.5309310048
O   O22       1.0  0.25759  0.40479  0.34741  1.0000 -0.5309310048
O   O23       1.0  0.34741  0.99021  0.25759  1.0000 -0.5309310048
O   O24       1.0  0.99021  0.34741  0.40479  1.0000 -0.5309310048
O   O25       1.0  0.74400  0.12918  0.26722  1.0000 -0.6009394914
O   O26       1.0  0.12918  0.74400  0.85960  1.0000 -0.6009394914
O   O27       1.0  0.85960  0.26722  0.12918  1.0000 -0.6009394914
O   O28       1.0  0.26722  0.85960  0.74400  1.0000 -0.6009394914
O   O29       1.0  0.50600  0.12082  0.98278  1.0000 -0.6009394914
O   O30       1.0  0.12082  0.50600  0.39040  1.0000 -0.6009394914
O   O31       1.0  0.39040  0.98278  0.12082  1.0000 -0.6009394914
O   O32       1.0  0.98278  0.39040  0.50600  1.0000 -0.6009394914
O   O33       1.0  0.53423  0.92917  0.15243  1.0000 -0.5899688094
O   O34       1.0  0.92917  0.53423  0.38417  1.0000 -0.5899688094
O   O35       1.0  0.38417  0.15243  0.92917  1.0000 -0.5899688094
O   O36       1.0  0.15243  0.38417  0.53423  1.0000 -0.5899688094
O   O37       1.0  0.71577  0.32083  0.09757  1.0000 -0.5899688094
O   O38       1.0  0.32083  0.71577  0.86583  1.0000 -0.5899688094
O   O39       1.0  0.86583  0.09757  0.32083  1.0000 -0.5899688094
O   O40       1.0  0.09757  0.86583  0.71577  1.0000 -0.5899688094
O   O41       1.0  0.45442  0.06576  0.15444  1.0000 -0.5485853344
O   O42       1.0  0.06576  0.45442  0.32538  1.0000 -0.5485853344
O   O43       1.0  0.32538  0.15444  0.06576  1.0000 -0.5485853344
O   O44       1.0  0.15444  0.32538  0.45442  1.0000 -0.5485853344
O   O45       1.0  0.79558  0.18424  0.09556  1.0000 -0.5485853344
O   O46       1.0  0.18424  0.79558  0.92462  1.0000 -0.5485853344
O   O47       1.0  0.92462  0.09556  0.18424  1.0000 -0.5485853344
O   O48       1.0  0.09556  0.92462  0.79558  1.0000 -0.5485853344
