# DDEC6 charges by PACMAN v1.1 (https://github.com/mtap-research/PACMAN-charge/)
data_2015[Cu][nan]3[FSR]12
_chemical_formula_sum              "Cu8 H84 C88 N20 O40"
_cell_length_a       16.2594
_cell_length_b       16.2594
_cell_length_c       18.364
_cell_angle_alpha    79.2335
_cell_angle_beta     100.766
_cell_angle_gamma    89.4169

_symmetry_space_group_name_H-M    "P 1"
_symmetry_Int_Tables_number       1

loop_
  _symmetry_equiv_pos_as_xyz
  'x, y, z'

loop_
  _atom_site_type_symbol
  _atom_site_label
  _atom_site_symmetry_multiplicity
  _atom_site_fract_x
  _atom_site_fract_y
  _atom_site_fract_z
  _atom_site_occupancy
  _atom_site_charge
Cu  Cu1       1.0  0.12924  0.42738  0.44209  1.0000 0.8483281873
Cu  Cu2       1.0  0.42738  0.12924  0.05791  1.0000 0.8483281873
Cu  Cu3       1.0  0.87076  0.57262  0.55791  1.0000 0.8483281873
Cu  Cu4       1.0  0.57262  0.87076  0.94209  1.0000 0.8483281873
Cu  Cu5       1.0  0.97538  0.41660  0.53921  1.0000 0.8630980693
Cu  Cu6       1.0  0.41660  0.97538  0.96079  1.0000 0.8630980693
Cu  Cu7       1.0  0.02462  0.58340  0.46079  1.0000 0.8630980693
Cu  Cu8       1.0  0.58340  0.02462  0.03921  1.0000 0.8630980693
H   H1        1.0  0.88260  0.52000  0.43920  1.0000 0.3728782378
H   H2        1.0  0.52000  0.88260  0.06080  1.0000 0.3728782378
H   H3        1.0  0.11740  0.48000  0.56080  1.0000 0.3728782378
H   H4        1.0  0.48000  0.11740  0.93920  1.0000 0.3728782378
H   H5        1.0  0.92920  0.37300  0.23540  1.0000 0.1014201139
H   H6        1.0  0.37300  0.92920  0.26460  1.0000 0.1014201139
H   H7        1.0  0.07080  0.62700  0.76460  1.0000 0.1014201139
H   H8        1.0  0.62700  0.07080  0.73540  1.0000 0.1014201139
H   H9        1.0  0.93830  0.47030  0.22600  1.0000 0.1014201139
H   H10       1.0  0.47030  0.93830  0.27400  1.0000 0.1014201139
H   H11       1.0  0.06170  0.52970  0.77400  1.0000 0.1014201139
H   H12       1.0  0.52970  0.06170  0.72600  1.0000 0.1014201139
H   H13       1.0  0.85410  0.37450  0.33240  1.0000 0.1511307252
H   H14       1.0  0.37450  0.85410  0.16760  1.0000 0.1511307252
H   H15       1.0  0.14590  0.62550  0.66760  1.0000 0.1511307252
H   H16       1.0  0.62550  0.14590  0.83240  1.0000 0.1511307252
H   H17       1.0  0.85920  0.47220  0.32180  1.0000 0.1511307252
H   H18       1.0  0.47220  0.85920  0.17820  1.0000 0.1511307252
H   H19       1.0  0.14080  0.52780  0.67820  1.0000 0.1511307252
H   H20       1.0  0.52780  0.14080  0.82180  1.0000 0.1511307252
H   H21       1.0  0.73090  0.64910  0.05810  1.0000 0.1014201139
H   H22       1.0  0.64910  0.73090  0.44190  1.0000 0.1014201139
H   H23       1.0  0.26910  0.35090  0.94190  1.0000 0.1014201139
H   H24       1.0  0.35090  0.26910  0.55810  1.0000 0.1014201139
H   H25       1.0  0.64710  0.61350  0.02150  1.0000 0.1014201139
H   H26       1.0  0.61350  0.64710  0.47850  1.0000 0.1014201139
H   H27       1.0  0.35290  0.38650  0.97850  1.0000 0.1014201139
H   H28       1.0  0.38650  0.35290  0.52150  1.0000 0.1014201139
H   H29       1.0  0.59350  0.61990  0.13200  1.0000 0.1412592076
H   H30       1.0  0.61990  0.59350  0.36800  1.0000 0.1412592076
H   H31       1.0  0.40650  0.38010  0.86800  1.0000 0.1412592076
H   H32       1.0  0.38010  0.40650  0.63200  1.0000 0.1412592076
H   H33       1.0  0.67570  0.66130  0.16390  1.0000 0.1296384526
H   H34       1.0  0.66130  0.67570  0.33610  1.0000 0.1296384526
H   H35       1.0  0.32430  0.33870  0.83610  1.0000 0.1296384526
H   H36       1.0  0.33870  0.32430  0.66390  1.0000 0.1296384526
H   H37       1.0  0.64700  0.27840  0.17750  1.0000 0.1014201139
H   H38       1.0  0.27840  0.64700  0.32250  1.0000 0.1014201139
H   H39       1.0  0.35300  0.72160  0.82250  1.0000 0.1014201139
H   H40       1.0  0.72160  0.35300  0.67750  1.0000 0.1014201139
H   H41       1.0  0.58310  0.33550  0.11270  1.0000 0.1014201139
H   H42       1.0  0.33550  0.58310  0.38730  1.0000 0.1014201139
H   H43       1.0  0.41690  0.66450  0.88730  1.0000 0.1014201139
H   H44       1.0  0.66450  0.41690  0.61270  1.0000 0.1014201139
H   H45       1.0  0.65160  0.29900  0.02190  1.0000 0.1511307252
H   H46       1.0  0.29900  0.65160  0.47810  1.0000 0.1511307252
H   H47       1.0  0.34840  0.70100  0.97810  1.0000 0.1511307252
H   H48       1.0  0.70100  0.34840  0.52190  1.0000 0.1511307252
H   H49       1.0  0.72160  0.24760  0.08500  1.0000 0.1412592076
H   H50       1.0  0.24760  0.72160  0.41500  1.0000 0.1412592076
H   H51       1.0  0.27840  0.75240  0.91500  1.0000 0.1412592076
H   H52       1.0  0.75240  0.27840  0.58500  1.0000 0.1412592076
H   H53       1.0  0.08460  0.29840  0.34370  1.0000 0.1218993954
H   H54       1.0  0.29840  0.08460  0.15630  1.0000 0.1218993954
H   H55       1.0  0.91540  0.70160  0.65630  1.0000 0.1218993954
H   H56       1.0  0.70160  0.91540  0.84370  1.0000 0.1218993954
H   H57       1.0  0.14560  0.23160  0.26740  1.0000 0.1412592076
H   H58       1.0  0.23160  0.14560  0.23260  1.0000 0.1412592076
H   H59       1.0  0.85440  0.76840  0.73260  1.0000 0.1412592076
H   H60       1.0  0.76840  0.85440  0.76740  1.0000 0.1412592076
H   H61       1.0  0.34660  0.36140  0.30700  1.0000 0.1412592076
H   H62       1.0  0.36140  0.34660  0.19300  1.0000 0.1412592076
H   H63       1.0  0.65340  0.63860  0.69300  1.0000 0.1412592076
H   H64       1.0  0.63860  0.65340  0.80700  1.0000 0.1412592076
H   H65       1.0  0.28320  0.42540  0.38440  1.0000 0.1296384526
H   H66       1.0  0.42540  0.28320  0.11560  1.0000 0.1296384526
H   H67       1.0  0.71680  0.57460  0.61560  1.0000 0.1296384526
H   H68       1.0  0.57460  0.71680  0.88440  1.0000 0.1296384526
H   H69       1.0  0.06570  0.25550  0.54610  1.0000 0.1218993954
H   H70       1.0  0.25550  0.06570  0.95390  1.0000 0.1218993954
H   H71       1.0  0.93430  0.74450  0.45390  1.0000 0.1218993954
H   H72       1.0  0.74450  0.93430  0.04610  1.0000 0.1218993954
H   H73       1.0  0.15800  0.16120  0.63140  1.0000 0.1412592076
H   H74       1.0  0.16120  0.15800  0.86860  1.0000 0.1412592076
H   H75       1.0  0.84200  0.83880  0.36860  1.0000 0.1412592076
H   H76       1.0  0.83880  0.84200  0.13140  1.0000 0.1412592076
H   H77       1.0  0.12480  0.28560  0.79080  1.0000 0.1412592076
H   H78       1.0  0.28560  0.12480  0.70920  1.0000 0.1412592076
H   H79       1.0  0.87520  0.71440  0.20920  1.0000 0.1412592076
H   H80       1.0  0.71440  0.87520  0.29080  1.0000 0.1412592076
H   H81       1.0  0.03900  0.38000  0.70170  1.0000 0.1296384526
H   H82       1.0  0.38000  0.03900  0.79830  1.0000 0.1296384526
H   H83       1.0  0.96100  0.62000  0.29830  1.0000 0.1296384526
H   H84       1.0  0.62000  0.96100  0.20170  1.0000 0.1296384526
C   C1        1.0  0.77360  0.37140  0.17880  1.0000 0.5378814928
C   C2        1.0  0.37140  0.77360  0.32120  1.0000 0.5378814928
C   C3        1.0  0.22640  0.62860  0.82120  1.0000 0.5378814928
C   C4        1.0  0.62860  0.22640  0.67880  1.0000 0.5378814928
C   C5        1.0  0.66313  0.46545  0.09690  1.0000 0.5378814928
C   C6        1.0  0.46545  0.66313  0.40310  1.0000 0.5378814928
C   C7        1.0  0.33687  0.53455  0.90310  1.0000 0.5378814928
C   C8        1.0  0.53455  0.33687  0.59690  1.0000 0.5378814928
C   C9        1.0  0.79333  0.51971  0.15290  1.0000 0.5378814928
C   C10       1.0  0.51971  0.79333  0.34710  1.0000 0.5378814928
C   C11       1.0  0.20667  0.48029  0.84710  1.0000 0.5378814928
C   C12       1.0  0.48029  0.20667  0.65290  1.0000 0.5378814928
C   C13       1.0  0.90210  0.42504  0.23900  1.0000 -0.0306988328
C   C14       1.0  0.42504  0.90210  0.26100  1.0000 -0.0306988328
C   C15       1.0  0.09790  0.57496  0.76100  1.0000 -0.0306988328
C   C16       1.0  0.57496  0.09790  0.73900  1.0000 -0.0306988328
C   C17       1.0  0.88879  0.42107  0.31920  1.0000 -0.3408312755
C   C18       1.0  0.42107  0.88879  0.18080  1.0000 -0.3453097798
C   C19       1.0  0.11121  0.57893  0.68080  1.0000 -0.3453097798
C   C20       1.0  0.57893  0.11121  0.81920  1.0000 -0.3408312755
C   C21       1.0  0.97007  0.41041  0.37510  1.0000 0.6205742053
C   C22       1.0  0.41041  0.97007  0.12490  1.0000 0.6205742053
C   C23       1.0  0.02993  0.58959  0.62490  1.0000 0.6205742053
C   C24       1.0  0.58959  0.02993  0.87510  1.0000 0.6205742053
C   C25       1.0  0.68409  0.61557  0.06900  1.0000 -0.0458263352
C   C26       1.0  0.61557  0.68409  0.43100  1.0000 -0.0458263352
C   C27       1.0  0.31591  0.38443  0.93100  1.0000 -0.0458263352
C   C28       1.0  0.38443  0.31591  0.56900  1.0000 -0.0458263352
C   C29       1.0  0.63731  0.65609  0.11790  1.0000 -0.3408312755
C   C30       1.0  0.65609  0.63731  0.38210  1.0000 -0.3408312755
C   C31       1.0  0.36269  0.34391  0.88210  1.0000 -0.3408312755
C   C32       1.0  0.34391  0.36269  0.61790  1.0000 -0.3408312755
C   C33       1.0  0.59831  0.74183  0.07920  1.0000 0.6205742053
C   C34       1.0  0.74183  0.59831  0.42080  1.0000 0.6205742053
C   C35       1.0  0.40169  0.25817  0.92080  1.0000 0.6205742053
C   C36       1.0  0.25817  0.40169  0.57920  1.0000 0.6205742053
C   C37       1.0  0.64104  0.31466  0.12830  1.0000 -0.0423844008
C   C38       1.0  0.31466  0.64104  0.37170  1.0000 -0.0423844008
C   C39       1.0  0.35896  0.68534  0.87170  1.0000 -0.0423844008
C   C40       1.0  0.68534  0.35896  0.62830  1.0000 -0.0423844008
C   C41       1.0  0.66245  0.26431  0.07200  1.0000 -0.3278114058
C   C42       1.0  0.26431  0.66245  0.42800  1.0000 -0.3278114058
C   C43       1.0  0.33755  0.73569  0.92800  1.0000 -0.3278114058
C   C44       1.0  0.73569  0.33755  0.57200  1.0000 -0.3278114058
C   C45       1.0  0.61105  0.18691  0.07200  1.0000 0.6379086815
C   C46       1.0  0.18691  0.61105  0.42800  1.0000 0.6379086815
C   C47       1.0  0.38895  0.81309  0.92800  1.0000 0.6379086815
C   C48       1.0  0.81309  0.38895  0.57200  1.0000 0.6379086815
C   C49       1.0  0.13830  0.31210  0.33670  1.0000 0.0921350442
C   C50       1.0  0.31210  0.13830  0.16330  1.0000 0.0921350442
C   C51       1.0  0.86170  0.68790  0.66330  1.0000 0.0921350442
C   C52       1.0  0.68790  0.86170  0.83670  1.0000 0.0921350442
C   C53       1.0  0.17460  0.27240  0.28970  1.0000 -0.1827256898
C   C54       1.0  0.27240  0.17460  0.21030  1.0000 -0.1827256898
C   C55       1.0  0.82540  0.72760  0.71030  1.0000 -0.1827256898
C   C56       1.0  0.72760  0.82540  0.78970  1.0000 -0.1827256898
C   C57       1.0  0.25100  0.29120  0.27530  1.0000 0.0921350442
C   C58       1.0  0.29120  0.25100  0.22470  1.0000 0.0921350442
C   C59       1.0  0.74900  0.70880  0.72470  1.0000 0.0921350442
C   C60       1.0  0.70880  0.74900  0.77530  1.0000 0.0921350442
C   C61       1.0  0.29250  0.34810  0.31300  1.0000 -0.1827256898
C   C62       1.0  0.34810  0.29250  0.18700  1.0000 -0.1827256898
C   C63       1.0  0.70750  0.65190  0.68700  1.0000 -0.1827256898
C   C64       1.0  0.65190  0.70750  0.81300  1.0000 -0.1827256898
C   C65       1.0  0.25420  0.38620  0.36000  1.0000 0.0921350442
C   C66       1.0  0.38620  0.25420  0.14000  1.0000 0.0921350442
C   C67       1.0  0.74580  0.61380  0.64000  1.0000 0.0921350442
C   C68       1.0  0.61380  0.74580  0.86000  1.0000 0.0921350442
C   C69       1.0  0.07854  0.26246  0.59610  1.0000 0.0921350442
C   C70       1.0  0.26246  0.07854  0.90390  1.0000 0.0921350442
C   C71       1.0  0.92146  0.73754  0.40390  1.0000 0.0921350442
C   C72       1.0  0.73754  0.92146  0.09610  1.0000 0.0921350442
C   C73       1.0  0.13343  0.20477  0.64740  1.0000 -0.1827256898
C   C74       1.0  0.20477  0.13343  0.85260  1.0000 -0.1827256898
C   C75       1.0  0.86657  0.79523  0.35260  1.0000 -0.1827256898
C   C76       1.0  0.79523  0.86657  0.14740  1.0000 -0.1827256898
C   C77       1.0  0.15182  0.21150  0.72250  1.0000 0.1054911755
C   C78       1.0  0.21150  0.15182  0.77750  1.0000 0.1014201139
C   C79       1.0  0.84818  0.78850  0.27750  1.0000 0.1054911755
C   C80       1.0  0.78850  0.84818  0.22250  1.0000 0.1054911755
C   C81       1.0  0.11451  0.27829  0.74090  1.0000 -0.1601779916
C   C82       1.0  0.27829  0.11451  0.75910  1.0000 -0.1601779916
C   C83       1.0  0.88549  0.72171  0.25910  1.0000 -0.1601779916
C   C84       1.0  0.72171  0.88549  0.24090  1.0000 -0.1601779916
C   C85       1.0  0.06227  0.33453  0.68720  1.0000 0.0921350442
C   C86       1.0  0.33453  0.06227  0.81280  1.0000 0.0921350442
C   C87       1.0  0.93773  0.66547  0.31280  1.0000 0.0921350442
C   C88       1.0  0.66547  0.93773  0.18720  1.0000 0.0921350442
N   N1        1.0  0.82077  0.43895  0.18577  1.0000 -0.2518057942
N   N2        1.0  0.43895  0.82077  0.31423  1.0000 -0.2518057942
N   N3        1.0  0.17923  0.56105  0.81423  1.0000 -0.2518057942
N   N4        1.0  0.56105  0.17923  0.68577  1.0000 -0.2518057942
N   N5        1.0  0.71568  0.52942  0.10714  1.0000 -0.2518057942
N   N6        1.0  0.52942  0.71568  0.39286  1.0000 -0.2518057942
N   N7        1.0  0.28432  0.47058  0.89286  1.0000 -0.2518057942
N   N8        1.0  0.47058  0.28432  0.60714  1.0000 -0.2518057942
N   N9        1.0  0.69557  0.38577  0.13408  1.0000 -0.2713456832
N   N10       1.0  0.38577  0.69557  0.36592  1.0000 -0.2713456832
N   N11       1.0  0.30443  0.61423  0.86592  1.0000 -0.2713456832
N   N12       1.0  0.61423  0.30443  0.63408  1.0000 -0.2713456832
N   N13       1.0  0.17649  0.36863  0.37204  1.0000 -0.2064890087
N   N14       1.0  0.36863  0.17649  0.12796  1.0000 -0.2064890087
N   N15       1.0  0.82351  0.63137  0.62796  1.0000 -0.2064890087
N   N16       1.0  0.63137  0.82351  0.87204  1.0000 -0.2064890087
N   N17       1.0  0.04317  0.32735  0.61500  1.0000 -0.2167076997
N   N18       1.0  0.32735  0.04317  0.88500  1.0000 -0.2167076997
N   N19       1.0  0.95683  0.67265  0.38500  1.0000 -0.2167076997
N   N20       1.0  0.67265  0.95683  0.11500  1.0000 -0.2167076997
O   O1        1.0  0.79916  0.30094  0.21113  1.0000 -0.470188719
O   O2        1.0  0.30094  0.79916  0.28887  1.0000 -0.470188719
O   O3        1.0  0.20084  0.69906  0.78887  1.0000 -0.470188719
O   O4        1.0  0.69906  0.20084  0.71113  1.0000 -0.470188719
O   O5        1.0  0.59315  0.47663  0.05806  1.0000 -0.470188719
O   O6        1.0  0.47663  0.59315  0.44194  1.0000 -0.470188719
O   O7        1.0  0.40685  0.52337  0.94194  1.0000 -0.470188719
O   O8        1.0  0.52337  0.40685  0.55806  1.0000 -0.470188719
O   O9        1.0  0.83532  0.57958  0.16311  1.0000 -0.4913052775
O   O10       1.0  0.57958  0.83532  0.33689  1.0000 -0.4913052775
O   O11       1.0  0.16468  0.42042  0.83689  1.0000 -0.4913052775
O   O12       1.0  0.42042  0.16468  0.66311  1.0000 -0.4913052775
O   O13       1.0  0.02624  0.46238  0.36390  1.0000 -0.5638383709
O   O14       1.0  0.46238  0.02624  0.13610  1.0000 -0.5638383709
O   O15       1.0  0.97376  0.53762  0.63610  1.0000 -0.5638383709
O   O16       1.0  0.53762  0.97376  0.86390  1.0000 -0.5638383709
O   O17       1.0  0.98012  0.35250  0.43195  1.0000 -0.6084960558
O   O18       1.0  0.35250  0.98012  0.06805  1.0000 -0.6084960558
O   O19       1.0  0.01988  0.64750  0.56805  1.0000 -0.6084960558
O   O20       1.0  0.64750  0.01988  0.93195  1.0000 -0.6084960558
O   O21       1.0  0.62328  0.77452  0.01953  1.0000 -0.5638383709
O   O22       1.0  0.77452  0.62328  0.48047  1.0000 -0.5638383709
O   O23       1.0  0.37672  0.22548  0.98047  1.0000 -0.5638383709
O   O24       1.0  0.22548  0.37672  0.51953  1.0000 -0.5638383709
O   O25       1.0  0.54581  0.77449  0.10741  1.0000 -0.549430088
O   O26       1.0  0.77449  0.54581  0.39259  1.0000 -0.549430088
O   O27       1.0  0.45419  0.22551  0.89259  1.0000 -0.549430088
O   O28       1.0  0.22551  0.45419  0.60741  1.0000 -0.549430088
O   O29       1.0  0.54609  0.18477  0.09694  1.0000 -0.5688073046
O   O30       1.0  0.18477  0.54609  0.40306  1.0000 -0.5688073046
O   O31       1.0  0.45391  0.81523  0.90306  1.0000 -0.5688073046
O   O32       1.0  0.81523  0.45391  0.59694  1.0000 -0.5688073046
O   O33       1.0  0.63934  0.12872  0.04554  1.0000 -0.5328015394
O   O34       1.0  0.12872  0.63934  0.45446  1.0000 -0.5328015394
O   O35       1.0  0.36066  0.87128  0.95446  1.0000 -0.5328015394
O   O36       1.0  0.87128  0.36066  0.54554  1.0000 -0.5328015394
O   O37       1.0  0.92312  0.52500  0.48474  1.0000 -0.8283106841
O   O38       1.0  0.52500  0.92312  0.01526  1.0000 -0.8283106841
O   O39       1.0  0.07688  0.47500  0.51526  1.0000 -0.8283106841
O   O40       1.0  0.47500  0.07688  0.98474  1.0000 -0.8283106841
