# DDEC6 charges by PACMAN v1.1 (https://github.com/mtap-research/PACMAN-charge/)
data_2015[Cd][lvt]3[FSR]1
_chemical_formula_sum              "Cd4 H40 C48 N32 O8"
_cell_length_a       13.5697
_cell_length_b       13.5697
_cell_length_c       13.5697
_cell_angle_alpha    100.436
_cell_angle_beta     100.436
_cell_angle_gamma    129.621

_symmetry_space_group_name_H-M    "P 1"
_symmetry_Int_Tables_number       1

loop_
  _symmetry_equiv_pos_as_xyz
  'x, y, z'

loop_
  _atom_site_type_symbol
  _atom_site_label
  _atom_site_symmetry_multiplicity
  _atom_site_fract_x
  _atom_site_fract_y
  _atom_site_fract_z
  _atom_site_occupancy
  _atom_site_charge
Cd  Cd1       1.0  0.62500  0.37500  0.75000  1.0000 0.8195228686
Cd  Cd2       1.0  0.62500  0.87500  0.25000  1.0000 0.8195228686
Cd  Cd3       1.0  0.12500  0.37500  0.75000  1.0000 0.8195228686
Cd  Cd4       1.0  0.62500  0.37500  0.25000  1.0000 0.8195228686
H   H1        1.0  0.90930  0.46960  0.72330  1.0000 0.1221558412
H   H2        1.0  0.74630  0.18600  0.27670  1.0000 0.1221558412
H   H3        1.0  0.43600  0.65930  0.93970  1.0000 0.1221558412
H   H4        1.0  0.71960  0.49630  0.06030  1.0000 0.1221558412
H   H5        1.0  0.34070  0.28040  0.77670  1.0000 0.1221558412
H   H6        1.0  0.50370  0.56400  0.22330  1.0000 0.1221558412
H   H7        1.0  0.81400  0.09070  0.56030  1.0000 0.1221558412
H   H8        1.0  0.53040  0.25370  0.43970  1.0000 0.1221558412
H   H9        1.0  0.78240  0.00190  0.85530  1.0000 0.1693062812
H   H10       1.0  0.14660  0.92710  0.14470  1.0000 0.1693062812
H   H11       1.0  0.17710  0.53240  0.28050  1.0000 0.1693062812
H   H12       1.0  0.25190  0.89660  0.71950  1.0000 0.1693062812
H   H13       1.0  0.46760  0.74810  0.64470  1.0000 0.1594677992
H   H14       1.0  0.10340  0.82290  0.35530  1.0000 0.1693062812
H   H15       1.0  0.07290  0.21760  0.21950  1.0000 0.1693062812
H   H16       1.0  0.99810  0.85340  0.78050  1.0000 0.1693062812
H   H17       1.0  0.49140  0.89300  0.84820  1.0000 0.1594677992
H   H18       1.0  0.04480  0.64320  0.15180  1.0000 0.1594677992
H   H19       1.0  0.89320  0.24140  0.09840  1.0000 0.1594677992
H   H20       1.0  0.14300  0.79480  0.90160  1.0000 0.1594677992
H   H21       1.0  0.75860  0.85700  0.65180  1.0000 0.1594677992
H   H22       1.0  0.20520  0.10680  0.34820  1.0000 0.1594677992
H   H23       1.0  0.35680  0.50860  0.40160  1.0000 0.1594677992
H   H24       1.0  0.10700  0.95520  0.59840  1.0000 0.1594677992
H   H25       1.0  0.61320  0.92080  0.92820  1.0000 0.1532680501
H   H26       1.0  0.99260  0.68500  0.07180  1.0000 0.1532680501
H   H27       1.0  0.93500  0.36320  0.19240  1.0000 0.1532680501
H   H28       1.0  0.17080  0.74260  0.80760  1.0000 0.1532680501
H   H29       1.0  0.63680  0.82920  0.57180  1.0000 0.1532680501
H   H30       1.0  0.25740  0.06500  0.42820  1.0000 0.1532680501
H   H31       1.0  0.31500  0.38680  0.30760  1.0000 0.1532680501
H   H32       1.0  0.07920  0.00740  0.69240  1.0000 0.1532680501
H   H33       1.0  0.58370  0.01320  0.96430  1.0000 0.1594677992
H   H34       1.0  0.04890  0.61940  0.03570  1.0000 0.1594677992
H   H35       1.0  0.86940  0.33370  0.07050  1.0000 0.1594677992
H   H36       1.0  0.26320  0.79890  0.92950  1.0000 0.1594677992
H   H37       1.0  0.66630  0.73680  0.53570  1.0000 0.1594677992
H   H38       1.0  0.20110  0.13060  0.46430  1.0000 0.1594677992
H   H39       1.0  0.38060  0.41630  0.42950  1.0000 0.1594677992
H   H40       1.0  0.98680  0.95110  0.57050  1.0000 0.1594677992
C   C1        1.0  0.87655  0.39615  0.74490  1.0000 0.1693062812
C   C2        1.0  0.65125  0.13165  0.25510  1.0000 0.1693062812
C   C3        1.0  0.38165  0.62655  0.98040  1.0000 0.1693062812
C   C4        1.0  0.64615  0.40125  0.01960  1.0000 0.1693062812
C   C5        1.0  0.37345  0.35385  0.75510  1.0000 0.1693062812
C   C6        1.0  0.59875  0.61835  0.24490  1.0000 0.1693062812
C   C7        1.0  0.86835  0.12345  0.51960  1.0000 0.1693062812
C   C8        1.0  0.60385  0.34875  0.48040  1.0000 0.1693062812
C   C9        1.0  0.68180  0.06320  0.85900  1.0000 0.3568108713
C   C10       1.0  0.20420  0.82280  0.14100  1.0000 0.3568108713
C   C11       1.0  0.07280  0.43180  0.11860  1.0000 0.3568108713
C   C12       1.0  0.31320  0.95420  0.88140  1.0000 0.3568108713
C   C13       1.0  0.56820  0.68680  0.64100  1.0000 0.3568108713
C   C14       1.0  0.04580  0.92720  0.35900  1.0000 0.3568108713
C   C15       1.0  0.17720  0.31820  0.38140  1.0000 0.3568108713
C   C16       1.0  0.93680  0.79580  0.61860  1.0000 0.3568108713
C   C17       1.0  0.77990  0.06520  0.84150  1.0000 -0.4132708947
C   C18       1.0  0.22370  0.93840  0.15850  1.0000 -0.4132708947
C   C19       1.0  0.18840  0.52990  0.21470  1.0000 -0.4132708947
C   C20       1.0  0.31520  0.97370  0.78530  1.0000 -0.4132708947
C   C21       1.0  0.47010  0.68480  0.65850  1.0000 -0.4132708947
C   C22       1.0  0.02630  0.81160  0.34150  1.0000 -0.4132708947
C   C23       1.0  0.06160  0.22010  0.28530  1.0000 -0.4132708947
C   C24       1.0  0.93480  0.77630  0.71470  1.0000 -0.4132708947
C   C25       1.0  0.87551  0.15945  0.80356  1.0000 0.4347924188
C   C26       1.0  0.35589  0.07195  0.19644  1.0000 0.4361787845
C   C27       1.0  0.32195  0.62551  0.21606  1.0000 0.4347924188
C   C28       1.0  0.40945  0.10589  0.78394  1.0000 0.4347924188
C   C29       1.0  0.37449  0.59055  0.69644  1.0000 0.4347924188
C   C30       1.0  0.89411  0.67805  0.30356  1.0000 0.4347924188
C   C31       1.0  0.92805  0.12449  0.28394  1.0000 0.4347924188
C   C32       1.0  0.84055  0.64411  0.71606  1.0000 0.4347924188
C   C33       1.0  0.58360  0.96350  0.90410  1.0000 -0.4777366894
C   C34       1.0  0.05940  0.67950  0.09590  1.0000 -0.4777366894
C   C35       1.0  0.92950  0.33360  0.12010  1.0000 -0.4777366894
C   C36       1.0  0.21350  0.80940  0.87990  1.0000 -0.4777366894
C   C37       1.0  0.66640  0.78650  0.59590  1.0000 -0.4777366894
C   C38       1.0  0.19060  0.07050  0.40410  1.0000 -0.4777366894
C   C39       1.0  0.32050  0.41640  0.37990  1.0000 -0.4777366894
C   C40       1.0  0.03650  0.94060  0.62010  1.0000 -0.4777366894
C   C41       1.0  0.75489  0.23643  0.80232  1.0000 0.4212717448
C   C42       1.0  0.43411  0.95257  0.19768  1.0000 0.4212717448
C   C43       1.0  0.20257  0.50489  0.01846  1.0000 0.4212717448
C   C44       1.0  0.48643  0.18411  0.98154  1.0000 0.4212717448
C   C45       1.0  0.49511  0.51357  0.69768  1.0000 0.4212717448
C   C46       1.0  0.81589  0.79743  0.30232  1.0000 0.4212717448
C   C47       1.0  0.04743  0.24511  0.48154  1.0000 0.4212717448
C   C48       1.0  0.76357  0.56589  0.51846  1.0000 0.4212717448
N   N1        1.0  0.93304  0.34566  0.74710  1.0000 -0.2599900703
N   N2        1.0  0.59856  0.18594  0.25290  1.0000 -0.2599900703
N   N3        1.0  0.43594  0.68304  0.08738  1.0000 -0.2599900703
N   N4        1.0  0.59566  0.34856  0.91262  1.0000 -0.2599900703
N   N5        1.0  0.31696  0.40434  0.75290  1.0000 -0.2599900703
N   N6        1.0  0.65144  0.56406  0.24710  1.0000 -0.2599900703
N   N7        1.0  0.81406  0.06696  0.41262  1.0000 -0.2599900703
N   N8        1.0  0.65434  0.40144  0.58738  1.0000 -0.2599900703
N   N9        1.0  0.76830  0.33521  0.77591  1.0000 -0.4172489199
N   N10       1.0  0.55930  0.99239  0.22409  1.0000 -0.4172489199
N   N11       1.0  0.24239  0.51830  0.93309  1.0000 -0.4172489199
N   N12       1.0  0.58521  0.30930  0.06691  1.0000 -0.4172489199
N   N13       1.0  0.48170  0.41479  0.72409  1.0000 -0.4172489199
N   N14       1.0  0.69070  0.75761  0.27591  1.0000 -0.4172489199
N   N15       1.0  0.00761  0.23170  0.56691  1.0000 -0.4172489199
N   N16       1.0  0.66479  0.44070  0.43309  1.0000 -0.4172489199
N   N17       1.0  0.66612  0.14782  0.83994  1.0000 -0.4386713731
N   N18       1.0  0.30788  0.82618  0.16006  1.0000 -0.4386713731
N   N19       1.0  0.07618  0.41612  0.01830  1.0000 -0.4386713731
N   N20       1.0  0.39782  0.05788  0.98170  1.0000 -0.4386713731
N   N21       1.0  0.58388  0.60218  0.66006  1.0000 -0.4386713731
N   N22       1.0  0.94212  0.92382  0.33994  1.0000 -0.4386713731
N   N23       1.0  0.17382  0.33388  0.48170  1.0000 -0.4386713731
N   N24       1.0  0.85218  0.69212  0.51830  1.0000 -0.4386713731
N   N25       1.0  0.85378  0.24216  0.78314  1.0000 -0.043957894
N   N26       1.0  0.45902  0.07064  0.21686  1.0000 -0.043957894
N   N27       1.0  0.32064  0.60378  0.11162  1.0000 -0.043957894
N   N28       1.0  0.49216  0.20902  0.88838  1.0000 -0.043957894
N   N29       1.0  0.39622  0.50784  0.71686  1.0000 -0.043957894
N   N30       1.0  0.79098  0.67936  0.28314  1.0000 -0.043957894
N   N31       1.0  0.92936  0.14622  0.38838  1.0000 -0.043957894
N   N32       1.0  0.75784  0.54098  0.61162  1.0000 -0.043957894
O   O1        1.0  0.97284  0.17683  0.78527  1.0000 -0.5036761652
O   O2        1.0  0.39156  0.18757  0.21473  1.0000 -0.5036761652
O   O3        1.0  0.43757  0.72284  0.29601  1.0000 -0.5036761652
O   O4        1.0  0.42683  0.14156  0.70399  1.0000 -0.5036761652
O   O5        1.0  0.27716  0.57317  0.71473  1.0000 -0.5036761652
O   O6        1.0  0.85844  0.56243  0.28527  1.0000 -0.5036761652
O   O7        1.0  0.81243  0.02716  0.20399  1.0000 -0.5036761652
O   O8        1.0  0.82317  0.60844  0.79601  1.0000 -0.5036761652
