# DDEC6 charges by PACMAN v1.1 (https://github.com/mtap-research/PACMAN-charge/)
data_2015[Zn][pcu]3[FSR]14
_chemical_formula_sum              "Zn8 H48 C84 O26"
_cell_length_a       17.0894
_cell_length_b       17.0894
_cell_length_c       17.0669
_cell_angle_alpha    88.3202
_cell_angle_beta     91.6798
_cell_angle_gamma    89.7582

_symmetry_space_group_name_H-M    "P 1"
_symmetry_Int_Tables_number       1

loop_
  _symmetry_equiv_pos_as_xyz
  'x, y, z'

loop_
  _atom_site_type_symbol
  _atom_site_label
  _atom_site_symmetry_multiplicity
  _atom_site_fract_x
  _atom_site_fract_y
  _atom_site_fract_z
  _atom_site_occupancy
  _atom_site_charge
Zn  Zn1       1.0  0.08053  0.91947  0.18583  1.0000 0.9026101784
Zn  Zn2       1.0  0.08352  0.78638  0.31698  1.0000 0.9475718097
Zn  Zn3       1.0  0.21362  0.91648  0.31698  1.0000 0.9475718097
Zn  Zn4       1.0  0.21218  0.78782  0.18617  1.0000 0.9680803971
Zn  Zn5       1.0  0.91947  0.08053  0.81417  1.0000 0.9026101784
Zn  Zn6       1.0  0.78638  0.08352  0.68302  1.0000 0.9475718097
Zn  Zn7       1.0  0.91648  0.21362  0.68302  1.0000 0.9475718097
Zn  Zn8       1.0  0.78782  0.21218  0.81383  1.0000 0.9680803971
H   H1        1.0  0.84380  0.77860  0.33870  1.0000 0.1189332449
H   H2        1.0  0.22140  0.15620  0.33870  1.0000 0.1189332449
H   H3        1.0  0.70680  0.77680  0.33910  1.0000 0.1189332449
H   H4        1.0  0.22320  0.29320  0.33910  1.0000 0.1189332449
H   H5        1.0  0.69820  0.93820  0.16030  1.0000 0.1189332449
H   H6        1.0  0.06180  0.30180  0.16030  1.0000 0.1189332449
H   H7        1.0  0.83500  0.94000  0.15980  1.0000 0.1125427888
H   H8        1.0  0.06000  0.16500  0.15980  1.0000 0.1125427888
H   H9        1.0  0.59420  0.92620  0.34510  1.0000 0.1189332449
H   H10       1.0  0.07380  0.40580  0.34510  1.0000 0.1189332449
H   H11       1.0  0.45720  0.92960  0.34420  1.0000 0.1189332449
H   H12       1.0  0.07040  0.54280  0.34420  1.0000 0.1189332449
H   H13       1.0  0.45000  0.78120  0.16320  1.0000 0.1189332449
H   H14       1.0  0.21880  0.55000  0.16320  1.0000 0.1189332449
H   H15       1.0  0.58700  0.77780  0.16410  1.0000 0.1189332449
H   H16       1.0  0.22220  0.41300  0.16410  1.0000 0.1189332449
H   H17       1.0  0.21860  0.78140  0.95570  1.0000 0.1295670361
H   H18       1.0  0.22500  0.77500  0.82070  1.0000 0.1189332449
H   H19       1.0  0.05800  0.94200  0.80040  1.0000 0.1295670361
H   H20       1.0  0.05320  0.94680  0.93500  1.0000 0.1295670361
H   H21       1.0  0.07060  0.76760  0.69600  1.0000 0.1295670361
H   H22       1.0  0.23240  0.92940  0.69600  1.0000 0.1295670361
H   H23       1.0  0.07330  0.76410  0.56440  1.0000 0.1189332449
H   H24       1.0  0.23590  0.92670  0.56440  1.0000 0.1189332449
H   H25       1.0  0.77860  0.84380  0.66130  1.0000 0.1189332449
H   H26       1.0  0.15620  0.22140  0.66130  1.0000 0.1189332449
H   H27       1.0  0.77680  0.70680  0.66090  1.0000 0.1189332449
H   H28       1.0  0.29320  0.22320  0.66090  1.0000 0.1189332449
H   H29       1.0  0.93820  0.69820  0.83970  1.0000 0.1189332449
H   H30       1.0  0.30180  0.06180  0.83970  1.0000 0.1189332449
H   H31       1.0  0.94000  0.83500  0.84020  1.0000 0.1125427888
H   H32       1.0  0.16500  0.06000  0.84020  1.0000 0.1125427888
H   H33       1.0  0.92620  0.59420  0.65490  1.0000 0.1189332449
H   H34       1.0  0.40580  0.07380  0.65490  1.0000 0.1189332449
H   H35       1.0  0.92960  0.45720  0.65580  1.0000 0.1189332449
H   H36       1.0  0.54280  0.07040  0.65580  1.0000 0.1189332449
H   H37       1.0  0.78120  0.45000  0.83680  1.0000 0.1189332449
H   H38       1.0  0.55000  0.21880  0.83680  1.0000 0.1189332449
H   H39       1.0  0.77780  0.58700  0.83590  1.0000 0.1189332449
H   H40       1.0  0.41300  0.22220  0.83590  1.0000 0.1189332449
H   H41       1.0  0.78140  0.21860  0.04430  1.0000 0.1295670361
H   H42       1.0  0.77500  0.22500  0.17930  1.0000 0.1189332449
H   H43       1.0  0.94200  0.05800  0.19960  1.0000 0.1295670361
H   H44       1.0  0.94680  0.05320  0.06500  1.0000 0.1295670361
H   H45       1.0  0.76760  0.07060  0.30400  1.0000 0.1295670361
H   H46       1.0  0.92940  0.23240  0.30400  1.0000 0.1295670361
H   H47       1.0  0.76410  0.07330  0.43560  1.0000 0.1189332449
H   H48       1.0  0.92670  0.23590  0.43560  1.0000 0.1189332449
C   C1        1.0  0.93950  0.86050  0.24850  1.0000 0.5832561211
C   C2        1.0  0.13950  0.06050  0.24850  1.0000 0.5832561211
C   C3        1.0  0.85230  0.85950  0.24920  1.0000 -0.0486709063
C   C4        1.0  0.14050  0.14770  0.24920  1.0000 -0.0486709063
C   C5        1.0  0.81420  0.81100  0.30240  1.0000 -0.0985721718
C   C6        1.0  0.18900  0.18580  0.30240  1.0000 -0.0985721718
C   C7        1.0  0.73290  0.80990  0.30270  1.0000 -0.150522137
C   C8        1.0  0.19010  0.26710  0.30270  1.0000 -0.150522137
C   C9        1.0  0.68960  0.85720  0.24970  1.0000 0.0786440664
C   C10       1.0  0.14280  0.31040  0.24970  1.0000 0.0786440664
C   C11       1.0  0.72770  0.90570  0.19650  1.0000 -0.1598428084
C   C12       1.0  0.09430  0.27230  0.19650  1.0000 -0.1598428084
C   C13       1.0  0.80910  0.90690  0.19620  1.0000 -0.0934492009
C   C14       1.0  0.09310  0.19090  0.19620  1.0000 -0.0934492009
C   C15       1.0  0.60350  0.85170  0.25470  1.0000 0.0647560017
C   C16       1.0  0.14830  0.39650  0.25470  1.0000 0.0647560017
C   C17       1.0  0.56490  0.89670  0.30820  1.0000 -0.150522137
C   C18       1.0  0.10330  0.43510  0.30820  1.0000 -0.150522137
C   C19       1.0  0.48360  0.89880  0.30760  1.0000 -0.0985721718
C   C20       1.0  0.10120  0.51640  0.30760  1.0000 -0.0934492009
C   C21       1.0  0.44070  0.85570  0.25360  1.0000 -0.0486709063
C   C22       1.0  0.14430  0.55930  0.25360  1.0000 -0.0486709063
C   C23       1.0  0.47930  0.81070  0.20010  1.0000 -0.0934492009
C   C24       1.0  0.18930  0.52070  0.20010  1.0000 -0.0934492009
C   C25       1.0  0.56060  0.80860  0.20070  1.0000 -0.150522137
C   C26       1.0  0.19140  0.43940  0.20070  1.0000 -0.150522137
C   C27       1.0  0.35430  0.85130  0.26150  1.0000 0.6013122654
C   C28       1.0  0.14870  0.64570  0.26150  1.0000 0.6013122654
C   C29       1.0  0.12880  0.87120  0.04640  1.0000 0.5569874005
C   C30       1.0  0.13540  0.86460  0.95890  1.0000 -0.0185477945
C   C31       1.0  0.18550  0.81450  0.92350  1.0000 -0.0985721718
C   C32       1.0  0.18980  0.81020  0.84350  1.0000 -0.1396336549
C   C33       1.0  0.14160  0.85840  0.79710  1.0000 0.0786440664
C   C34       1.0  0.09130  0.90870  0.83220  1.0000 -0.1396336549
C   C35       1.0  0.08840  0.91160  0.91200  1.0000 -0.0985721718
C   C36       1.0  0.14810  0.85190  0.71010  1.0000 0.0735894324
C   C37       1.0  0.10390  0.80290  0.66880  1.0000 -0.165874262
C   C38       1.0  0.19710  0.89610  0.66880  1.0000 -0.165874262
C   C39       1.0  0.10460  0.80140  0.59090  1.0000 -0.0934492009
C   C40       1.0  0.19860  0.89540  0.59090  1.0000 -0.0934492009
C   C41       1.0  0.14870  0.85130  0.54880  1.0000 -0.0355697951
C   C42       1.0  0.14970  0.85030  0.46090  1.0000 0.6013122654
C   C43       1.0  0.86050  0.93950  0.75150  1.0000 0.5832561211
C   C44       1.0  0.06050  0.13950  0.75150  1.0000 0.5832561211
C   C45       1.0  0.85950  0.85230  0.75080  1.0000 -0.0486709063
C   C46       1.0  0.14770  0.14050  0.75080  1.0000 -0.0486709063
C   C47       1.0  0.81100  0.81420  0.69760  1.0000 -0.0985721718
C   C48       1.0  0.18580  0.18900  0.69760  1.0000 -0.0985721718
C   C49       1.0  0.80990  0.73290  0.69730  1.0000 -0.150522137
C   C50       1.0  0.26710  0.19010  0.69730  1.0000 -0.150522137
C   C51       1.0  0.85720  0.68960  0.75030  1.0000 0.0786440664
C   C52       1.0  0.31040  0.14280  0.75030  1.0000 0.0786440664
C   C53       1.0  0.90570  0.72770  0.80350  1.0000 -0.1598428084
C   C54       1.0  0.27230  0.09430  0.80350  1.0000 -0.1598428084
C   C55       1.0  0.90690  0.80910  0.80380  1.0000 -0.0934492009
C   C56       1.0  0.19090  0.09310  0.80380  1.0000 -0.0934492009
C   C57       1.0  0.85170  0.60350  0.74530  1.0000 0.0647560017
C   C58       1.0  0.39650  0.14830  0.74530  1.0000 0.0647560017
C   C59       1.0  0.89670  0.56490  0.69180  1.0000 -0.150522137
C   C60       1.0  0.43510  0.10330  0.69180  1.0000 -0.150522137
C   C61       1.0  0.89880  0.48360  0.69240  1.0000 -0.0985721718
C   C62       1.0  0.51640  0.10120  0.69240  1.0000 -0.0985721718
C   C63       1.0  0.85570  0.44070  0.74640  1.0000 -0.0486709063
C   C64       1.0  0.55930  0.14430  0.74640  1.0000 -0.0486709063
C   C65       1.0  0.81070  0.47930  0.79990  1.0000 -0.0934492009
C   C66       1.0  0.52070  0.18930  0.79990  1.0000 -0.0934492009
C   C67       1.0  0.80860  0.56060  0.79930  1.0000 -0.150522137
C   C68       1.0  0.43940  0.19140  0.79930  1.0000 -0.150522137
C   C69       1.0  0.85130  0.35430  0.73850  1.0000 0.6013122654
C   C70       1.0  0.64570  0.14870  0.73850  1.0000 0.6013122654
C   C71       1.0  0.87120  0.12880  0.95360  1.0000 0.5569874005
C   C72       1.0  0.86460  0.13540  0.04110  1.0000 -0.0185477945
C   C73       1.0  0.81450  0.18550  0.07650  1.0000 -0.0985721718
C   C74       1.0  0.81020  0.18980  0.15650  1.0000 -0.1396336549
C   C75       1.0  0.85840  0.14160  0.20290  1.0000 0.0786440664
C   C76       1.0  0.90870  0.09130  0.16780  1.0000 -0.1335014148
C   C77       1.0  0.91160  0.08840  0.08800  1.0000 -0.0985721718
C   C78       1.0  0.85190  0.14810  0.28990  1.0000 0.0735894324
C   C79       1.0  0.80290  0.10390  0.33120  1.0000 -0.165874262
C   C80       1.0  0.89610  0.19710  0.33120  1.0000 -0.165874262
C   C81       1.0  0.80140  0.10460  0.40910  1.0000 -0.0934492009
C   C82       1.0  0.89540  0.19860  0.40910  1.0000 -0.0934492009
C   C83       1.0  0.85130  0.14870  0.45120  1.0000 -0.0355697951
C   C84       1.0  0.85030  0.14970  0.53910  1.0000 0.6013122654
O   O1        1.0  0.14720  0.85280  0.25130  1.0000 -1.0221562429
O   O2        1.0  0.96970  0.90470  0.20230  1.0000 -0.5017793669
O   O3        1.0  0.09530  0.03030  0.20230  1.0000 -0.5017793669
O   O4        1.0  0.97410  0.81190  0.29660  1.0000 -0.5428078729
O   O5        1.0  0.18810  0.02590  0.29660  1.0000 -0.5428078729
O   O6        1.0  0.32060  0.81280  0.20920  1.0000 -0.5428078729
O   O7        1.0  0.18720  0.67940  0.20920  1.0000 -0.5475502058
O   O8        1.0  0.32360  0.90080  0.30450  1.0000 -0.531065826
O   O9        1.0  0.09920  0.67640  0.30450  1.0000 -0.531065826
O   O10       1.0  0.08780  0.91220  0.07490  1.0000 -0.4064978405
O   O11       1.0  0.18340  0.81660  0.08070  1.0000 -0.6349065347
O   O12       1.0  0.10110  0.80490  0.42560  1.0000 -0.5475502058
O   O13       1.0  0.19510  0.89890  0.42560  1.0000 -0.5475502058
O   O14       1.0  0.85280  0.14720  0.74870  1.0000 -1.0221562429
O   O15       1.0  0.90470  0.96970  0.79770  1.0000 -0.5017793669
O   O16       1.0  0.03030  0.09530  0.79770  1.0000 -0.5017793669
O   O17       1.0  0.81190  0.97410  0.70340  1.0000 -0.5428078729
O   O18       1.0  0.02590  0.18810  0.70340  1.0000 -0.5428078729
O   O19       1.0  0.81280  0.32060  0.79080  1.0000 -0.5428078729
O   O20       1.0  0.67940  0.18720  0.79080  1.0000 -0.5428078729
O   O21       1.0  0.90080  0.32360  0.69550  1.0000 -0.531065826
O   O22       1.0  0.67640  0.09920  0.69550  1.0000 -0.531065826
O   O23       1.0  0.91220  0.08780  0.92510  1.0000 -0.4064978405
O   O24       1.0  0.81660  0.18340  0.91930  1.0000 -0.6349065347
O   O25       1.0  0.80490  0.10110  0.57440  1.0000 -0.5475502058
O   O26       1.0  0.89890  0.19510  0.57440  1.0000 -0.5475502058
