# DDEC6 charges by PACMAN v1.1 (https://github.com/mtap-research/PACMAN-charge/)
data_2015[Zn][ths]3[FSR]1
_chemical_formula_sum              "Zn4 H68 C104 N8 O24"
_cell_length_a       13.7996
_cell_length_b       13.7996
_cell_length_c       27.4382
_cell_angle_alpha    63.8884
_cell_angle_beta     116.112
_cell_angle_gamma    141.208

_symmetry_space_group_name_H-M    "P 1"
_symmetry_Int_Tables_number       1

loop_
  _symmetry_equiv_pos_as_xyz
  'x, y, z'

loop_
  _atom_site_type_symbol
  _atom_site_label
  _atom_site_symmetry_multiplicity
  _atom_site_fract_x
  _atom_site_fract_y
  _atom_site_fract_z
  _atom_site_occupancy
  _atom_site_charge
Zn  Zn1       1.0  0.97714  0.75080  0.66457  1.0000 0.8463407771
Zn  Zn2       1.0  0.24920  0.02286  0.16457  1.0000 0.8463407771
Zn  Zn3       1.0  0.75080  0.97714  0.83543  1.0000 0.8463407771
Zn  Zn4       1.0  0.02286  0.24920  0.33543  1.0000 0.8463407771
H   H1        1.0  0.57510  0.34570  0.81160  1.0000 0.130592369
H   H2        1.0  0.65430  0.42490  0.31160  1.0000 0.130592369
H   H3        1.0  0.57010  0.24350  0.90480  1.0000 0.130592369
H   H4        1.0  0.75650  0.42990  0.40480  1.0000 0.130592369
H   H5        1.0  0.00630  0.45510  0.92670  1.0000 0.130592369
H   H6        1.0  0.54490  0.99370  0.42670  1.0000 0.130592369
H   H7        1.0  0.01290  0.56350  0.83530  1.0000 0.120308069
H   H8        1.0  0.43650  0.98710  0.33530  1.0000 0.120308069
H   H9        1.0  0.94080  0.28540  0.08340  1.0000 0.120308069
H   H10       1.0  0.71460  0.05920  0.58340  1.0000 0.120308069
H   H11       1.0  0.05220  0.19720  0.12710  1.0000 0.130592369
H   H12       1.0  0.80280  0.94780  0.62710  1.0000 0.130592369
H   H13       1.0  0.90600  0.04560  0.99140  1.0000 0.1413052695
H   H14       1.0  0.95440  0.09400  0.49140  1.0000 0.1413052695
H   H15       1.0  0.79480  0.13360  0.94690  1.0000 0.130592369
H   H16       1.0  0.86640  0.20520  0.44690  1.0000 0.130592369
H   H17       1.0  0.77480  0.45820  0.97720  1.0000 0.130592369
H   H18       1.0  0.54180  0.22520  0.47720  1.0000 0.130592369
H   H19       1.0  0.63910  0.42130  0.02230  1.0000 0.130592369
H   H20       1.0  0.57870  0.36090  0.52230  1.0000 0.130592369
H   H21       1.0  0.48350  0.00830  0.10470  1.0000 0.120308069
H   H22       1.0  0.99170  0.51650  0.60470  1.0000 0.120308069
H   H23       1.0  0.61510  0.04310  0.05860  1.0000 0.130592369
H   H24       1.0  0.95690  0.38490  0.55860  1.0000 0.130592369
H   H25       1.0  0.23300  0.86260  0.76700  1.0000 0.120308069
H   H26       1.0  0.13740  0.76700  0.26700  1.0000 0.120308069
H   H27       1.0  0.50070  0.05670  0.79130  1.0000 0.1413052695
H   H28       1.0  0.94330  0.49930  0.29130  1.0000 0.1413052695
H   H29       1.0  0.65500  0.24320  0.72390  1.0000 0.130592369
H   H30       1.0  0.75680  0.34500  0.22390  1.0000 0.130592369
H   H31       1.0  0.53570  0.21910  0.63320  1.0000 0.1413052695
H   H32       1.0  0.78090  0.46430  0.13320  1.0000 0.1413052695
H   H33       1.0  0.26800  0.02040  0.61160  1.0000 0.120308069
H   H34       1.0  0.97960  0.73200  0.11160  1.0000 0.120308069
H   H35       1.0  0.34570  0.57510  0.68840  1.0000 0.130592369
H   H36       1.0  0.42490  0.65430  0.18840  1.0000 0.130592369
H   H37       1.0  0.24350  0.57010  0.59520  1.0000 0.130592369
H   H38       1.0  0.42990  0.75650  0.09520  1.0000 0.130592369
H   H39       1.0  0.45510  0.00630  0.57330  1.0000 0.130592369
H   H40       1.0  0.99370  0.54490  0.07330  1.0000 0.130592369
H   H41       1.0  0.56350  0.01290  0.66470  1.0000 0.120308069
H   H42       1.0  0.98710  0.43650  0.16470  1.0000 0.120308069
H   H43       1.0  0.28540  0.94080  0.41660  1.0000 0.120308069
H   H44       1.0  0.05920  0.71460  0.91660  1.0000 0.120308069
H   H45       1.0  0.19720  0.05220  0.37290  1.0000 0.130592369
H   H46       1.0  0.94780  0.80280  0.87290  1.0000 0.130592369
H   H47       1.0  0.04560  0.90600  0.50860  1.0000 0.1413052695
H   H48       1.0  0.09400  0.95440  0.00860  1.0000 0.1413052695
H   H49       1.0  0.13360  0.79480  0.55310  1.0000 0.130592369
H   H50       1.0  0.20520  0.86640  0.05310  1.0000 0.130592369
H   H51       1.0  0.45820  0.77480  0.52280  1.0000 0.130592369
H   H52       1.0  0.22520  0.54180  0.02280  1.0000 0.130592369
H   H53       1.0  0.42130  0.63910  0.47770  1.0000 0.130592369
H   H54       1.0  0.36090  0.57870  0.97770  1.0000 0.130592369
H   H55       1.0  0.00830  0.48350  0.39530  1.0000 0.120308069
H   H56       1.0  0.51650  0.99170  0.89530  1.0000 0.120308069
H   H57       1.0  0.04310  0.61510  0.44140  1.0000 0.130592369
H   H58       1.0  0.38490  0.95690  0.94140  1.0000 0.130592369
H   H59       1.0  0.86260  0.23300  0.73300  1.0000 0.120308069
H   H60       1.0  0.76700  0.13740  0.23300  1.0000 0.120308069
H   H61       1.0  0.05670  0.50070  0.70870  1.0000 0.1413052695
H   H62       1.0  0.49930  0.94330  0.20870  1.0000 0.1413052695
H   H63       1.0  0.24320  0.65500  0.77610  1.0000 0.130592369
H   H64       1.0  0.34500  0.75680  0.27610  1.0000 0.130592369
H   H65       1.0  0.21910  0.53570  0.86680  1.0000 0.1413052695
H   H66       1.0  0.46430  0.78090  0.36680  1.0000 0.1413052695
H   H67       1.0  0.02040  0.26800  0.88840  1.0000 0.120308069
H   H68       1.0  0.73200  0.97960  0.38840  1.0000 0.120308069
C   C1        1.0  0.79507  0.46633  0.81366  1.0000 -0.0256576363
C   C2        1.0  0.53367  0.20493  0.31366  1.0000 -0.0256576363
C   C3        1.0  0.66270  0.36930  0.83493  1.0000 -0.0829265132
C   C4        1.0  0.63070  0.33730  0.33493  1.0000 -0.0829265132
C   C5        1.0  0.65899  0.30641  0.89087  1.0000 -0.1869348007
C   C6        1.0  0.69359  0.34101  0.39087  1.0000 -0.1869348007
C   C7        1.0  0.78708  0.33712  0.92591  1.0000 0.1893416846
C   C8        1.0  0.66288  0.21292  0.42591  1.0000 0.1893416846
C   C9        1.0  0.91946  0.43374  0.90395  1.0000 -0.1827767432
C   C10       1.0  0.56626  0.08054  0.40395  1.0000 -0.1827767432
C   C11       1.0  0.92274  0.49766  0.84903  1.0000 -0.0875779262
C   C12       1.0  0.50234  0.07726  0.34903  1.0000 -0.0875779262
C   C13       1.0  0.85456  0.21844  0.01029  1.0000 0.1837355064
C   C14       1.0  0.78156  0.14544  0.51029  1.0000 0.1837355064
C   C15       1.0  0.93319  0.23701  0.06471  1.0000 -0.1996926425
C   C16       1.0  0.76299  0.06681  0.56471  1.0000 -0.1996926425
C   C17       1.0  0.99977  0.18383  0.09087  1.0000 -0.0829265132
C   C18       1.0  0.81617  0.00023  0.59087  1.0000 -0.0829265132
C   C19       1.0  0.98987  0.11113  0.06418  1.0000 -0.0057704579
C   C20       1.0  0.88887  0.01013  0.56418  1.0000 -0.0057704579
C   C21       1.0  0.91273  0.09367  0.00997  1.0000 -0.0644770192
C   C22       1.0  0.90633  0.08727  0.50997  1.0000 -0.0644770192
C   C23       1.0  0.84594  0.14626  0.98325  1.0000 -0.1869348007
C   C24       1.0  0.85374  0.15406  0.48325  1.0000 -0.1869348007
C   C25       1.0  0.70602  0.25278  0.01187  1.0000 0.1837355064
C   C26       1.0  0.74722  0.29398  0.51187  1.0000 0.1837355064
C   C27       1.0  0.71420  0.36640  0.00230  1.0000 -0.1827767432
C   C28       1.0  0.63360  0.28580  0.50230  1.0000 -0.1869348007
C   C29       1.0  0.63357  0.34463  0.02957  1.0000 -0.0829265132
C   C30       1.0  0.65537  0.36643  0.52957  1.0000 -0.0829265132
C   C31       1.0  0.54346  0.20854  0.06800  1.0000 -0.0196604933
C   C32       1.0  0.79146  0.45654  0.56800  1.0000 -0.0196604933
C   C33       1.0  0.54037  0.09823  0.07852  1.0000 -0.0963583535
C   C34       1.0  0.90177  0.45963  0.57852  1.0000 -0.0963583535
C   C35       1.0  0.61952  0.11908  0.05097  1.0000 -0.1827767432
C   C36       1.0  0.88092  0.38048  0.55097  1.0000 -0.1827767432
C   C37       1.0  0.80011  0.53489  0.75244  1.0000 0.5547450797
C   C38       1.0  0.46511  0.19989  0.25244  1.0000 0.5547450797
C   C39       1.0  0.06108  0.05072  0.09277  1.0000 0.5627090649
C   C40       1.0  0.94928  0.93892  0.59277  1.0000 0.5627090649
C   C41       1.0  0.44946  0.18254  0.09564  1.0000 0.5424290316
C   C42       1.0  0.81746  0.55054  0.59564  1.0000 0.5424290316
C   C43       1.0  0.29413  0.93527  0.73944  1.0000 0.0793132761
C   C44       1.0  0.06473  0.70587  0.23944  1.0000 0.0793132761
C   C45       1.0  0.45477  0.05223  0.75428  1.0000 -0.1250988154
C   C46       1.0  0.94777  0.54523  0.25428  1.0000 -0.1197497783
C   C47       1.0  0.54632  0.16128  0.71460  1.0000 -0.0196604933
C   C48       1.0  0.83872  0.45368  0.21460  1.0000 -0.0196604933
C   C49       1.0  0.47574  0.14786  0.66112  1.0000 -0.1197497783
C   C50       1.0  0.85214  0.52426  0.16112  1.0000 -0.1197497783
C   C51       1.0  0.31485  0.02815  0.64844  1.0000 0.0901784243
C   C52       1.0  0.97185  0.68515  0.14844  1.0000 0.0901784243
C   C53       1.0  0.46633  0.79507  0.68634  1.0000 -0.0256576363
C   C54       1.0  0.20493  0.53367  0.18634  1.0000 -0.0256576363
C   C55       1.0  0.36930  0.66270  0.66507  1.0000 -0.0829265132
C   C56       1.0  0.33730  0.63070  0.16507  1.0000 -0.0829265132
C   C57       1.0  0.30641  0.65899  0.60913  1.0000 -0.1869348007
C   C58       1.0  0.34101  0.69359  0.10913  1.0000 -0.1869348007
C   C59       1.0  0.33712  0.78708  0.57409  1.0000 0.1893416846
C   C60       1.0  0.21292  0.66288  0.07409  1.0000 0.1893416846
C   C61       1.0  0.43374  0.91946  0.59605  1.0000 -0.1827767432
C   C62       1.0  0.08054  0.56626  0.09605  1.0000 -0.1827767432
C   C63       1.0  0.49766  0.92274  0.65097  1.0000 -0.0875779262
C   C64       1.0  0.07726  0.50234  0.15097  1.0000 -0.0875779262
C   C65       1.0  0.21844  0.85456  0.48971  1.0000 0.1837355064
C   C66       1.0  0.14544  0.78156  0.98971  1.0000 0.1837355064
C   C67       1.0  0.23701  0.93319  0.43529  1.0000 -0.1996926425
C   C68       1.0  0.06681  0.76299  0.93529  1.0000 -0.1996926425
C   C69       1.0  0.18383  0.99977  0.40913  1.0000 -0.0829265132
C   C70       1.0  0.00023  0.81617  0.90913  1.0000 -0.0829265132
C   C71       1.0  0.11113  0.98987  0.43582  1.0000 -0.0057704579
C   C72       1.0  0.01013  0.88887  0.93582  1.0000 -0.0057704579
C   C73       1.0  0.09367  0.91273  0.49003  1.0000 -0.0644770192
C   C74       1.0  0.08727  0.90633  0.99003  1.0000 -0.0644770192
C   C75       1.0  0.14626  0.84594  0.51675  1.0000 -0.1869348007
C   C76       1.0  0.15406  0.85374  0.01675  1.0000 -0.1869348007
C   C77       1.0  0.25278  0.70602  0.48813  1.0000 0.1837355064
C   C78       1.0  0.29398  0.74722  0.98813  1.0000 0.1837355064
C   C79       1.0  0.36640  0.71420  0.49770  1.0000 -0.1869348007
C   C80       1.0  0.28580  0.63360  0.99770  1.0000 -0.1869348007
C   C81       1.0  0.34463  0.63357  0.47043  1.0000 -0.0829265132
C   C82       1.0  0.36643  0.65537  0.97043  1.0000 -0.0829265132
C   C83       1.0  0.20854  0.54346  0.43200  1.0000 -0.0196604933
C   C84       1.0  0.45654  0.79146  0.93200  1.0000 -0.0196604933
C   C85       1.0  0.09823  0.54037  0.42148  1.0000 -0.0963583535
C   C86       1.0  0.45963  0.90177  0.92148  1.0000 -0.0963583535
C   C87       1.0  0.11908  0.61952  0.44903  1.0000 -0.1869348007
C   C88       1.0  0.38048  0.88092  0.94903  1.0000 -0.1869348007
C   C89       1.0  0.53489  0.80011  0.74756  1.0000 0.5547450797
C   C90       1.0  0.19989  0.46511  0.24756  1.0000 0.5547450797
C   C91       1.0  0.05072  0.06108  0.40723  1.0000 0.5627090649
C   C92       1.0  0.93892  0.94928  0.90723  1.0000 0.5627090649
C   C93       1.0  0.18254  0.44946  0.40436  1.0000 0.5424290316
C   C94       1.0  0.55054  0.81746  0.90436  1.0000 0.5424290316
C   C95       1.0  0.93527  0.29413  0.76056  1.0000 0.0793132761
C   C96       1.0  0.70587  0.06473  0.26056  1.0000 0.0793132761
C   C97       1.0  0.05223  0.45477  0.74572  1.0000 -0.1250988154
C   C98       1.0  0.54523  0.94777  0.24572  1.0000 -0.1250988154
C   C99       1.0  0.16128  0.54632  0.78540  1.0000 -0.0196604933
C   C100      1.0  0.45368  0.83872  0.28540  1.0000 -0.0196604933
C   C101      1.0  0.14786  0.47574  0.83888  1.0000 -0.1197497783
C   C102      1.0  0.52426  0.85214  0.33888  1.0000 -0.1197497783
C   C103      1.0  0.02815  0.31485  0.85156  1.0000 0.0901784243
C   C104      1.0  0.68515  0.97185  0.35156  1.0000 0.0901784243
N   N1        1.0  0.78515  0.27265  0.98284  1.0000 -0.1669956653
N   N2        1.0  0.72735  0.21485  0.48284  1.0000 -0.1669956653
N   N3        1.0  0.22253  0.92207  0.68693  1.0000 -0.2159331573
N   N4        1.0  0.07793  0.77747  0.18693  1.0000 -0.2159331573
N   N5        1.0  0.27265  0.78515  0.51716  1.0000 -0.1669956653
N   N6        1.0  0.21485  0.72735  0.01716  1.0000 -0.1669956653
N   N7        1.0  0.92207  0.22253  0.81307  1.0000 -0.2159331573
N   N8        1.0  0.77747  0.07793  0.31307  1.0000 -0.2159331573
O   O1        1.0  0.67992  0.48868  0.72118  1.0000 -0.4759865759
O   O2        1.0  0.51132  0.32008  0.22118  1.0000 -0.4759865759
O   O3        1.0  0.93357  0.63703  0.73944  1.0000 -0.5489969833
O   O4        1.0  0.36297  0.06643  0.23944  1.0000 -0.5489969833
O   O5        1.0  0.02686  0.96334  0.07113  1.0000 -0.5279369934
O   O6        1.0  0.03666  0.97314  0.57113  1.0000 -0.5279369934
O   O7        1.0  0.15130  0.09270  0.13824  1.0000 -0.5177392347
O   O8        1.0  0.90730  0.84870  0.63824  1.0000 -0.5177392347
O   O9        1.0  0.36835  0.05425  0.12848  1.0000 -0.5489969833
O   O10       1.0  0.94575  0.63165  0.62848  1.0000 -0.5489969833
O   O11       1.0  0.45243  0.28177  0.08398  1.0000 -0.4921869321
O   O12       1.0  0.71823  0.54757  0.58398  1.0000 -0.4921869321
O   O13       1.0  0.48868  0.67992  0.77882  1.0000 -0.4759865759
O   O14       1.0  0.32008  0.51132  0.27882  1.0000 -0.4759865759
O   O15       1.0  0.63703  0.93357  0.76056  1.0000 -0.5489969833
O   O16       1.0  0.06643  0.36297  0.26056  1.0000 -0.5489969833
O   O17       1.0  0.96334  0.02686  0.42887  1.0000 -0.5279369934
O   O18       1.0  0.97314  0.03666  0.92887  1.0000 -0.5279369934
O   O19       1.0  0.09270  0.15130  0.36176  1.0000 -0.5177392347
O   O20       1.0  0.84870  0.90730  0.86176  1.0000 -0.5177392347
O   O21       1.0  0.05425  0.36835  0.37152  1.0000 -0.5489969833
O   O22       1.0  0.63165  0.94575  0.87152  1.0000 -0.5489969833
O   O23       1.0  0.28177  0.45243  0.41602  1.0000 -0.4921869321
O   O24       1.0  0.54757  0.71823  0.91602  1.0000 -0.4921869321
