# DDEC6 charges by PACMAN v1.1 (https://github.com/mtap-research/PACMAN-charge/)
data_2015[Zn][snq]2[FSR]1
_chemical_formula_sum              "Zn4 H48 C72 N8 O16"
_cell_length_a       19.6642
_cell_length_b       19.6642
_cell_length_c       19.6642
_cell_angle_alpha    90.4629
_cell_angle_beta     90.4629
_cell_angle_gamma    169.686

_symmetry_space_group_name_H-M    "P 1"
_symmetry_Int_Tables_number       1

loop_
  _symmetry_equiv_pos_as_xyz
  'x, y, z'

loop_
  _atom_site_type_symbol
  _atom_site_label
  _atom_site_symmetry_multiplicity
  _atom_site_fract_x
  _atom_site_fract_y
  _atom_site_fract_z
  _atom_site_occupancy
  _atom_site_charge
Zn  Zn1       1.0  0.12447  0.05333  0.49900  1.0000 0.7938999984
Zn  Zn2       1.0  0.55433  0.62547  0.50100  1.0000 0.7938999984
Zn  Zn3       1.0  0.37453  0.87553  0.92886  1.0000 0.7938999984
Zn  Zn4       1.0  0.94667  0.44567  0.07114  1.0000 0.7938999984
H   H1        1.0  0.34880  0.14640  0.42140  1.0000 0.1103426013
H   H2        1.0  0.72500  0.92740  0.57860  1.0000 0.1103426013
H   H3        1.0  0.07260  0.65120  0.79760  1.0000 0.1103426013
H   H4        1.0  0.85360  0.27500  0.20240  1.0000 0.1103426013
H   H5        1.0  0.57520  0.57860  0.36840  1.0000 0.1414427314
H   H6        1.0  0.21020  0.20680  0.63160  1.0000 0.1414427314
H   H7        1.0  0.79320  0.42480  0.00340  1.0000 0.1414427314
H   H8        1.0  0.42140  0.78980  0.99660  1.0000 0.1414427314
H   H9        1.0  0.20630  0.28720  0.28470  1.0000 0.1103426013
H   H10       1.0  0.00250  0.92160  0.71530  1.0000 0.1103426013
H   H11       1.0  0.07840  0.79370  0.08090  1.0000 0.1103426013
H   H12       1.0  0.71280  0.99750  0.91910  1.0000 0.1103426013
H   H13       1.0  0.96980  0.07700  0.17340  1.0000 0.099670038
H   H14       1.0  0.90360  0.79640  0.82660  1.0000 0.099670038
H   H15       1.0  0.20360  0.03020  0.10720  1.0000 0.099670038
H   H16       1.0  0.92300  0.09640  0.89280  1.0000 0.099670038
H   H17       1.0  0.13030  0.16250  0.08600  1.0000 0.1103426013
H   H18       1.0  0.07650  0.04430  0.91400  1.0000 0.1103426013
H   H19       1.0  0.95570  0.86970  0.03220  1.0000 0.1103426013
H   H20       1.0  0.83750  0.92350  0.96780  1.0000 0.1103426013
H   H21       1.0  0.50470  0.43610  0.11100  1.0000 0.1103426013
H   H22       1.0  0.32510  0.39370  0.88900  1.0000 0.1103426013
H   H23       1.0  0.60630  0.49530  0.93140  1.0000 0.1103426013
H   H24       1.0  0.56390  0.67490  0.06860  1.0000 0.1103426013
H   H25       1.0  0.86240  0.71710  0.18870  1.0000 0.1193775128
H   H26       1.0  0.52840  0.67370  0.81130  1.0000 0.1193775128
H   H27       1.0  0.32630  0.13760  0.85470  1.0000 0.1193775128
H   H28       1.0  0.28290  0.47160  0.14530  1.0000 0.1193775128
H   H29       1.0  0.62180  0.32440  0.14720  1.0000 0.1103426013
H   H30       1.0  0.17720  0.47460  0.85280  1.0000 0.1103426013
H   H31       1.0  0.52540  0.37820  0.70260  1.0000 0.1103426013
H   H32       1.0  0.67560  0.82280  0.29740  1.0000 0.1103426013
H   H33       1.0  0.54580  0.13870  0.31630  1.0000 0.1193775128
H   H34       1.0  0.82240  0.22950  0.68370  1.0000 0.1193775128
H   H35       1.0  0.77050  0.45420  0.59290  1.0000 0.1193775128
H   H36       1.0  0.86130  0.17760  0.40710  1.0000 0.1193775128
H   H37       1.0  0.29980  0.99020  0.37020  1.0000 0.1304092728
H   H38       1.0  0.62000  0.92960  0.62980  1.0000 0.1304092728
H   H39       1.0  0.07040  0.70020  0.69040  1.0000 0.1304092728
H   H40       1.0  0.00980  0.38000  0.30960  1.0000 0.1304092728
H   H41       1.0  0.37580  0.17580  0.20100  1.0000 0.1103426013
H   H42       1.0  0.97480  0.17480  0.79900  1.0000 0.1103426013
H   H43       1.0  0.82520  0.62420  0.80000  1.0000 0.1103426013
H   H44       1.0  0.82420  0.02520  0.20000  1.0000 0.1103426013
H   H45       1.0  0.53870  0.46600  0.54590  1.0000 0.2926469896
H   H46       1.0  0.92010  0.99280  0.45410  1.0000 0.2926469896
H   H47       1.0  0.00720  0.46130  0.92730  1.0000 0.2926469896
H   H48       1.0  0.53400  0.07990  0.07270  1.0000 0.2926469896
C   C1        1.0  0.20850  0.03510  0.38960  1.0000 0.0444215419
C   C2        1.0  0.64550  0.81890  0.61040  1.0000 0.0444215419
C   C3        1.0  0.18110  0.79150  0.82660  1.0000 0.0444215419
C   C4        1.0  0.96490  0.35450  0.17340  1.0000 0.0444215419
C   C5        1.0  0.85410  0.76750  0.34420  1.0000 0.1304092728
C   C6        1.0  0.42330  0.50990  0.65580  1.0000 0.1304092728
C   C7        1.0  0.49010  0.14590  0.91340  1.0000 0.1304092728
C   C8        1.0  0.23250  0.57670  0.08660  1.0000 0.1304092728
C   C9        1.0  0.63110  0.60540  0.33250  1.0000 -0.2071013596
C   C10       1.0  0.27290  0.29860  0.66750  1.0000 -0.2071013596
C   C11       1.0  0.70140  0.36890  0.97430  1.0000 -0.2071013596
C   C12       1.0  0.39460  0.72710  0.02570  1.0000 -0.2071013596
C   C13       1.0  0.49150  0.48240  0.26590  1.0000 0.0761581216
C   C14       1.0  0.21650  0.22560  0.73410  1.0000 0.0761581216
C   C15       1.0  0.77440  0.50850  0.99090  1.0000 0.0761581216
C   C16       1.0  0.51760  0.78350  0.00910  1.0000 0.0761581216
C   C17       1.0  0.26560  0.31630  0.24990  1.0000 -0.134137645
C   C18       1.0  0.06640  0.01570  0.75010  1.0000 -0.134137645
C   C19       1.0  0.98430  0.73440  0.05070  1.0000 -0.134137645
C   C20       1.0  0.68370  0.93360  0.94930  1.0000 -0.134137645
C   C21       1.0  0.12400  0.19100  0.18300  1.0000 -0.1117550802
C   C22       1.0  0.00800  0.94100  0.81700  1.0000 -0.1117550802
C   C23       1.0  0.05900  0.87600  0.06700  1.0000 -0.1117550802
C   C24       1.0  0.80900  0.99200  0.93300  1.0000 -0.1117550802
C   C25       1.0  0.21860  0.24050  0.13110  1.0000 -0.1117550802
C   C26       1.0  0.10940  0.08750  0.86890  1.0000 -0.1117550802
C   C27       1.0  0.91250  0.78140  0.02190  1.0000 -0.1117550802
C   C28       1.0  0.75950  0.89060  0.97810  1.0000 -0.1117550802
C   C29       1.0  0.44530  0.40670  0.14600  1.0000 -0.154086813
C   C30       1.0  0.26070  0.29930  0.85400  1.0000 -0.154086813
C   C31       1.0  0.70070  0.55470  0.96140  1.0000 -0.154086813
C   C32       1.0  0.59330  0.73930  0.03860  1.0000 -0.154086813
C   C33       1.0  0.58530  0.53070  0.21360  1.0000 0.0907047991
C   C34       1.0  0.31710  0.37170  0.78640  1.0000 0.0907047991
C   C35       1.0  0.62830  0.41470  0.94540  1.0000 0.0907047991
C   C36       1.0  0.46930  0.68290  0.05460  1.0000 0.0907047991
C   C37       1.0  0.80730  0.69130  0.22460  1.0000 -0.2342615981
C   C38       1.0  0.46670  0.58270  0.77540  1.0000 -0.2342615981
C   C39       1.0  0.41730  0.19270  0.88400  1.0000 -0.2342615981
C   C40       1.0  0.30870  0.53330  0.11600  1.0000 -0.2342615981
C   C41       1.0  0.94480  0.81290  0.29170  1.0000 0.0738134909
C   C42       1.0  0.52120  0.65310  0.70830  1.0000 0.0738134909
C   C43       1.0  0.34690  0.05520  0.86810  1.0000 0.0738134909
C   C44       1.0  0.18710  0.47880  0.13190  1.0000 0.0738134909
C   C45       1.0  0.55690  0.25700  0.19190  1.0000 -0.0891450957
C   C46       1.0  0.06510  0.36500  0.80810  1.0000 -0.0891450957
C   C47       1.0  0.63500  0.44310  0.70010  1.0000 -0.0891450957
C   C48       1.0  0.74300  0.93490  0.29990  1.0000 -0.0891450957
C   C49       1.0  0.60820  0.24630  0.22650  1.0000 -0.0596672703
C   C50       1.0  0.01980  0.38170  0.77350  1.0000 -0.0596672703
C   C51       1.0  0.61830  0.39180  0.63810  1.0000 -0.0596672703
C   C52       1.0  0.75370  0.98020  0.36190  1.0000 -0.0596672703
C   C53       1.0  0.51140  0.14580  0.29320  1.0000 -0.0978455838
C   C54       1.0  0.85260  0.21820  0.70680  1.0000 -0.0978455838
C   C55       1.0  0.78180  0.48860  0.63440  1.0000 -0.0978455838
C   C56       1.0  0.85420  0.14740  0.36560  1.0000 -0.0978455838
C   C57       1.0  0.36430  0.05720  0.32550  1.0000 -0.2001580164
C   C58       1.0  0.73170  0.03880  0.67450  1.0000 -0.2001580164
C   C59       1.0  0.96120  0.63570  0.69290  1.0000 -0.2001580164
C   C60       1.0  0.94280  0.26830  0.30710  1.0000 -0.2001580164
C   C61       1.0  0.31340  0.06830  0.29090  1.0000 0.1869679395
C   C62       1.0  0.77740  0.02250  0.70910  1.0000 0.1869679395
C   C63       1.0  0.97750  0.68660  0.75490  1.0000 0.1869679395
C   C64       1.0  0.93170  0.22260  0.24510  1.0000 0.1869679395
C   C65       1.0  0.40980  0.16830  0.22410  1.0000 -0.2001580164
C   C66       1.0  0.94420  0.18570  0.77590  1.0000 -0.2001580164
C   C67       1.0  0.81430  0.59020  0.75850  1.0000 -0.2001580164
C   C68       1.0  0.83170  0.05580  0.24150  1.0000 -0.2001580164
C   C69       1.0  0.74720  0.32560  0.18280  1.0000 0.4324986938
C   C70       1.0  0.14280  0.56440  0.81720  1.0000 0.4324986938
C   C71       1.0  0.43560  0.25280  0.57840  1.0000 0.4324986938
C   C72       1.0  0.67440  0.85720  0.42160  1.0000 0.4324986938
N   N1        1.0  0.02970  0.91430  0.40600  1.0000 -0.3496726152
N   N2        1.0  0.50830  0.62370  0.59400  1.0000 -0.3496726152
N   N3        1.0  0.37630  0.97030  0.88460  1.0000 -0.3496726152
N   N4        1.0  0.08570  0.49170  0.11540  1.0000 -0.3496726152
N   N5        1.0  0.16950  0.98220  0.32170  1.0000 -0.0364987679
N   N6        1.0  0.66050  0.84780  0.67830  1.0000 -0.0364987679
N   N7        1.0  0.15220  0.83050  0.81270  1.0000 -0.0364987679
N   N8        1.0  0.01780  0.33950  0.18730  1.0000 -0.0364987679
O   O1        1.0  0.89670  0.48220  0.13090  1.0000 -0.4172893908
O   O2        1.0  0.35130  0.76580  0.86910  1.0000 -0.4172893908
O   O3        1.0  0.23420  0.10330  0.58550  1.0000 -0.4172893908
O   O4        1.0  0.51780  0.64870  0.41450  1.0000 -0.4172893908
O   O5        1.0  0.65050  0.16880  0.19930  1.0000 -0.1678162549
O   O6        1.0  0.96950  0.45120  0.80070  1.0000 -0.1678162549
O   O7        1.0  0.54880  0.34950  0.51830  1.0000 -0.1678162549
O   O8        1.0  0.83120  0.03050  0.48170  1.0000 -0.1678162549
O   O9        1.0  0.64010  0.60290  0.53500  1.0000 -0.7744962122
O   O10       1.0  0.06790  0.10510  0.46500  1.0000 -0.7744962122
O   O11       1.0  0.89490  0.35990  0.96280  1.0000 -0.7750259783
O   O12       1.0  0.39710  0.93210  0.03720  1.0000 -0.7744962122
O   O13       1.0  0.96220  0.49000  0.21220  1.0000 -0.0478762823
O   O14       1.0  0.27780  0.75000  0.78780  1.0000 -0.0478762823
O   O15       1.0  0.25000  0.03780  0.52780  1.0000 -0.0478762823
O   O16       1.0  0.51000  0.72220  0.47220  1.0000 -0.0478762823
