# DDEC6 charges by PACMAN v1.1 (https://github.com/mtap-research/PACMAN-charge/)
data_2015[Mn][nan]3[FSR]10
_chemical_formula_sum              "Mn6 H6 C24 O18"
_cell_length_a       15.3604
_cell_length_b       15.3604
_cell_length_c       15.3604
_cell_angle_alpha    117.692
_cell_angle_beta     117.692
_cell_angle_gamma    117.692

_symmetry_space_group_name_H-M    "P 1"
_symmetry_Int_Tables_number       1

loop_
  _symmetry_equiv_pos_as_xyz
  'x, y, z'

loop_
  _atom_site_type_symbol
  _atom_site_label
  _atom_site_symmetry_multiplicity
  _atom_site_fract_x
  _atom_site_fract_y
  _atom_site_fract_z
  _atom_site_occupancy
  _atom_site_charge
Mn  Mn1       1.0  0.71130  0.97950  0.39020  1.0000 0.9934896272
Mn  Mn2       1.0  0.97950  0.39020  0.71130  1.0000 0.9934896272
Mn  Mn3       1.0  0.39020  0.71130  0.97950  1.0000 0.9934896272
Mn  Mn4       1.0  0.28870  0.02050  0.60980  1.0000 0.9934896272
Mn  Mn5       1.0  0.02050  0.60980  0.28870  1.0000 0.9934896272
Mn  Mn6       1.0  0.60980  0.28870  0.02050  1.0000 0.9934896272
H   H1        1.0  0.86217  0.30981  0.83974  1.0000 0.1314994088
H   H2        1.0  0.30981  0.83974  0.86217  1.0000 0.1314994088
H   H3        1.0  0.83974  0.86217  0.30981  1.0000 0.1314994088
H   H4        1.0  0.13783  0.69019  0.16026  1.0000 0.1314994088
H   H5        1.0  0.69019  0.16026  0.13783  1.0000 0.1314994088
H   H6        1.0  0.16026  0.13783  0.69019  1.0000 0.1314994088
C   C1        1.0  0.33690  0.77080  0.16630  1.0000 0.6155627014
C   C2        1.0  0.77080  0.16630  0.33690  1.0000 0.6155627014
C   C3        1.0  0.16630  0.33690  0.77080  1.0000 0.6155627014
C   C4        1.0  0.66310  0.22920  0.83370  1.0000 0.6155627014
C   C5        1.0  0.22920  0.83370  0.66310  1.0000 0.6155627014
C   C6        1.0  0.83370  0.66310  0.22920  1.0000 0.6155627014
C   C7        1.0  0.43330  0.90190  0.34980  1.0000 -0.1359636916
C   C8        1.0  0.90190  0.34980  0.43330  1.0000 -0.1349312125
C   C9        1.0  0.34980  0.43330  0.90190  1.0000 -0.1359636916
C   C10       1.0  0.56670  0.09810  0.65020  1.0000 -0.1359636916
C   C11       1.0  0.09810  0.65020  0.56670  1.0000 -0.1359636916
C   C12       1.0  0.65020  0.56670  0.09810  1.0000 -0.1349312125
C   C13       1.0  0.64090  0.07720  0.54290  1.0000 0.2816518388
C   C14       1.0  0.07720  0.54290  0.64090  1.0000 0.2816518388
C   C15       1.0  0.54290  0.64090  0.07720  1.0000 0.2816518388
C   C16       1.0  0.35910  0.92280  0.45710  1.0000 0.2816518388
C   C17       1.0  0.92280  0.45710  0.35910  1.0000 0.2816518388
C   C18       1.0  0.45710  0.35910  0.92280  1.0000 0.2816518388
C   C19       1.0  0.70210  0.17370  0.69240  1.0000 -0.1980826987
C   C20       1.0  0.17370  0.69240  0.70210  1.0000 -0.1980826987
C   C21       1.0  0.69240  0.70210  0.17370  1.0000 -0.1980826987
C   C22       1.0  0.29790  0.82630  0.30760  1.0000 -0.1980826987
C   C23       1.0  0.82630  0.30760  0.29790  1.0000 -0.1980826987
C   C24       1.0  0.30760  0.29790  0.82630  1.0000 -0.1980826987
O   O1        1.0  0.15400  0.62230  0.99970  1.0000 -0.5265206952
O   O2        1.0  0.62230  0.99970  0.15400  1.0000 -0.5265206952
O   O3        1.0  0.99970  0.15400  0.62230  1.0000 -0.5265206952
O   O4        1.0  0.84600  0.37770  0.00030  1.0000 -0.5265206952
O   O5        1.0  0.37770  0.00030  0.84600  1.0000 -0.5265206952
O   O6        1.0  0.00030  0.84600  0.37770  1.0000 -0.5265206952
O   O7        1.0  0.42860  0.80670  0.16470  1.0000 -0.5698487022
O   O8        1.0  0.80670  0.16470  0.42860  1.0000 -0.5698487022
O   O9        1.0  0.16470  0.42860  0.80670  1.0000 -0.5698487022
O   O10       1.0  0.57140  0.19330  0.83530  1.0000 -0.5698487022
O   O11       1.0  0.19330  0.83530  0.57140  1.0000 -0.5698487022
O   O12       1.0  0.83530  0.57140  0.19330  1.0000 -0.5698487022
O   O13       1.0  0.75260  0.12270  0.55970  1.0000 -0.5921319483
O   O14       1.0  0.12270  0.55970  0.75260  1.0000 -0.5921319483
O   O15       1.0  0.55970  0.75260  0.12270  1.0000 -0.5921319483
O   O16       1.0  0.24740  0.87730  0.44030  1.0000 -0.5921319483
O   O17       1.0  0.87730  0.44030  0.24740  1.0000 -0.5921319483
O   O18       1.0  0.44030  0.24740  0.87730  1.0000 -0.5921319483
