# DDEC6 charges by PACMAN v1.1 (https://github.com/mtap-research/PACMAN-charge/)
data_2015[In][nou]3[FSR]1
_chemical_formula_sum              "In4 H24 C64 O32"
_cell_length_a       9.9554
_cell_length_b       17.0814
_cell_length_c       19.7244
_cell_angle_alpha    90
_cell_angle_beta     90
_cell_angle_gamma    90

_symmetry_space_group_name_H-M    "P 1"
_symmetry_Int_Tables_number       1

loop_
  _symmetry_equiv_pos_as_xyz
  'x, y, z'

loop_
  _atom_site_type_symbol
  _atom_site_label
  _atom_site_symmetry_multiplicity
  _atom_site_fract_x
  _atom_site_fract_y
  _atom_site_fract_z
  _atom_site_occupancy
  _atom_site_charge
In  In1       1.0  0.08612  0.84014  0.18128  1.0000 1.3587862925
In  In2       1.0  0.08612  0.15986  0.81872  1.0000 1.3587862925
In  In3       1.0  0.91388  0.65986  0.68128  1.0000 1.3587862925
In  In4       1.0  0.91388  0.34014  0.31872  1.0000 1.3587862925
H   H1        1.0  0.04830  0.90680  0.42350  1.0000 0.1339135749
H   H2        1.0  0.04830  0.09320  0.57650  1.0000 0.1339135749
H   H3        1.0  0.95170  0.59320  0.92350  1.0000 0.1339135749
H   H4        1.0  0.95170  0.40680  0.07650  1.0000 0.1339135749
H   H5        1.0  0.99220  0.07610  0.28210  1.0000 0.1521937998
H   H6        1.0  0.99220  0.92390  0.71790  1.0000 0.1521937998
H   H7        1.0  0.00780  0.42390  0.78210  1.0000 0.1521937998
H   H8        1.0  0.00780  0.57610  0.21790  1.0000 0.1521937998
H   H9        1.0  0.93460  0.12590  0.47990  1.0000 0.1361553559
H   H10       1.0  0.93460  0.87410  0.52010  1.0000 0.1361553559
H   H11       1.0  0.06540  0.37410  0.97990  1.0000 0.1361553559
H   H12       1.0  0.06540  0.62590  0.02010  1.0000 0.1361553559
H   H13       1.0  0.38600  0.96690  0.03950  1.0000 0.1339135749
H   H14       1.0  0.38600  0.03310  0.96050  1.0000 0.1339135749
H   H15       1.0  0.61400  0.53310  0.53950  1.0000 0.1339135749
H   H16       1.0  0.61400  0.46690  0.46050  1.0000 0.1339135749
H   H17       1.0  0.58250  0.84010  0.18330  1.0000 0.1521937998
H   H18       1.0  0.58250  0.15990  0.81670  1.0000 0.1521937998
H   H19       1.0  0.41750  0.65990  0.68330  1.0000 0.1521937998
H   H20       1.0  0.41750  0.34010  0.31670  1.0000 0.1521937998
H   H21       1.0  0.79180  0.95980  0.04180  1.0000 0.1521937998
H   H22       1.0  0.79180  0.04020  0.95820  1.0000 0.1521937998
H   H23       1.0  0.20820  0.54020  0.54180  1.0000 0.1521937998
H   H24       1.0  0.20820  0.45980  0.45820  1.0000 0.1521937998
C   C1        1.0  0.99040  0.01190  0.46390  1.0000 0.0796504004
C   C2        1.0  0.99040  0.98810  0.53610  1.0000 0.0796504004
C   C3        1.0  0.00960  0.48810  0.96390  1.0000 0.0796504004
C   C4        1.0  0.00960  0.51190  0.03610  1.0000 0.0796504004
C   C5        1.0  0.02480  0.95910  0.41240  1.0000 -0.1372334471
C   C6        1.0  0.02480  0.04090  0.58760  1.0000 -0.1372334471
C   C7        1.0  0.97520  0.54090  0.91240  1.0000 -0.1372334471
C   C8        1.0  0.97520  0.45910  0.08760  1.0000 -0.1372334471
C   C9        1.0  0.02460  0.98280  0.34590  1.0000 0.0261792919
C   C10       1.0  0.02460  0.01720  0.65410  1.0000 0.0261792919
C   C11       1.0  0.97540  0.51720  0.84590  1.0000 0.0261792919
C   C12       1.0  0.97540  0.48280  0.15410  1.0000 0.0261792919
C   C13       1.0  0.99170  0.05990  0.32810  1.0000 -0.0915376505
C   C14       1.0  0.99170  0.94010  0.67190  1.0000 -0.0915376505
C   C15       1.0  0.00830  0.44010  0.82810  1.0000 -0.0915376505
C   C16       1.0  0.00830  0.55990  0.17190  1.0000 -0.0915376505
C   C17       1.0  0.95840  0.11210  0.37960  1.0000 0.0216102422
C   C18       1.0  0.95840  0.88790  0.62040  1.0000 0.0216102422
C   C19       1.0  0.04160  0.38790  0.87960  1.0000 0.0216102422
C   C20       1.0  0.04160  0.61210  0.12040  1.0000 0.0216102422
C   C21       1.0  0.95770  0.08920  0.44560  1.0000 -0.1279555185
C   C22       1.0  0.95770  0.91080  0.55440  1.0000 -0.1279555185
C   C23       1.0  0.04230  0.41080  0.94560  1.0000 -0.1279555185
C   C24       1.0  0.04230  0.58920  0.05440  1.0000 -0.1279555185
C   C25       1.0  0.06090  0.92730  0.28920  1.0000 0.5470859733
C   C26       1.0  0.06090  0.07270  0.71080  1.0000 0.5470859733
C   C27       1.0  0.93910  0.57270  0.78920  1.0000 0.5470859733
C   C28       1.0  0.93910  0.42730  0.21080  1.0000 0.5470859733
C   C29       1.0  0.92590  0.19550  0.36030  1.0000 0.5470859733
C   C30       1.0  0.92590  0.80450  0.63970  1.0000 0.5470859733
C   C31       1.0  0.07410  0.30450  0.86030  1.0000 0.5470859733
C   C32       1.0  0.07410  0.69550  0.13970  1.0000 0.5470859733
C   C33       1.0  0.58630  0.97360  0.02960  1.0000 0.0796504004
C   C34       1.0  0.58630  0.02640  0.97040  1.0000 0.0796504004
C   C35       1.0  0.41370  0.52640  0.52960  1.0000 0.0796504004
C   C36       1.0  0.41370  0.47360  0.47040  1.0000 0.0796504004
C   C37       1.0  0.46800  0.94940  0.05890  1.0000 -0.1372334471
C   C38       1.0  0.46800  0.05060  0.94110  1.0000 -0.1372334471
C   C39       1.0  0.53200  0.55060  0.55890  1.0000 -0.1372334471
C   C40       1.0  0.53200  0.44940  0.44110  1.0000 -0.1372334471
C   C41       1.0  0.46160  0.90030  0.11610  1.0000 0.0216102422
C   C42       1.0  0.46160  0.09970  0.88390  1.0000 0.0216102422
C   C43       1.0  0.53840  0.59970  0.61610  1.0000 0.0216102422
C   C44       1.0  0.53840  0.40030  0.38390  1.0000 0.0216102422
C   C45       1.0  0.58260  0.87340  0.14470  1.0000 -0.0841348319
C   C46       1.0  0.58260  0.12660  0.85530  1.0000 -0.0841348319
C   C47       1.0  0.41740  0.62660  0.64470  1.0000 -0.0841348319
C   C48       1.0  0.41740  0.37340  0.35530  1.0000 -0.0841348319
C   C49       1.0  0.70060  0.89690  0.11520  1.0000 0.0216102422
C   C50       1.0  0.70060  0.10310  0.88480  1.0000 0.0216102422
C   C51       1.0  0.29940  0.60310  0.61520  1.0000 0.0216102422
C   C52       1.0  0.29940  0.39690  0.38480  1.0000 0.0216102422
C   C53       1.0  0.70700  0.94520  0.05990  1.0000 -0.1372334471
C   C54       1.0  0.70700  0.05480  0.94010  1.0000 -0.1372334471
C   C55       1.0  0.29300  0.55480  0.55990  1.0000 -0.1372334471
C   C56       1.0  0.29300  0.44520  0.44010  1.0000 -0.1372334471
C   C57       1.0  0.32750  0.87660  0.14220  1.0000 0.5366023557
C   C58       1.0  0.32750  0.12340  0.85780  1.0000 0.5366023557
C   C59       1.0  0.67250  0.62340  0.64220  1.0000 0.5366023557
C   C60       1.0  0.67250  0.37660  0.35780  1.0000 0.5366023557
C   C61       1.0  0.83360  0.87030  0.14290  1.0000 0.5470859733
C   C62       1.0  0.83360  0.12970  0.85710  1.0000 0.5470859733
C   C63       1.0  0.16640  0.62970  0.64290  1.0000 0.5470859733
C   C64       1.0  0.16640  0.37030  0.35710  1.0000 0.5470859733
O   O1        1.0  0.07350  0.85524  0.29948  1.0000 -0.4878596196
O   O2        1.0  0.07350  0.14476  0.70052  1.0000 -0.4878596196
O   O3        1.0  0.92650  0.64476  0.79948  1.0000 -0.4878596196
O   O4        1.0  0.92650  0.35524  0.20052  1.0000 -0.4878596196
O   O5        1.0  0.06980  0.95496  0.22936  1.0000 -0.5093688963
O   O6        1.0  0.06980  0.04504  0.77064  1.0000 -0.5093688963
O   O7        1.0  0.93020  0.54504  0.72936  1.0000 -0.5093688963
O   O8        1.0  0.93020  0.45496  0.27064  1.0000 -0.5093688963
O   O9        1.0  0.93050  0.21519  0.29863  1.0000 -0.4953482075
O   O10       1.0  0.93050  0.78481  0.70137  1.0000 -0.4953482075
O   O11       1.0  0.06950  0.28481  0.79863  1.0000 -0.4953482075
O   O12       1.0  0.06950  0.71519  0.20137  1.0000 -0.4953482075
O   O13       1.0  0.89970  0.24392  0.40554  1.0000 -0.4878596196
O   O14       1.0  0.89970  0.75608  0.59446  1.0000 -0.4878596196
O   O15       1.0  0.10030  0.25608  0.90554  1.0000 -0.4878596196
O   O16       1.0  0.10030  0.74392  0.09446  1.0000 -0.4878596196
O   O17       1.0  0.31620  0.83450  0.19374  1.0000 -0.5093688963
O   O18       1.0  0.31620  0.16550  0.80626  1.0000 -0.5093688963
O   O19       1.0  0.68380  0.66550  0.69374  1.0000 -0.5093688963
O   O20       1.0  0.68380  0.33450  0.30626  1.0000 -0.5093688963
O   O21       1.0  0.22600  0.90145  0.11067  1.0000 -0.4878596196
O   O22       1.0  0.22600  0.09855  0.88933  1.0000 -0.4878596196
O   O23       1.0  0.77400  0.59855  0.61067  1.0000 -0.4878596196
O   O24       1.0  0.77400  0.40145  0.38933  1.0000 -0.4878596196
O   O25       1.0  0.84130  0.83410  0.19710  1.0000 -0.4666684715
O   O26       1.0  0.84130  0.16590  0.80290  1.0000 -0.4666684715
O   O27       1.0  0.15870  0.66590  0.69710  1.0000 -0.4666684715
O   O28       1.0  0.15870  0.33410  0.30290  1.0000 -0.4666684715
O   O29       1.0  0.93810  0.88810  0.11040  1.0000 -0.4878596196
O   O30       1.0  0.93810  0.11190  0.88960  1.0000 -0.4878596196
O   O31       1.0  0.06190  0.61190  0.61040  1.0000 -0.4878596196
O   O32       1.0  0.06190  0.38810  0.38960  1.0000 -0.4878596196
