# DDEC6 charges by PACMAN v1.1 (https://github.com/mtap-research/PACMAN-charge/)
data_2015[Mn][bnn]3[FSR]1
_chemical_formula_sum              "Mn2 H12 C24 N4 O8"
_cell_length_a       9.4464
_cell_length_b       9.4464
_cell_length_c       9.247
_cell_angle_alpha    67.3895
_cell_angle_beta     112.611
_cell_angle_gamma    78.5425

_symmetry_space_group_name_H-M    "P 1"
_symmetry_Int_Tables_number       1

loop_
  _symmetry_equiv_pos_as_xyz
  'x, y, z'

loop_
  _atom_site_type_symbol
  _atom_site_label
  _atom_site_symmetry_multiplicity
  _atom_site_fract_x
  _atom_site_fract_y
  _atom_site_fract_z
  _atom_site_occupancy
  _atom_site_charge
Mn  Mn1       1.0  0.96539  0.96539  0.75000  1.0000 0.9189436943
Mn  Mn2       1.0  0.03461  0.03461  0.25000  1.0000 0.9189436943
H   H1        1.0  0.50910  0.73650  0.67690  1.0000 0.1404212773
H   H2        1.0  0.73650  0.50910  0.82310  1.0000 0.1404212773
H   H3        1.0  0.49090  0.26350  0.32310  1.0000 0.1404212773
H   H4        1.0  0.26350  0.49090  0.17690  1.0000 0.1404212773
H   H5        1.0  0.64570  0.14210  0.78630  1.0000 0.1153425708
H   H6        1.0  0.14210  0.64570  0.71370  1.0000 0.1153425708
H   H7        1.0  0.35430  0.85790  0.21370  1.0000 0.1153425708
H   H8        1.0  0.85790  0.35430  0.28630  1.0000 0.1153425708
H   H9        1.0  0.39100  0.13220  0.74730  1.0000 0.1404212773
H   H10       1.0  0.13220  0.39100  0.75270  1.0000 0.1404212773
H   H11       1.0  0.60900  0.86780  0.25270  1.0000 0.1404212773
H   H12       1.0  0.86780  0.60900  0.24730  1.0000 0.1404212773
C   C1        1.0  0.25499  0.92199  0.66850  1.0000 0.5678115994
C   C2        1.0  0.92199  0.25499  0.83150  1.0000 0.5678115994
C   C3        1.0  0.74501  0.07801  0.33150  1.0000 0.5678115994
C   C4        1.0  0.07801  0.74501  0.16850  1.0000 0.5678115994
C   C5        1.0  0.42140  0.93400  0.70540  1.0000 0.0358918332
C   C6        1.0  0.93400  0.42140  0.79460  1.0000 0.0358918332
C   C7        1.0  0.57860  0.06600  0.29460  1.0000 0.0358918332
C   C8        1.0  0.06600  0.57860  0.20540  1.0000 0.0358918332
C   C9        1.0  0.53656  0.81816  0.70420  1.0000 -0.2072223812
C   C10       1.0  0.81816  0.53656  0.79580  1.0000 -0.2072223812
C   C11       1.0  0.46344  0.18184  0.29580  1.0000 -0.2072223812
C   C12       1.0  0.18184  0.46344  0.20420  1.0000 -0.2072223812
C   C13       1.0  0.61890  0.05650  0.76760  1.0000 0.098741053
C   C14       1.0  0.05650  0.61890  0.73240  1.0000 0.098741053
C   C15       1.0  0.38110  0.94350  0.23240  1.0000 0.098741053
C   C16       1.0  0.94350  0.38110  0.26760  1.0000 0.098741053
C   C17       1.0  0.69249  0.82289  0.74320  1.0000 0.1625196099
C   C18       1.0  0.82289  0.69249  0.75680  1.0000 0.1625196099
C   C19       1.0  0.30751  0.17711  0.25680  1.0000 0.1625196099
C   C20       1.0  0.17711  0.30751  0.24320  1.0000 0.1625196099
C   C21       1.0  0.46520  0.05360  0.74110  1.0000 -0.1685176022
C   C22       1.0  0.05360  0.46520  0.75890  1.0000 -0.1685176022
C   C23       1.0  0.53480  0.94640  0.25890  1.0000 -0.1685176022
C   C24       1.0  0.94640  0.53480  0.24110  1.0000 -0.1685176022
N   N1        1.0  0.73231  0.94431  0.76820  1.0000 -0.274760285
N   N2        1.0  0.94431  0.73231  0.73180  1.0000 -0.2752124459
N   N3        1.0  0.26769  0.05569  0.23180  1.0000 -0.2752124459
N   N4        1.0  0.05569  0.26769  0.26820  1.0000 -0.2752124459
O   O1        1.0  0.20549  0.93489  0.77320  1.0000 -0.5235421747
O   O2        1.0  0.93489  0.20549  0.72680  1.0000 -0.5235421747
O   O3        1.0  0.79451  0.06511  0.22680  1.0000 -0.5235421747
O   O4        1.0  0.06511  0.79451  0.27320  1.0000 -0.5235421747
O   O5        1.0  0.18337  0.89217  0.54600  1.0000 -0.5462395042
O   O6        1.0  0.89217  0.18337  0.95400  1.0000 -0.5462395042
O   O7        1.0  0.81663  0.10783  0.45400  1.0000 -0.5462395042
O   O8        1.0  0.10783  0.81663  0.04600  1.0000 -0.5462395042
