# DDEC6 charges by PACMAN v1.1 (https://github.com/mtap-research/PACMAN-charge/)
data_2015[Zn][sra]3[FSR]2
_chemical_formula_sum              "Zn8 P8 H32 C36 N20 O44"
_cell_length_a       8.979
_cell_length_b       15.444
_cell_length_c       17.895
_cell_angle_alpha    90
_cell_angle_beta     90
_cell_angle_gamma    90

_symmetry_space_group_name_H-M    "P 1"
_symmetry_Int_Tables_number       1

loop_
  _symmetry_equiv_pos_as_xyz
  'x, y, z'

loop_
  _atom_site_type_symbol
  _atom_site_label
  _atom_site_symmetry_multiplicity
  _atom_site_fract_x
  _atom_site_fract_y
  _atom_site_fract_z
  _atom_site_occupancy
  _atom_site_charge
Zn  Zn1       1.0  0.05717  0.08578  0.39508  1.0000 0.9795021464
Zn  Zn2       1.0  0.55717  0.41422  0.60492  1.0000 0.9795021464
Zn  Zn3       1.0  0.94283  0.91422  0.89508  1.0000 0.9795021464
Zn  Zn4       1.0  0.44283  0.58578  0.10492  1.0000 0.9795021464
Zn  Zn5       1.0  0.94283  0.91422  0.60492  1.0000 0.9795021464
Zn  Zn6       1.0  0.44283  0.58578  0.39508  1.0000 0.9795021464
Zn  Zn7       1.0  0.05717  0.08578  0.10492  1.0000 0.9795021464
Zn  Zn8       1.0  0.55717  0.41422  0.89508  1.0000 0.9795021464
P   P1        1.0  0.23076  0.98674  0.51468  1.0000 1.3224907567
P   P2        1.0  0.73076  0.51326  0.48532  1.0000 1.3224907567
P   P3        1.0  0.76924  0.01326  0.01468  1.0000 1.3224907567
P   P4        1.0  0.26924  0.48674  0.98532  1.0000 1.3224907567
P   P5        1.0  0.76924  0.01326  0.48532  1.0000 1.3224907567
P   P6        1.0  0.26924  0.48674  0.51468  1.0000 1.3224907567
P   P7        1.0  0.23076  0.98674  0.98532  1.0000 1.3224907567
P   P8        1.0  0.73076  0.51326  0.01468  1.0000 1.3224907567
H   H1        1.0  0.20240  0.84850  0.46690  1.0000 0.1723990341
H   H2        1.0  0.70240  0.65150  0.53310  1.0000 0.1723990341
H   H3        1.0  0.79760  0.15150  0.96690  1.0000 0.1723990341
H   H4        1.0  0.29760  0.34850  0.03310  1.0000 0.1723990341
H   H5        1.0  0.79760  0.15150  0.53310  1.0000 0.1723990341
H   H6        1.0  0.29760  0.34850  0.46690  1.0000 0.1723990341
H   H7        1.0  0.20240  0.84850  0.03310  1.0000 0.1723990341
H   H8        1.0  0.70240  0.65150  0.96690  1.0000 0.1723990341
H   H9        1.0  0.09080  0.91150  0.42760  1.0000 0.1604544272
H   H10       1.0  0.59080  0.58850  0.57240  1.0000 0.1604544272
H   H11       1.0  0.90920  0.08850  0.92760  1.0000 0.1604544272
H   H12       1.0  0.40920  0.41150  0.07240  1.0000 0.1604544272
H   H13       1.0  0.90920  0.08850  0.57240  1.0000 0.1604544272
H   H14       1.0  0.40920  0.41150  0.42760  1.0000 0.1604544272
H   H15       1.0  0.09080  0.91150  0.07240  1.0000 0.1604544272
H   H16       1.0  0.59080  0.58850  0.92760  1.0000 0.1604544272
H   H17       1.0  0.47330  0.86350  0.42590  1.0000 0.1764062842
H   H18       1.0  0.97330  0.63650  0.57410  1.0000 0.1764062842
H   H19       1.0  0.52670  0.13650  0.92590  1.0000 0.1764062842
H   H20       1.0  0.02670  0.36350  0.07410  1.0000 0.1764062842
H   H21       1.0  0.52670  0.13650  0.57410  1.0000 0.1764062842
H   H22       1.0  0.02670  0.36350  0.42590  1.0000 0.1764062842
H   H23       1.0  0.47330  0.86350  0.07410  1.0000 0.1764062842
H   H24       1.0  0.97330  0.63650  0.92590  1.0000 0.1764062842
H   H25       1.0  0.48360  0.86720  0.33870  1.0000 0.1604544272
H   H26       1.0  0.98360  0.63280  0.66130  1.0000 0.1604544272
H   H27       1.0  0.51640  0.13280  0.83870  1.0000 0.1604544272
H   H28       1.0  0.01640  0.36720  0.16130  1.0000 0.1604544272
H   H29       1.0  0.51640  0.13280  0.66130  1.0000 0.1604544272
H   H30       1.0  0.01640  0.36720  0.33870  1.0000 0.1604544272
H   H31       1.0  0.48360  0.86720  0.16130  1.0000 0.1604544272
H   H32       1.0  0.98360  0.63280  0.83870  1.0000 0.1604544272
C   C1        1.0  0.19320  0.90510  0.44400  1.0000 -0.3935142706
C   C2        1.0  0.69320  0.59490  0.55600  1.0000 -0.3935142706
C   C3        1.0  0.80680  0.09490  0.94400  1.0000 -0.3935142706
C   C4        1.0  0.30680  0.40510  0.05600  1.0000 -0.3935142706
C   C5        1.0  0.80680  0.09490  0.55600  1.0000 -0.3935142706
C   C6        1.0  0.30680  0.40510  0.44400  1.0000 -0.3935142706
C   C7        1.0  0.19320  0.90510  0.05600  1.0000 -0.3935142706
C   C8        1.0  0.69320  0.59490  0.94400  1.0000 -0.3935142706
C   C9        1.0  0.41890  0.85210  0.38010  1.0000 -0.1941605999
C   C10       1.0  0.91890  0.64790  0.61990  1.0000 -0.1941605999
C   C11       1.0  0.58110  0.14790  0.88010  1.0000 -0.1941605999
C   C12       1.0  0.08110  0.35210  0.11990  1.0000 -0.1941605999
C   C13       1.0  0.58110  0.14790  0.61990  1.0000 -0.1941605999
C   C14       1.0  0.08110  0.35210  0.38010  1.0000 -0.1941605999
C   C15       1.0  0.41890  0.85210  0.11990  1.0000 -0.1941605999
C   C16       1.0  0.91890  0.64790  0.88010  1.0000 -0.1941605999
C   C17       1.0  0.38600  0.75660  0.37600  1.0000 0.6231561949
C   C18       1.0  0.88600  0.74340  0.62400  1.0000 0.6231561949
C   C19       1.0  0.61400  0.24340  0.87600  1.0000 0.6231561949
C   C20       1.0  0.11400  0.25660  0.12400  1.0000 0.6231561949
C   C21       1.0  0.61400  0.24340  0.62400  1.0000 0.6231561949
C   C22       1.0  0.11400  0.25660  0.37600  1.0000 0.6231561949
C   C23       1.0  0.38600  0.75660  0.12400  1.0000 0.6231561949
C   C24       1.0  0.88600  0.74340  0.87600  1.0000 0.6231561949
C   C25       1.0  0.24470  0.94370  0.31290  1.0000 0.5186283042
C   C26       1.0  0.74470  0.55630  0.68710  1.0000 0.5186283042
C   C27       1.0  0.75530  0.05630  0.81290  1.0000 0.5186283042
C   C28       1.0  0.25530  0.44370  0.18710  1.0000 0.5186283042
C   C29       1.0  0.75530  0.05630  0.68710  1.0000 0.5186283042
C   C30       1.0  0.25530  0.44370  0.31290  1.0000 0.5186283042
C   C31       1.0  0.24470  0.94370  0.18710  1.0000 0.5186283042
C   C32       1.0  0.74470  0.55630  0.81290  1.0000 0.5186283042
C   C33       1.0  0.08710  0.03660  0.25000  1.0000 0.6364598324
C   C34       1.0  0.58710  0.46340  0.75000  1.0000 0.6364598324
C   C35       1.0  0.91290  0.96340  0.75000  1.0000 0.6364598324
C   C36       1.0  0.41290  0.53660  0.25000  1.0000 0.6364598324
N   N1        1.0  0.29010  0.90810  0.37810  1.0000 -0.0011755334
N   N2        1.0  0.79010  0.59190  0.62190  1.0000 -0.0011755334
N   N3        1.0  0.70990  0.09190  0.87810  1.0000 -0.0011755334
N   N4        1.0  0.20990  0.40810  0.12190  1.0000 -0.0011755334
N   N5        1.0  0.70990  0.09190  0.62190  1.0000 -0.0011755334
N   N6        1.0  0.20990  0.40810  0.37810  1.0000 -0.0011755334
N   N7        1.0  0.29010  0.90810  0.12190  1.0000 -0.0011755334
N   N8        1.0  0.79010  0.59190  0.87810  1.0000 -0.0011755334
N   N9        1.0  0.13680  0.00410  0.31630  1.0000 -0.5159086237
N   N10       1.0  0.63680  0.49590  0.68370  1.0000 -0.5159086237
N   N11       1.0  0.86320  0.99590  0.81630  1.0000 -0.5159086237
N   N12       1.0  0.36320  0.50410  0.18370  1.0000 -0.5159086237
N   N13       1.0  0.86320  0.99590  0.68370  1.0000 -0.5159086237
N   N14       1.0  0.36320  0.50410  0.31630  1.0000 -0.5159086237
N   N15       1.0  0.13680  0.00410  0.18370  1.0000 -0.5159086237
N   N16       1.0  0.63680  0.49590  0.81630  1.0000 -0.5159086237
N   N17       1.0  0.30500  0.91520  0.25000  1.0000 -0.4473938296
N   N18       1.0  0.80500  0.58480  0.75000  1.0000 -0.4473938296
N   N19       1.0  0.69500  0.08480  0.75000  1.0000 -0.4473938296
N   N20       1.0  0.19500  0.41520  0.25000  1.0000 -0.4473938296
O   O1        1.0  0.19540  0.07380  0.48000  1.0000 -0.7100883524
O   O2        1.0  0.69540  0.42620  0.52000  1.0000 -0.7100883524
O   O3        1.0  0.80460  0.92620  0.98000  1.0000 -0.7100883524
O   O4        1.0  0.30460  0.57380  0.02000  1.0000 -0.7100883524
O   O5        1.0  0.80460  0.92620  0.52000  1.0000 -0.7100883524
O   O6        1.0  0.30460  0.57380  0.48000  1.0000 -0.7100883524
O   O7        1.0  0.19540  0.07380  0.02000  1.0000 -0.7100883524
O   O8        1.0  0.69540  0.42620  0.98000  1.0000 -0.7100883524
O   O9        1.0  0.13510  0.96450  0.58070  1.0000 -0.7030007492
O   O10       1.0  0.63510  0.53550  0.41930  1.0000 -0.7030007492
O   O11       1.0  0.86490  0.03550  0.08070  1.0000 -0.7030007492
O   O12       1.0  0.36490  0.46450  0.91930  1.0000 -0.7030007492
O   O13       1.0  0.86490  0.03550  0.41930  1.0000 -0.7030007492
O   O14       1.0  0.36490  0.46450  0.58070  1.0000 -0.7030007492
O   O15       1.0  0.13510  0.96450  0.91930  1.0000 -0.7030007492
O   O16       1.0  0.63510  0.53550  0.08070  1.0000 -0.7030007492
O   O17       1.0  0.39340  0.98090  0.53750  1.0000 -0.5761314209
O   O18       1.0  0.89340  0.51910  0.46250  1.0000 -0.5761314209
O   O19       1.0  0.60660  0.01910  0.03750  1.0000 -0.5761314209
O   O20       1.0  0.10660  0.48090  0.96250  1.0000 -0.5761314209
O   O21       1.0  0.60660  0.01910  0.46250  1.0000 -0.5761314209
O   O22       1.0  0.10660  0.48090  0.53750  1.0000 -0.5761314209
O   O23       1.0  0.39340  0.98090  0.96250  1.0000 -0.5761314209
O   O24       1.0  0.89340  0.51910  0.03750  1.0000 -0.5761314209
O   O25       1.0  0.49700  0.70870  0.39210  1.0000 -0.4657275627
O   O26       1.0  0.99700  0.79130  0.60790  1.0000 -0.4657275627
O   O27       1.0  0.50300  0.29130  0.89210  1.0000 -0.4657275627
O   O28       1.0  0.00300  0.20870  0.10790  1.0000 -0.4657275627
O   O29       1.0  0.50300  0.29130  0.60790  1.0000 -0.4657275627
O   O30       1.0  0.00300  0.20870  0.39210  1.0000 -0.4657275627
O   O31       1.0  0.49700  0.70870  0.10790  1.0000 -0.4657275627
O   O32       1.0  0.99700  0.79130  0.89210  1.0000 -0.4657275627
O   O33       1.0  0.26270  0.72820  0.35950  1.0000 -0.4289167772
O   O34       1.0  0.76270  0.77180  0.64050  1.0000 -0.4289167772
O   O35       1.0  0.73730  0.27180  0.85950  1.0000 -0.4289167772
O   O36       1.0  0.23730  0.22820  0.14050  1.0000 -0.4289167772
O   O37       1.0  0.73730  0.27180  0.64050  1.0000 -0.4289167772
O   O38       1.0  0.23730  0.22820  0.35950  1.0000 -0.4289167772
O   O39       1.0  0.26270  0.72820  0.14050  1.0000 -0.4289167772
O   O40       1.0  0.76270  0.77180  0.85950  1.0000 -0.4289167772
O   O41       1.0  0.99510  0.09540  0.25000  1.0000 -0.4388013731
O   O42       1.0  0.49510  0.40460  0.75000  1.0000 -0.4388013731
O   O43       1.0  0.00490  0.90460  0.75000  1.0000 -0.4388013731
O   O44       1.0  0.50490  0.59540  0.25000  1.0000 -0.4388013731
