# DDEC6 charges by PACMAN v1.1 (https://github.com/mtap-research/PACMAN-charge/)
data_2015[AgEu][nan]3[FSR]1
_chemical_formula_sum              "Eu4 Ag4 H32 C56 N8 O32"
_cell_length_a       12.0404
_cell_length_b       12.0404
_cell_length_c       16.865
_cell_angle_alpha    83.4578
_cell_angle_beta     96.5422
_cell_angle_gamma    133.4

_symmetry_space_group_name_H-M    "P 1"
_symmetry_Int_Tables_number       1

loop_
  _symmetry_equiv_pos_as_xyz
  'x, y, z'

loop_
  _atom_site_type_symbol
  _atom_site_label
  _atom_site_symmetry_multiplicity
  _atom_site_fract_x
  _atom_site_fract_y
  _atom_site_fract_z
  _atom_site_occupancy
  _atom_site_charge
Eu  Eu1       1.0  0.30484  0.29584  0.43425  1.0000 2.0689221478
Eu  Eu2       1.0  0.29584  0.30484  0.06575  1.0000 2.0689221478
Eu  Eu3       1.0  0.69516  0.70416  0.56575  1.0000 2.0689221478
Eu  Eu4       1.0  0.70416  0.69516  0.93425  1.0000 2.0689221478
Ag  Ag1       1.0  0.27913  0.96181  0.58359  1.0000 0.3273498422
Ag  Ag2       1.0  0.96181  0.27913  0.91641  1.0000 0.3273498422
Ag  Ag3       1.0  0.72087  0.03819  0.41641  1.0000 0.3273498422
Ag  Ag4       1.0  0.03819  0.72087  0.08359  1.0000 0.3273498422
H   H1        1.0  0.03270  0.13450  0.66750  1.0000 0.1421457461
H   H2        1.0  0.13450  0.03270  0.83250  1.0000 0.1421457461
H   H3        1.0  0.96730  0.86550  0.33250  1.0000 0.1421457461
H   H4        1.0  0.86550  0.96730  0.16750  1.0000 0.1421457461
H   H5        1.0  0.40940  0.82560  0.54280  1.0000 0.1127772188
H   H6        1.0  0.82560  0.40940  0.95720  1.0000 0.1127772188
H   H7        1.0  0.59060  0.17440  0.45720  1.0000 0.1127772188
H   H8        1.0  0.17440  0.59060  0.04280  1.0000 0.1127772188
H   H9        1.0  0.38170  0.57290  0.72070  1.0000 0.1519870019
H   H10       1.0  0.57290  0.38170  0.77930  1.0000 0.1519870019
H   H11       1.0  0.61830  0.42710  0.27930  1.0000 0.1519870019
H   H12       1.0  0.42710  0.61830  0.22070  1.0000 0.1519870019
H   H13       1.0  0.90930  0.10810  0.77280  1.0000 0.1195808419
H   H14       1.0  0.10810  0.90930  0.72720  1.0000 0.1195808419
H   H15       1.0  0.09070  0.89190  0.22720  1.0000 0.1195808419
H   H16       1.0  0.89190  0.09070  0.27280  1.0000 0.1195808419
H   H17       1.0  0.13550  0.50710  0.38270  1.0000 0.1421457461
H   H18       1.0  0.50710  0.13550  0.11730  1.0000 0.1421457461
H   H19       1.0  0.86450  0.49290  0.61730  1.0000 0.1421457461
H   H20       1.0  0.49290  0.86450  0.88270  1.0000 0.1421457461
H   H21       1.0  0.05190  0.75030  0.44850  1.0000 0.1195808419
H   H22       1.0  0.75030  0.05190  0.05150  1.0000 0.1195808419
H   H23       1.0  0.94810  0.24970  0.55150  1.0000 0.1195808419
H   H24       1.0  0.24970  0.94810  0.94850  1.0000 0.1195808419
H   H25       1.0  0.99080  0.56940  0.36990  1.0000 0.1195808419
H   H26       1.0  0.56940  0.99080  0.13010  1.0000 0.1195808419
H   H27       1.0  0.00920  0.43060  0.63010  1.0000 0.1195808419
H   H28       1.0  0.43060  0.00920  0.86990  1.0000 0.1195808419
H   H29       1.0  0.24050  0.53350  0.81950  1.0000 0.1037716052
H   H30       1.0  0.53350  0.24050  0.68050  1.0000 0.1037716052
H   H31       1.0  0.75950  0.46650  0.18050  1.0000 0.1037716052
H   H32       1.0  0.46650  0.75950  0.31950  1.0000 0.1037716052
C   C1        1.0  0.22680  0.35600  0.68490  1.0000 0.0178831598
C   C2        1.0  0.35600  0.22680  0.81510  1.0000 0.0178831598
C   C3        1.0  0.77320  0.64400  0.31510  1.0000 0.0178831598
C   C4        1.0  0.64400  0.77320  0.18490  1.0000 0.0178831598
C   C5        1.0  0.38860  0.62740  0.47540  1.0000 0.6146469123
C   C6        1.0  0.62740  0.38860  0.02460  1.0000 0.6146469123
C   C7        1.0  0.61140  0.37260  0.52460  1.0000 0.6146469123
C   C8        1.0  0.37260  0.61140  0.97540  1.0000 0.6146469123
C   C9        1.0  0.32080  0.37820  0.62150  1.0000 0.6202665127
C   C10       1.0  0.37820  0.32080  0.87850  1.0000 0.6202665127
C   C11       1.0  0.67920  0.62180  0.37850  1.0000 0.6202665127
C   C12       1.0  0.62180  0.67920  0.12150  1.0000 0.6202665127
C   C13       1.0  0.08000  0.21660  0.69920  1.0000 -0.1559571469
C   C14       1.0  0.21660  0.08000  0.80080  1.0000 -0.1559571469
C   C15       1.0  0.92000  0.78340  0.30080  1.0000 -0.1559571469
C   C16       1.0  0.78340  0.92000  0.19920  1.0000 -0.1559571469
C   C17       1.0  0.29080  0.66360  0.46360  1.0000 -0.0756185589
C   C18       1.0  0.66360  0.29080  0.03640  1.0000 -0.0756185589
C   C19       1.0  0.70920  0.33640  0.53640  1.0000 -0.0756185589
C   C20       1.0  0.33640  0.70920  0.96360  1.0000 -0.0756185589
C   C21       1.0  0.32340  0.77260  0.50780  1.0000 0.0328981584
C   C22       1.0  0.77260  0.32340  0.99220  1.0000 0.0328981584
C   C23       1.0  0.67660  0.22740  0.49220  1.0000 0.0328981584
C   C24       1.0  0.22740  0.67660  0.00780  1.0000 0.0328981584
C   C25       1.0  0.22190  0.29250  0.24450  1.0000 0.4726312316
C   C26       1.0  0.29250  0.22190  0.25550  1.0000 0.4726312316
C   C27       1.0  0.77810  0.70750  0.75550  1.0000 0.4726312316
C   C28       1.0  0.70750  0.77810  0.74450  1.0000 0.4726312316
C   C29       1.0  0.28580  0.47640  0.73020  1.0000 -0.1427465
C   C30       1.0  0.47640  0.28580  0.76980  1.0000 -0.1427465
C   C31       1.0  0.71420  0.52360  0.26980  1.0000 -0.1427465
C   C32       1.0  0.52360  0.71420  0.23020  1.0000 -0.1427465
C   C33       1.0  0.00560  0.20280  0.76170  1.0000 0.0742423689
C   C34       1.0  0.20280  0.00560  0.73830  1.0000 0.0742423689
C   C35       1.0  0.99440  0.79720  0.23830  1.0000 0.0742423689
C   C36       1.0  0.79720  0.99440  0.26170  1.0000 0.0742423689
C   C37       1.0  0.16240  0.58380  0.41230  1.0000 -0.0538166309
C   C38       1.0  0.58380  0.16240  0.08770  1.0000 -0.0538166309
C   C39       1.0  0.83760  0.41620  0.58770  1.0000 -0.0538166309
C   C40       1.0  0.41620  0.83760  0.91230  1.0000 -0.0538166309
C   C41       1.0  0.11340  0.72900  0.45220  1.0000 0.0742423689
C   C42       1.0  0.72900  0.11340  0.04780  1.0000 0.0742423689
C   C43       1.0  0.88660  0.27100  0.54780  1.0000 0.0742423689
C   C44       1.0  0.27100  0.88660  0.95220  1.0000 0.0742423689
C   C45       1.0  0.07550  0.61930  0.40570  1.0000 -0.1427465
C   C46       1.0  0.61930  0.07550  0.09430  1.0000 -0.1427465
C   C47       1.0  0.92450  0.38070  0.59430  1.0000 -0.1427465
C   C48       1.0  0.38070  0.92450  0.90570  1.0000 -0.1427465
C   C49       1.0  0.19990  0.45130  0.78970  1.0000 0.0763088769
C   C50       1.0  0.45130  0.19990  0.71030  1.0000 0.0763088769
C   C51       1.0  0.80010  0.54870  0.21030  1.0000 0.0763088769
C   C52       1.0  0.54870  0.80010  0.28970  1.0000 0.0763088769
C   C53       1.0  0.03580  0.96640  0.51170  1.0000 0.4862568533
C   C54       1.0  0.96640  0.03580  0.98830  1.0000 0.4862568533
C   C55       1.0  0.96420  0.03360  0.48830  1.0000 0.4862568533
C   C56       1.0  0.03360  0.96420  0.01170  1.0000 0.4862568533
N   N1        1.0  0.23840  0.80680  0.50340  1.0000 -0.1789514118
N   N2        1.0  0.80680  0.23840  0.99660  1.0000 -0.1789514118
N   N3        1.0  0.76160  0.19320  0.49660  1.0000 -0.1789514118
N   N4        1.0  0.19320  0.76160  0.00340  1.0000 -0.1789514118
N   N5        1.0  0.06420  0.31760  0.80670  1.0000 -0.1789514118
N   N6        1.0  0.31760  0.06420  0.69330  1.0000 -0.1789514118
N   N7        1.0  0.93580  0.68240  0.19330  1.0000 -0.1789514118
N   N8        1.0  0.68240  0.93580  0.30670  1.0000 -0.1789514118
O   O1        1.0  0.18110  0.30430  0.17510  1.0000 -0.5900717521
O   O2        1.0  0.30430  0.18110  0.32490  1.0000 -0.5900717521
O   O3        1.0  0.81890  0.69570  0.82490  1.0000 -0.5900717521
O   O4        1.0  0.69570  0.81890  0.67510  1.0000 -0.5900717521
O   O5        1.0  0.33150  0.50250  0.45270  1.0000 -0.6494946101
O   O6        1.0  0.50250  0.33150  0.04730  1.0000 -0.6494946101
O   O7        1.0  0.66850  0.49750  0.54730  1.0000 -0.6494946101
O   O8        1.0  0.49750  0.66850  0.95270  1.0000 -0.6494946101
O   O9        1.0  0.21020  0.33060  0.30660  1.0000 -0.5900717521
O   O10       1.0  0.33060  0.21020  0.19340  1.0000 -0.5900717521
O   O11       1.0  0.78980  0.66940  0.69340  1.0000 -0.5900717521
O   O12       1.0  0.66940  0.78980  0.80660  1.0000 -0.5900717521
O   O13       1.0  0.25370  0.27350  0.57360  1.0000 -0.6494946101
O   O14       1.0  0.27350  0.25370  0.92640  1.0000 -0.6494946101
O   O15       1.0  0.74630  0.72650  0.42640  1.0000 -0.6494946101
O   O16       1.0  0.72650  0.74630  0.07360  1.0000 -0.6494946101
O   O17       1.0  0.16002  0.03298  0.48220  1.0000 -0.5682256216
O   O18       1.0  0.03298  0.16002  0.01780  1.0000 -0.5682256216
O   O19       1.0  0.83998  0.96702  0.51780  1.0000 -0.5682256216
O   O20       1.0  0.96702  0.83998  0.98220  1.0000 -0.5682256216
O   O21       1.0  0.52082  0.72738  0.50550  1.0000 -0.6409212494
O   O22       1.0  0.72738  0.52082  0.99450  1.0000 -0.6409212494
O   O23       1.0  0.47918  0.27262  0.49450  1.0000 -0.6409212494
O   O24       1.0  0.27262  0.47918  0.00550  1.0000 -0.6409212494
O   O25       1.0  0.45730  0.49910  0.62200  1.0000 -0.6634648883
O   O26       1.0  0.49910  0.45730  0.87800  1.0000 -0.6634648883
O   O27       1.0  0.54270  0.50090  0.37800  1.0000 -0.6634648883
O   O28       1.0  0.50090  0.54270  0.12200  1.0000 -0.6634648883
O   O29       1.0  0.96645  0.85215  0.55990  1.0000 -0.5966856325
O   O30       1.0  0.85215  0.96645  0.94010  1.0000 -0.5966856325
O   O31       1.0  0.03355  0.14785  0.44010  1.0000 -0.5966856325
O   O32       1.0  0.14785  0.03355  0.05990  1.0000 -0.5966856325
