# DDEC6 charges by PACMAN v1.1 (https://github.com/mtap-research/PACMAN-charge/)
data_2015[Mn][nan]3[FSR]13
_chemical_formula_sum              "Mn4 H32 C48 S8 N8 O20"
_cell_length_a       13.9129
_cell_length_b       13.9129
_cell_length_c       9.7046
_cell_angle_alpha    86.7321
_cell_angle_beta     93.2679
_cell_angle_gamma    109.609

_symmetry_space_group_name_H-M    "P 1"
_symmetry_Int_Tables_number       1

loop_
  _symmetry_equiv_pos_as_xyz
  'x, y, z'

loop_
  _atom_site_type_symbol
  _atom_site_label
  _atom_site_symmetry_multiplicity
  _atom_site_fract_x
  _atom_site_fract_y
  _atom_site_fract_z
  _atom_site_occupancy
  _atom_site_charge
Mn  Mn1       1.0  0.00000  0.00000  0.00000  1.0000 1.0745865944
Mn  Mn2       1.0  0.00000  0.00000  0.50000  1.0000 1.0745865944
Mn  Mn3       1.0  0.83078  0.83078  0.75000  1.0000 1.059810603
Mn  Mn4       1.0  0.16922  0.16922  0.25000  1.0000 1.059810603
H   H1        1.0  0.88460  0.76920  0.31940  1.0000 0.119525968
H   H2        1.0  0.76920  0.88460  0.18060  1.0000 0.119525968
H   H3        1.0  0.11540  0.23080  0.68060  1.0000 0.119525968
H   H4        1.0  0.23080  0.11540  0.81940  1.0000 0.119525968
H   H5        1.0  0.73890  0.43550  0.18740  1.0000 0.119525968
H   H6        1.0  0.43550  0.73890  0.31260  1.0000 0.119525968
H   H7        1.0  0.26110  0.56450  0.81260  1.0000 0.119525968
H   H8        1.0  0.56450  0.26110  0.68740  1.0000 0.119525968
H   H9        1.0  0.80030  0.56610  0.01820  1.0000 0.119525968
H   H10       1.0  0.56610  0.80030  0.48180  1.0000 0.119525968
H   H11       1.0  0.19970  0.43390  0.98180  1.0000 0.119525968
H   H12       1.0  0.43390  0.19970  0.51820  1.0000 0.119525968
H   H13       1.0  0.96190  0.25770  0.41650  1.0000 0.1109379101
H   H14       1.0  0.25770  0.96190  0.08350  1.0000 0.1109379101
H   H15       1.0  0.03810  0.74230  0.58350  1.0000 0.1109379101
H   H16       1.0  0.74230  0.03810  0.91650  1.0000 0.1109379101
H   H17       1.0  0.73680  0.06860  0.18440  1.0000 0.119525968
H   H18       1.0  0.06860  0.73680  0.31560  1.0000 0.119525968
H   H19       1.0  0.26320  0.93140  0.81560  1.0000 0.119525968
H   H20       1.0  0.93140  0.26320  0.68440  1.0000 0.119525968
H   H21       1.0  0.62530  0.14890  0.25150  1.0000 0.1273939851
H   H22       1.0  0.14890  0.62530  0.24850  1.0000 0.1273939851
H   H23       1.0  0.37470  0.85110  0.74850  1.0000 0.1273939851
H   H24       1.0  0.85110  0.37470  0.75150  1.0000 0.1273939851
H   H25       1.0  0.67300  0.79900  0.92300  1.0000 0.2888557259
H   H26       1.0  0.79900  0.67300  0.57700  1.0000 0.2888557259
H   H27       1.0  0.32700  0.20100  0.07700  1.0000 0.2888557259
H   H28       1.0  0.20100  0.32700  0.42300  1.0000 0.2888557259
H   H29       1.0  0.63660  0.82140  0.80200  1.0000 0.3122440371
H   H30       1.0  0.82140  0.63660  0.69800  1.0000 0.3122440371
H   H31       1.0  0.36340  0.17860  0.19800  1.0000 0.3122440371
H   H32       1.0  0.17860  0.36340  0.30200  1.0000 0.3122440371
C   C1        1.0  0.88301  0.76843  0.04680  1.0000 0.585475171
C   C2        1.0  0.76843  0.88301  0.45320  1.0000 0.585475171
C   C3        1.0  0.11699  0.23157  0.95320  1.0000 0.585475171
C   C4        1.0  0.23157  0.11699  0.54680  1.0000 0.585475171
C   C5        1.0  0.84710  0.68194  0.15180  1.0000 -0.0685088039
C   C6        1.0  0.68194  0.84710  0.34820  1.0000 -0.0685088039
C   C7        1.0  0.15290  0.31806  0.84820  1.0000 -0.0685088039
C   C8        1.0  0.31806  0.15290  0.65180  1.0000 -0.0685088039
C   C9        1.0  0.85284  0.70092  0.29160  1.0000 0.0663097668
C   C10       1.0  0.70092  0.85284  0.20840  1.0000 0.0663097668
C   C11       1.0  0.14716  0.29908  0.70840  1.0000 0.0663097668
C   C12       1.0  0.29908  0.14716  0.79160  1.0000 0.0663097668
C   C13       1.0  0.77319  0.53191  0.34810  1.0000 0.1956447307
C   C14       1.0  0.53191  0.77319  0.15190  1.0000 0.1956447307
C   C15       1.0  0.22681  0.46809  0.65190  1.0000 0.1956447307
C   C16       1.0  0.46809  0.22681  0.84810  1.0000 0.1956447307
C   C17       1.0  0.76736  0.50484  0.21180  1.0000 -0.1862360593
C   C18       1.0  0.50484  0.76736  0.28820  1.0000 -0.1862360593
C   C19       1.0  0.23264  0.49516  0.78820  1.0000 -0.1862360593
C   C20       1.0  0.49516  0.23264  0.71180  1.0000 -0.1862360593
C   C21       1.0  0.80422  0.58178  0.11280  1.0000 -0.0418981584
C   C22       1.0  0.58178  0.80422  0.38720  1.0000 -0.0418981584
C   C23       1.0  0.19578  0.41822  0.88720  1.0000 -0.0418981584
C   C24       1.0  0.41822  0.19578  0.61280  1.0000 -0.0418981584
C   C25       1.0  0.73389  0.25347  0.36340  1.0000 0.1808876935
C   C26       1.0  0.25347  0.73389  0.13660  1.0000 0.1808876935
C   C27       1.0  0.26611  0.74653  0.63660  1.0000 0.1808876935
C   C28       1.0  0.74653  0.26611  0.86340  1.0000 0.1808876935
C   C29       1.0  0.89379  0.23701  0.37930  1.0000 0.0663097668
C   C30       1.0  0.23701  0.89379  0.12070  1.0000 0.0663097668
C   C31       1.0  0.10621  0.76299  0.62070  1.0000 0.0663097668
C   C32       1.0  0.76299  0.10621  0.87930  1.0000 0.0663097668
C   C33       1.0  0.86148  0.15604  0.29220  1.0000 -0.0621929747
C   C34       1.0  0.15604  0.86148  0.20780  1.0000 -0.0621929747
C   C35       1.0  0.13852  0.84396  0.70780  1.0000 -0.0621929747
C   C36       1.0  0.84396  0.13852  0.79220  1.0000 -0.0621929747
C   C37       1.0  0.76082  0.12422  0.24410  1.0000 -0.0418981584
C   C38       1.0  0.12422  0.76082  0.25590  1.0000 -0.0418981584
C   C39       1.0  0.23918  0.87578  0.75590  1.0000 -0.0418981584
C   C40       1.0  0.87578  0.23918  0.74410  1.0000 -0.0418981584
C   C41       1.0  0.69525  0.17191  0.28150  1.0000 -0.1838621404
C   C42       1.0  0.17191  0.69525  0.21850  1.0000 -0.1838621404
C   C43       1.0  0.30475  0.82809  0.71850  1.0000 -0.1838621404
C   C44       1.0  0.82809  0.30475  0.78150  1.0000 -0.1838621404
C   C45       1.0  0.93658  0.10926  0.24660  1.0000 0.6141768936
C   C46       1.0  0.10926  0.93658  0.25340  1.0000 0.6141768936
C   C47       1.0  0.06342  0.89074  0.75340  1.0000 0.6141768936
C   C48       1.0  0.89074  0.06342  0.74660  1.0000 0.6141768936
S   S1        1.0  0.72677  0.44451  0.48971  1.0000 -0.0100804624
S   S2        1.0  0.44451  0.72677  0.01029  1.0000 -0.0100804624
S   S3        1.0  0.27323  0.55549  0.51029  1.0000 -0.0100804624
S   S4        1.0  0.55549  0.27323  0.98971  1.0000 -0.0100804624
S   S5        1.0  0.64310  0.31318  0.39989  1.0000 -0.0260797036
S   S6        1.0  0.31318  0.64310  0.10011  1.0000 -0.0260797036
S   S7        1.0  0.35690  0.68682  0.60011  1.0000 -0.0260797036
S   S8        1.0  0.68682  0.35690  0.89989  1.0000 -0.0260797036
N   N1        1.0  0.81582  0.62788  0.38860  1.0000 -0.2932630461
N   N2        1.0  0.62788  0.81582  0.11140  1.0000 -0.2932630461
N   N3        1.0  0.18418  0.37212  0.61140  1.0000 -0.2932630461
N   N4        1.0  0.37212  0.18418  0.88860  1.0000 -0.2932630461
N   N5        1.0  0.83102  0.28802  0.41350  1.0000 -0.2971144077
N   N6        1.0  0.28802  0.83102  0.08650  1.0000 -0.2971144077
N   N7        1.0  0.16898  0.71198  0.58650  1.0000 -0.2971144077
N   N8        1.0  0.71198  0.16898  0.91350  1.0000 -0.2971144077
O   O1        1.0  0.92166  0.85606  0.09220  1.0000 -0.5439973232
O   O2        1.0  0.85606  0.92166  0.40780  1.0000 -0.5439973232
O   O3        1.0  0.07834  0.14394  0.90780  1.0000 -0.5439973232
O   O4        1.0  0.14394  0.07834  0.59220  1.0000 -0.5439973232
O   O5        1.0  0.86842  0.74670  0.92200  1.0000 -0.5604281184
O   O6        1.0  0.74670  0.86842  0.57800  1.0000 -0.5604281184
O   O7        1.0  0.13158  0.25330  0.07800  1.0000 -0.5604281184
O   O8        1.0  0.25330  0.13158  0.42200  1.0000 -0.5604281184
O   O9        1.0  0.01476  0.11904  0.32883  1.0000 -0.6219309476
O   O10       1.0  0.11904  0.01476  0.17117  1.0000 -0.6219309476
O   O11       1.0  0.98524  0.88096  0.67117  1.0000 -0.6219309476
O   O12       1.0  0.88096  0.98524  0.82883  1.0000 -0.6219309476
O   O13       1.0  0.91937  0.06781  0.13316  1.0000 -0.5341168996
O   O14       1.0  0.06781  0.91937  0.36684  1.0000 -0.5341168996
O   O15       1.0  0.08063  0.93219  0.86684  1.0000 -0.5341168996
O   O16       1.0  0.93219  0.08063  0.63316  1.0000 -0.5341168996
O   O17       1.0  0.68155  0.80193  0.84040  1.0000 -0.6219309476
O   O18       1.0  0.80193  0.68155  0.65960  1.0000 -0.6219309476
O   O19       1.0  0.31845  0.19807  0.15960  1.0000 -0.6219309476
O   O20       1.0  0.19807  0.31845  0.34040  1.0000 -0.6219309476
