# DDEC6 charges by PACMAN v1.1 (https://github.com/mtap-research/PACMAN-charge/)
data_2015[Mg][nan]3[FSR]2
_chemical_formula_sum              "Mg8 P6 H12 C16 O56"
_cell_length_a       9.33224
_cell_length_b       9.33224
_cell_length_c       22.3338
_cell_angle_alpha    79.4339
_cell_angle_beta     100.566
_cell_angle_gamma    108.016

_symmetry_space_group_name_H-M    "P 1"
_symmetry_Int_Tables_number       1

loop_
  _symmetry_equiv_pos_as_xyz
  'x, y, z'

loop_
  _atom_site_type_symbol
  _atom_site_label
  _atom_site_symmetry_multiplicity
  _atom_site_fract_x
  _atom_site_fract_y
  _atom_site_fract_z
  _atom_site_occupancy
  _atom_site_charge
Mg  Mg1       1.0  0.99375  0.95449  0.43112  1.0000 1.391019733
Mg  Mg2       1.0  0.95449  0.99375  0.06888  1.0000 1.391019733
Mg  Mg3       1.0  0.00625  0.04551  0.56888  1.0000 1.391019733
Mg  Mg4       1.0  0.04551  0.00625  0.93112  1.0000 1.391019733
Mg  Mg5       1.0  0.66600  0.37562  0.37859  1.0000 1.391019733
Mg  Mg6       1.0  0.37562  0.66600  0.12141  1.0000 1.391019733
Mg  Mg7       1.0  0.33400  0.62438  0.62141  1.0000 1.391019733
Mg  Mg8       1.0  0.62438  0.33400  0.87859  1.0000 1.391019733
P   P1        1.0  0.35732  0.12166  0.42737  1.0000 1.5782560569
P   P2        1.0  0.12166  0.35732  0.07263  1.0000 1.5782560569
P   P3        1.0  0.64268  0.87834  0.57263  1.0000 1.5782560569
P   P4        1.0  0.87834  0.64268  0.92737  1.0000 1.5782560569
P   P5        1.0  0.59715  0.59715  0.25000  1.0000 1.5187286896
P   P6        1.0  0.40285  0.40285  0.75000  1.0000 1.5187286896
H   H1        1.0  0.46870  0.96470  0.45050  1.0000 0.4028025282
H   H2        1.0  0.96470  0.46870  0.04950  1.0000 0.4028025282
H   H3        1.0  0.53130  0.03530  0.54950  1.0000 0.4028025282
H   H4        1.0  0.03530  0.53130  0.95050  1.0000 0.4028025282
H   H5        1.0  0.34770  0.19030  0.50620  1.0000 0.4110207793
H   H6        1.0  0.19030  0.34770  0.99380  1.0000 0.4110207793
H   H7        1.0  0.65230  0.80970  0.49380  1.0000 0.4110207793
H   H8        1.0  0.80970  0.65230  0.00620  1.0000 0.4110207793
H   H9        1.0  0.81180  0.68140  0.23300  1.0000 0.4028025282
H   H10       1.0  0.68140  0.81180  0.26700  1.0000 0.4028025282
H   H11       1.0  0.18820  0.31860  0.76700  1.0000 0.4028025282
H   H12       1.0  0.31860  0.18820  0.73300  1.0000 0.4028025282
C   C1        1.0  0.76466  0.66174  0.42517  1.0000 0.5001758498
C   C2        1.0  0.66174  0.76466  0.07483  1.0000 0.5001758498
C   C3        1.0  0.23534  0.33826  0.57483  1.0000 0.5001758498
C   C4        1.0  0.33826  0.23534  0.92517  1.0000 0.5001758498
C   C5        1.0  0.89657  0.66263  0.39157  1.0000 0.4944662911
C   C6        1.0  0.66263  0.89657  0.10843  1.0000 0.4944662911
C   C7        1.0  0.10343  0.33737  0.60843  1.0000 0.4944662911
C   C8        1.0  0.33737  0.10343  0.89157  1.0000 0.4944662911
C   C9        1.0  0.83892  0.17288  0.44161  1.0000 0.5324993295
C   C10       1.0  0.17288  0.83892  0.05839  1.0000 0.5324993295
C   C11       1.0  0.16108  0.82712  0.55839  1.0000 0.5324993295
C   C12       1.0  0.82712  0.16108  0.94161  1.0000 0.5324993295
C   C13       1.0  0.81535  0.15425  0.37243  1.0000 0.5081831974
C   C14       1.0  0.15425  0.81535  0.12757  1.0000 0.5081831974
C   C15       1.0  0.18465  0.84575  0.62757  1.0000 0.5081831974
C   C16       1.0  0.84575  0.18465  0.87243  1.0000 0.5081831974
O   O1        1.0  0.19073  0.09777  0.40919  1.0000 -0.811868577
O   O2        1.0  0.09777  0.19073  0.09081  1.0000 -0.811868577
O   O3        1.0  0.80927  0.90223  0.59081  1.0000 -0.811868577
O   O4        1.0  0.90223  0.80927  0.90919  1.0000 -0.811868577
O   O5        1.0  0.45266  0.24400  0.38678  1.0000 -0.811868577
O   O6        1.0  0.24400  0.45266  0.11322  1.0000 -0.811868577
O   O7        1.0  0.54734  0.75600  0.61322  1.0000 -0.811868577
O   O8        1.0  0.75600  0.54734  0.88678  1.0000 -0.811868577
O   O9        1.0  0.39089  0.96811  0.42692  1.0000 -0.5481406587
O   O10       1.0  0.96811  0.39089  0.07308  1.0000 -0.5481406587
O   O11       1.0  0.60911  0.03189  0.57308  1.0000 -0.5481406587
O   O12       1.0  0.03189  0.60911  0.92692  1.0000 -0.5481406587
O   O13       1.0  0.40576  0.15064  0.49667  1.0000 -0.5675163555
O   O14       1.0  0.15064  0.40576  0.00333  1.0000 -0.5675163555
O   O15       1.0  0.59424  0.84936  0.50333  1.0000 -0.5675163555
O   O16       1.0  0.84936  0.59424  0.99667  1.0000 -0.5675163555
O   O17       1.0  0.58165  0.46201  0.29624  1.0000 -0.7960525888
O   O18       1.0  0.46201  0.58165  0.20376  1.0000 -0.7960525888
O   O19       1.0  0.41835  0.53799  0.70376  1.0000 -0.7960525888
O   O20       1.0  0.53799  0.41835  0.79624  1.0000 -0.7960525888
O   O21       1.0  0.73501  0.63079  0.21383  1.0000 -0.5319902288
O   O22       1.0  0.63079  0.73501  0.28617  1.0000 -0.5319902288
O   O23       1.0  0.26499  0.36921  0.78617  1.0000 -0.5319902288
O   O24       1.0  0.36921  0.26499  0.71383  1.0000 -0.5319902288
O   O25       1.0  0.78460  0.78196  0.44817  1.0000 -0.5579567093
O   O26       1.0  0.78196  0.78460  0.05183  1.0000 -0.5579567093
O   O27       1.0  0.21540  0.21804  0.55183  1.0000 -0.5579567093
O   O28       1.0  0.21804  0.21540  0.94817  1.0000 -0.5579567093
O   O29       1.0  0.65561  0.54583  0.42711  1.0000 -0.5108083549
O   O30       1.0  0.54583  0.65561  0.07289  1.0000 -0.5108083549
O   O31       1.0  0.34439  0.45417  0.57289  1.0000 -0.5108083549
O   O32       1.0  0.45417  0.34439  0.92711  1.0000 -0.5108083549
O   O33       1.0  0.00373  0.78267  0.38755  1.0000 -0.5213534447
O   O34       1.0  0.78267  0.00373  0.11245  1.0000 -0.5213534447
O   O35       1.0  0.99627  0.21733  0.61245  1.0000 -0.5213534447
O   O36       1.0  0.21733  0.99627  0.88755  1.0000 -0.5213534447
O   O37       1.0  0.88583  0.54287  0.37185  1.0000 -0.5376555163
O   O38       1.0  0.54287  0.88583  0.12815  1.0000 -0.5376555163
O   O39       1.0  0.11417  0.45713  0.62815  1.0000 -0.5376555163
O   O40       1.0  0.45713  0.11417  0.87185  1.0000 -0.5376555163
O   O41       1.0  0.92128  0.09792  0.47643  1.0000 -0.6122473317
O   O42       1.0  0.09792  0.92128  0.02357  1.0000 -0.6122473317
O   O43       1.0  0.07872  0.90208  0.52357  1.0000 -0.6122473317
O   O44       1.0  0.90208  0.07872  0.97643  1.0000 -0.6122473317
O   O45       1.0  0.77765  0.25873  0.45588  1.0000 -0.5108083549
O   O46       1.0  0.25873  0.77765  0.04412  1.0000 -0.5108083549
O   O47       1.0  0.22235  0.74127  0.54412  1.0000 -0.5108083549
O   O48       1.0  0.74127  0.22235  0.95588  1.0000 -0.5108083549
O   O49       1.0  0.87575  0.06451  0.35839  1.0000 -0.5319902288
O   O50       1.0  0.06451  0.87575  0.14161  1.0000 -0.5319902288
O   O51       1.0  0.12425  0.93549  0.64161  1.0000 -0.5319902288
O   O52       1.0  0.93549  0.12425  0.85839  1.0000 -0.5319902288
O   O53       1.0  0.74061  0.23181  0.33707  1.0000 -0.5213534447
O   O54       1.0  0.23181  0.74061  0.16293  1.0000 -0.5213534447
O   O55       1.0  0.25939  0.76819  0.66293  1.0000 -0.5213534447
O   O56       1.0  0.76819  0.25939  0.83707  1.0000 -0.5213534447
