# DDEC6 charges by PACMAN v1.1 (https://github.com/mtap-research/PACMAN-charge/)
data_2015[V][bpq]3[FSR]2
_chemical_formula_sum              "V4 H16 C32 O20"
_cell_length_a       6.875
_cell_length_b       12.168
_cell_length_c       17.5185
_cell_angle_alpha    90
_cell_angle_beta     90
_cell_angle_gamma    90

_symmetry_space_group_name_H-M    "P 1"
_symmetry_Int_Tables_number       1

loop_
  _symmetry_equiv_pos_as_xyz
  'x, y, z'

loop_
  _atom_site_type_symbol
  _atom_site_label
  _atom_site_symmetry_multiplicity
  _atom_site_fract_x
  _atom_site_fract_y
  _atom_site_fract_z
  _atom_site_occupancy
  _atom_site_charge
V   V1        1.0  0.00000  0.00000  0.00000  1.0000 1.7987149285
V   V2        1.0  0.00000  0.50000  0.50000  1.0000 1.7987149285
V   V3        1.0  0.50000  0.00000  0.00000  1.0000 1.7987149285
V   V4        1.0  0.50000  0.50000  0.50000  1.0000 1.7987149285
H   H1        1.0  0.45840  0.18150  0.20460  1.0000 0.1402863191
H   H2        1.0  0.54160  0.68150  0.29540  1.0000 0.1402863191
H   H3        1.0  0.95840  0.81850  0.79540  1.0000 0.1402863191
H   H4        1.0  0.04160  0.31850  0.70460  1.0000 0.1402863191
H   H5        1.0  0.54160  0.81850  0.79540  1.0000 0.1402863191
H   H6        1.0  0.45840  0.31850  0.70460  1.0000 0.1402863191
H   H7        1.0  0.04160  0.18150  0.20460  1.0000 0.1402863191
H   H8        1.0  0.95840  0.68150  0.29540  1.0000 0.1402863191
H   H9        1.0  0.45920  0.27920  0.31690  1.0000 0.1402863191
H   H10       1.0  0.54080  0.77920  0.18310  1.0000 0.1402863191
H   H11       1.0  0.95920  0.72080  0.68310  1.0000 0.1402863191
H   H12       1.0  0.04080  0.22080  0.81690  1.0000 0.1402863191
H   H13       1.0  0.54080  0.72080  0.68310  1.0000 0.1402863191
H   H14       1.0  0.45920  0.22080  0.81690  1.0000 0.1402863191
H   H15       1.0  0.04080  0.27920  0.31690  1.0000 0.1402863191
H   H16       1.0  0.95920  0.77920  0.18310  1.0000 0.1402863191
C   C1        1.0  0.57580  0.20150  0.22700  1.0000 -0.0938258132
C   C2        1.0  0.42420  0.70150  0.27300  1.0000 -0.0938258132
C   C3        1.0  0.07580  0.79850  0.77300  1.0000 -0.0938258132
C   C4        1.0  0.92420  0.29850  0.72700  1.0000 -0.0938258132
C   C5        1.0  0.42420  0.79850  0.77300  1.0000 -0.0938258132
C   C6        1.0  0.57580  0.29850  0.72700  1.0000 -0.0938258132
C   C7        1.0  0.92420  0.20150  0.22700  1.0000 -0.0938258132
C   C8        1.0  0.07580  0.70150  0.27300  1.0000 -0.0938258132
C   C9        1.0  0.57650  0.25950  0.29420  1.0000 -0.0938258132
C   C10       1.0  0.42350  0.75950  0.20580  1.0000 -0.0938258132
C   C11       1.0  0.07650  0.74050  0.70580  1.0000 -0.0938258132
C   C12       1.0  0.92350  0.24050  0.79420  1.0000 -0.0938258132
C   C13       1.0  0.42350  0.74050  0.70580  1.0000 -0.0938258132
C   C14       1.0  0.57650  0.24050  0.79420  1.0000 -0.0938258132
C   C15       1.0  0.92350  0.25950  0.29420  1.0000 -0.0938258132
C   C16       1.0  0.07650  0.75950  0.20580  1.0000 -0.0938258132
C   C17       1.0  0.75000  0.28890  0.32870  1.0000 -0.0128227409
C   C18       1.0  0.25000  0.78890  0.17130  1.0000 -0.0128227409
C   C19       1.0  0.25000  0.71110  0.67130  1.0000 -0.0128227409
C   C20       1.0  0.75000  0.21110  0.82870  1.0000 -0.0128227409
C   C21       1.0  0.75000  0.17280  0.19250  1.0000 -0.0128227409
C   C22       1.0  0.25000  0.67280  0.30750  1.0000 -0.0128227409
C   C23       1.0  0.25000  0.82720  0.80750  1.0000 -0.0128227409
C   C24       1.0  0.75000  0.32720  0.69250  1.0000 -0.0128227409
C   C25       1.0  0.75000  0.35880  0.39880  1.0000 0.6111791433
C   C26       1.0  0.25000  0.85880  0.10120  1.0000 0.6111791433
C   C27       1.0  0.25000  0.64120  0.60120  1.0000 0.6111791433
C   C28       1.0  0.75000  0.14120  0.89880  1.0000 0.6111791433
C   C29       1.0  0.75000  0.11180  0.11820  1.0000 0.6111791433
C   C30       1.0  0.25000  0.61180  0.38180  1.0000 0.6111791433
C   C31       1.0  0.25000  0.88820  0.88180  1.0000 0.6111791433
C   C32       1.0  0.75000  0.38820  0.61820  1.0000 0.6111791433
O   O1        1.0  0.75000  0.92550  0.99320  1.0000 -0.9491969122
O   O2        1.0  0.25000  0.42550  0.50680  1.0000 -0.9491969122
O   O3        1.0  0.25000  0.07450  0.00680  1.0000 -0.9491969122
O   O4        1.0  0.75000  0.57450  0.49320  1.0000 -0.9491969122
O   O5        1.0  0.91360  0.08920  0.08936  1.0000 -0.5634126513
O   O6        1.0  0.08640  0.58920  0.41064  1.0000 -0.5634126513
O   O7        1.0  0.41360  0.91080  0.91064  1.0000 -0.5634126513
O   O8        1.0  0.58640  0.41080  0.58936  1.0000 -0.5634126513
O   O9        1.0  0.08640  0.91080  0.91064  1.0000 -0.5634126513
O   O10       1.0  0.91360  0.41080  0.58936  1.0000 -0.5634126513
O   O11       1.0  0.58640  0.08920  0.08936  1.0000 -0.5634126513
O   O12       1.0  0.41360  0.58920  0.41064  1.0000 -0.5634126513
O   O13       1.0  0.58800  0.38530  0.42601  1.0000 -0.552623771
O   O14       1.0  0.41200  0.88530  0.07399  1.0000 -0.552623771
O   O15       1.0  0.08800  0.61470  0.57399  1.0000 -0.552623771
O   O16       1.0  0.91200  0.11470  0.92601  1.0000 -0.552623771
O   O17       1.0  0.41200  0.61470  0.57399  1.0000 -0.552623771
O   O18       1.0  0.58800  0.11470  0.92601  1.0000 -0.552623771
O   O19       1.0  0.91200  0.38530  0.42601  1.0000 -0.552623771
O   O20       1.0  0.08800  0.88530  0.07399  1.0000 -0.552623771
