# DDEC6 charges by PACMAN v1.1 (https://github.com/mtap-research/PACMAN-charge/)
data_2015[Cd][nan]3[FSR]12
_chemical_formula_sum              "Cd4 H112 C154 N12 O16"
_cell_length_a       24.4897
_cell_length_b       24.4897
_cell_length_c       10.2785
_cell_angle_alpha    86.6128
_cell_angle_beta     93.3872
_cell_angle_gamma    72.4652

_symmetry_space_group_name_H-M    "P 1"
_symmetry_Int_Tables_number       1

loop_
  _symmetry_equiv_pos_as_xyz
  'x, y, z'

loop_
  _atom_site_type_symbol
  _atom_site_label
  _atom_site_symmetry_multiplicity
  _atom_site_fract_x
  _atom_site_fract_y
  _atom_site_fract_z
  _atom_site_occupancy
  _atom_site_charge
Cd  Cd1       1.0  0.08430  0.56362  0.05537  1.0000 0.8707466254
Cd  Cd2       1.0  0.56362  0.08430  0.94463  1.0000 0.8707466254
Cd  Cd3       1.0  0.08150  0.54582  0.54284  1.0000 0.8481584916
Cd  Cd4       1.0  0.54582  0.08150  0.45716  1.0000 0.8481584916
H   H1        1.0  0.13200  0.60880  0.80000  1.0000 0.1109702627
H   H2        1.0  0.60880  0.13200  0.20000  1.0000 0.1109702627
H   H3        1.0  0.19850  0.64690  0.72780  1.0000 0.1285970041
H   H4        1.0  0.64690  0.19850  0.27220  1.0000 0.1285970041
H   H5        1.0  0.25710  0.64570  0.09870  1.0000 0.1285970041
H   H6        1.0  0.64570  0.25710  0.90130  1.0000 0.1285970041
H   H7        1.0  0.18910  0.60450  0.16100  1.0000 0.1015277766
H   H8        1.0  0.60450  0.18910  0.83900  1.0000 0.1015277766
H   H9        1.0  0.28620  0.64400  0.68180  1.0000 0.1015277766
H   H10       1.0  0.64400  0.28620  0.31820  1.0000 0.1015277766
H   H11       1.0  0.36390  0.66910  0.61630  1.0000 0.1109702627
H   H12       1.0  0.66910  0.36390  0.38370  1.0000 0.1109702627
H   H13       1.0  0.37630  0.73550  0.96150  1.0000 0.1192486508
H   H14       1.0  0.73550  0.37630  0.03850  1.0000 0.1192486508
H   H15       1.0  0.29750  0.71130  0.02220  1.0000 0.1109702627
H   H16       1.0  0.71130  0.29750  0.97780  1.0000 0.1109702627
H   H17       1.0  0.37180  0.81640  0.73790  1.0000 0.1285970041
H   H18       1.0  0.81640  0.37180  0.26210  1.0000 0.1285970041
H   H19       1.0  0.39630  0.89770  0.78380  1.0000 0.1109702627
H   H20       1.0  0.89770  0.39630  0.21620  1.0000 0.1109702627
H   H21       1.0  0.55490  0.79910  0.90670  1.0000 0.1192486508
H   H22       1.0  0.79910  0.55490  0.09330  1.0000 0.1192486508
H   H23       1.0  0.52960  0.71800  0.86820  1.0000 0.1192486508
H   H24       1.0  0.71800  0.52960  0.13180  1.0000 0.1192486508
H   H25       1.0  0.41890  0.96730  0.87710  1.0000 0.1285970041
H   H26       1.0  0.96730  0.41890  0.12290  1.0000 0.1285970041
H   H27       1.0  0.44990  0.04330  0.91110  1.0000 0.1192486508
H   H28       1.0  0.04330  0.44990  0.08890  1.0000 0.1192486508
H   H29       1.0  0.60690  0.95470  0.88900  1.0000 0.1015277766
H   H30       1.0  0.95470  0.60690  0.11100  1.0000 0.1015277766
H   H31       1.0  0.58270  0.87530  0.85760  1.0000 0.1374548355
H   H32       1.0  0.87530  0.58270  0.14240  1.0000 0.1374548355
H   H33       1.0  0.45500  0.59800  0.74860  1.0000 0.1192486508
H   H34       1.0  0.59800  0.45500  0.25140  1.0000 0.1192486508
H   H35       1.0  0.51460  0.53480  0.62230  1.0000 0.1109702627
H   H36       1.0  0.53480  0.51460  0.37770  1.0000 0.1109702627
H   H37       1.0  0.57410  0.65970  0.48890  1.0000 0.1109702627
H   H38       1.0  0.65970  0.57410  0.51110  1.0000 0.1109702627
H   H39       1.0  0.50830  0.72470  0.59460  1.0000 0.1192486508
H   H40       1.0  0.72470  0.50830  0.40540  1.0000 0.1192486508
H   H41       1.0  0.10900  0.66420  0.44010  1.0000 0.1015277766
H   H42       1.0  0.66420  0.10900  0.55990  1.0000 0.1015277766
H   H43       1.0  0.18120  0.69860  0.38200  1.0000 0.1285970041
H   H44       1.0  0.69860  0.18120  0.61800  1.0000 0.1285970041
H   H45       1.0  0.29240  0.54500  0.49370  1.0000 0.1285970041
H   H46       1.0  0.54500  0.29240  0.50630  1.0000 0.1285970041
H   H47       1.0  0.21800  0.51580  0.55440  1.0000 0.1015277766
H   H48       1.0  0.51580  0.21800  0.44560  1.0000 0.1015277766
H   H49       1.0  0.24740  0.73020  0.33410  1.0000 0.1109702627
H   H50       1.0  0.73020  0.24740  0.66590  1.0000 0.1109702627
H   H51       1.0  0.32110  0.76010  0.26430  1.0000 0.1285970041
H   H52       1.0  0.76010  0.32110  0.73570  1.0000 0.1285970041
H   H53       1.0  0.43300  0.60540  0.37050  1.0000 0.1192486508
H   H54       1.0  0.60540  0.43300  0.62950  1.0000 0.1192486508
H   H55       1.0  0.35970  0.57330  0.43370  1.0000 0.1109702627
H   H56       1.0  0.57330  0.35970  0.56630  1.0000 0.1109702627
H   H57       1.0  0.45680  0.77780  0.09360  1.0000 0.1109702627
H   H58       1.0  0.77780  0.45680  0.90640  1.0000 0.1109702627
H   H59       1.0  0.47170  0.86270  0.13570  1.0000 0.1015277766
H   H60       1.0  0.86270  0.47170  0.86430  1.0000 0.1015277766
H   H61       1.0  0.42070  0.85030  0.49680  1.0000 0.1015277766
H   H62       1.0  0.85030  0.42070  0.50320  1.0000 0.1015277766
H   H63       1.0  0.40370  0.76670  0.45470  1.0000 0.1192486508
H   H64       1.0  0.76670  0.40370  0.54530  1.0000 0.1192486508
H   H65       1.0  0.49850  0.93030  0.18050  1.0000 0.1192486508
H   H66       1.0  0.93030  0.49850  0.81950  1.0000 0.1192486508
H   H67       1.0  0.52800  0.00660  0.23110  1.0000 0.1015277766
H   H68       1.0  0.00660  0.52800  0.76890  1.0000 0.1015277766
H   H69       1.0  0.47680  0.99900  0.57920  1.0000 0.1109702627
H   H70       1.0  0.99900  0.47680  0.42080  1.0000 0.1109702627
H   H71       1.0  0.44960  0.92060  0.54290  1.0000 0.1192486508
H   H72       1.0  0.92060  0.44960  0.45710  1.0000 0.1192486508
H   H73       1.0  0.41710  0.62610  0.10640  1.0000 0.1192486508
H   H74       1.0  0.62610  0.41710  0.89360  1.0000 0.1192486508
H   H75       1.0  0.48270  0.56190  0.99650  1.0000 0.1109702627
H   H76       1.0  0.56190  0.48270  0.00350  1.0000 0.1109702627
H   H77       1.0  0.60230  0.63130  0.11080  1.0000 0.1109702627
H   H78       1.0  0.63130  0.60230  0.88920  1.0000 0.1109702627
H   H79       1.0  0.53840  0.69280  0.23390  1.0000 0.1192486508
H   H80       1.0  0.69280  0.53840  0.76610  1.0000 0.1192486508
H   H81       1.0  0.95980  0.72480  0.70670  1.0000 0.1192486508
H   H82       1.0  0.72480  0.95980  0.29330  1.0000 0.1192486508
H   H83       1.0  0.88520  0.80680  0.69760  1.0000 0.1109702627
H   H84       1.0  0.80680  0.88520  0.30240  1.0000 0.1109702627
H   H85       1.0  0.85450  0.79210  0.31370  1.0000 0.1109702627
H   H86       1.0  0.79210  0.85450  0.68630  1.0000 0.1109702627
H   H87       1.0  0.93000  0.70780  0.32840  1.0000 0.1192486508
H   H88       1.0  0.70780  0.93000  0.67160  1.0000 0.1192486508
H   H89       1.0  0.22470  0.40750  0.70620  1.0000 0.1109702627
H   H90       1.0  0.40750  0.22470  0.29380  1.0000 0.1109702627
H   H91       1.0  0.29320  0.32180  0.78590  1.0000 0.1015277766
H   H92       1.0  0.32180  0.29320  0.21410  1.0000 0.1015277766
H   H93       1.0  0.23660  0.34340  0.14120  1.0000 0.1109702627
H   H94       1.0  0.34340  0.23660  0.85880  1.0000 0.1109702627
H   H95       1.0  0.16510  0.42310  0.05810  1.0000 0.1109702627
H   H96       1.0  0.42310  0.16510  0.94190  1.0000 0.1109702627
H   H97       1.0  0.25680  0.46060  0.31140  1.0000 0.1192486508
H   H98       1.0  0.46060  0.25680  0.68860  1.0000 0.1192486508
H   H99       1.0  0.33320  0.38680  0.40450  1.0000 0.1192486508
H   H100      1.0  0.38680  0.33320  0.59550  1.0000 0.1192486508
H   H101      1.0  0.22450  0.30470  0.51930  1.0000 0.1192486508
H   H102      1.0  0.30470  0.22450  0.48070  1.0000 0.1192486508
H   H103      1.0  0.14790  0.38390  0.44130  1.0000 0.1285970041
H   H104      1.0  0.38390  0.14790  0.55870  1.0000 0.1285970041
H   H105      1.0  0.01900  0.61820  0.82900  1.0000 0.3457603881
H   H106      1.0  0.61820  0.01900  0.17100  1.0000 0.3457603881
H   H107      1.0  0.98560  0.64100  0.92890  1.0000 0.305531753
H   H108      1.0  0.64100  0.98560  0.07110  1.0000 0.305531753
H   H109      1.0  0.06830  0.62850  0.26470  1.0000 0.3310346433
H   H110      1.0  0.62850  0.06830  0.73530  1.0000 0.3310346433
H   H111      1.0  0.05920  0.66800  0.15690  1.0000 0.3163249323
H   H112      1.0  0.66800  0.05920  0.84310  1.0000 0.3163249323
C   C1        1.0  0.15764  0.61658  0.86130  1.0000 0.0858439633
C   C2        1.0  0.61658  0.15764  0.13870  1.0000 0.0858439633
C   C3        1.0  0.19755  0.63923  0.81720  1.0000 -0.1889921216
C   C4        1.0  0.63923  0.19755  0.18280  1.0000 -0.1889921216
C   C5        1.0  0.23710  0.65124  0.90380  1.0000 0.1192486508
C   C6        1.0  0.65124  0.23710  0.09620  1.0000 0.1192486508
C   C7        1.0  0.23223  0.63823  0.03540  1.0000 -0.1982732585
C   C8        1.0  0.63823  0.23223  0.96460  1.0000 -0.1982732585
C   C9        1.0  0.19062  0.61422  0.07270  1.0000 0.0805858688
C   C10       1.0  0.61422  0.19062  0.92730  1.0000 0.0805858688
C   C11       1.0  0.28574  0.67150  0.86130  1.0000 0.0484938962
C   C12       1.0  0.67150  0.28574  0.13870  1.0000 0.0484938962
C   C13       1.0  0.30524  0.66130  0.73940  1.0000 -0.1303731447
C   C14       1.0  0.66130  0.30524  0.26060  1.0000 -0.1303731447
C   C15       1.0  0.35216  0.67600  0.69980  1.0000 -0.1982732585
C   C16       1.0  0.67600  0.35216  0.30020  1.0000 -0.1982732585
C   C17       1.0  0.38232  0.70146  0.78580  1.0000 0.1867720762
C   C18       1.0  0.70146  0.38232  0.21420  1.0000 0.1867720762
C   C19       1.0  0.35925  0.71581  0.90570  1.0000 -0.1889921216
C   C20       1.0  0.71581  0.35925  0.09430  1.0000 -0.1889921216
C   C21       1.0  0.31196  0.70122  0.94240  1.0000 -0.1392698958
C   C22       1.0  0.70122  0.31196  0.05760  1.0000 -0.1303731447
C   C23       1.0  0.44802  0.75924  0.79180  1.0000 0.1692328507
C   C24       1.0  0.75924  0.44802  0.20820  1.0000 0.1692328507
C   C25       1.0  0.40912  0.81268  0.77100  1.0000 -0.1889921216
C   C26       1.0  0.81268  0.40912  0.22900  1.0000 -0.1801404005
C   C27       1.0  0.42361  0.86169  0.79780  1.0000 -0.1392698958
C   C28       1.0  0.86169  0.42361  0.20220  1.0000 -0.1392698958
C   C29       1.0  0.47926  0.85650  0.84550  1.0000 0.0379007102
C   C30       1.0  0.85650  0.47926  0.15450  1.0000 0.0379007102
C   C31       1.0  0.51790  0.80274  0.87180  1.0000 -0.1392698958
C   C32       1.0  0.80274  0.51790  0.12820  1.0000 -0.1392698958
C   C33       1.0  0.50314  0.75416  0.84760  1.0000 -0.1801404005
C   C34       1.0  0.75416  0.50314  0.15240  1.0000 -0.1801404005
C   C35       1.0  0.49721  0.90933  0.86670  1.0000 0.1192486508
C   C36       1.0  0.90933  0.49721  0.13330  1.0000 0.1192486508
C   C37       1.0  0.45801  0.96285  0.88100  1.0000 -0.2118045694
C   C38       1.0  0.96285  0.45801  0.11900  1.0000 -0.2118045694
C   C39       1.0  0.47720  0.00844  0.90070  1.0000 0.0625325282
C   C40       1.0  0.00844  0.47720  0.09930  1.0000 0.0625325282
C   C41       1.0  0.56817  0.95725  0.88850  1.0000 0.0625325282
C   C42       1.0  0.95725  0.56817  0.11150  1.0000 0.0625325282
C   C43       1.0  0.55399  0.90917  0.86930  1.0000 -0.2118045694
C   C44       1.0  0.90917  0.55399  0.13070  1.0000 -0.2118045694
C   C45       1.0  0.47315  0.66889  0.68370  1.0000 0.1624572107
C   C46       1.0  0.66889  0.47315  0.31630  1.0000 0.1624572107
C   C47       1.0  0.47731  0.61143  0.69230  1.0000 -0.1889921216
C   C48       1.0  0.61143  0.47731  0.30770  1.0000 -0.1889921216
C   C49       1.0  0.51441  0.57289  0.61820  1.0000 -0.1392698958
C   C50       1.0  0.57289  0.51441  0.38180  1.0000 -0.1392698958
C   C51       1.0  0.55052  0.58978  0.53940  1.0000 0.0484938962
C   C52       1.0  0.58978  0.55052  0.46060  1.0000 0.0484938962
C   C53       1.0  0.54843  0.64733  0.53710  1.0000 -0.1392698958
C   C54       1.0  0.64733  0.54843  0.46290  1.0000 -0.1303731447
C   C55       1.0  0.50996  0.68618  0.60320  1.0000 -0.1889921216
C   C56       1.0  0.68618  0.50996  0.39680  1.0000 -0.1889921216
C   C57       1.0  0.14649  0.63953  0.45090  1.0000 0.0484938962
C   C58       1.0  0.63953  0.14649  0.54910  1.0000 0.0484938962
C   C59       1.0  0.18991  0.66061  0.41570  1.0000 -0.2118045694
C   C60       1.0  0.66061  0.18991  0.58430  1.0000 -0.2118045694
C   C61       1.0  0.24654  0.62624  0.42970  1.0000 0.1109702627
C   C62       1.0  0.62624  0.24654  0.57030  1.0000 0.1109702627
C   C63       1.0  0.25540  0.57056  0.48200  1.0000 -0.2118045694
C   C64       1.0  0.57056  0.25540  0.51800  1.0000 -0.2118045694
C   C65       1.0  0.21009  0.55303  0.51650  1.0000 0.0625325282
C   C66       1.0  0.55303  0.21009  0.48350  1.0000 0.0668902034
C   C67       1.0  0.29330  0.64846  0.38840  1.0000 0.0328178199
C   C68       1.0  0.64846  0.29330  0.61160  1.0000 0.0328178199
C   C69       1.0  0.28425  0.70431  0.33940  1.0000 -0.1392698958
C   C70       1.0  0.70431  0.28425  0.66060  1.0000 -0.1392698958
C   C71       1.0  0.32864  0.72228  0.29840  1.0000 -0.1889921216
C   C72       1.0  0.72228  0.32864  0.70160  1.0000 -0.1889921216
C   C73       1.0  0.38434  0.68592  0.30630  1.0000 0.1692328507
C   C74       1.0  0.68592  0.38434  0.69370  1.0000 0.1692328507
C   C75       1.0  0.39553  0.62995  0.36060  1.0000 -0.1801404005
C   C76       1.0  0.62995  0.39553  0.63940  1.0000 -0.1801404005
C   C77       1.0  0.35179  0.61111  0.39940  1.0000 -0.1303731447
C   C78       1.0  0.61111  0.35179  0.60060  1.0000 -0.1303731447
C   C79       1.0  0.43217  0.76043  0.27550  1.0000 0.1692328507
C   C80       1.0  0.76043  0.43217  0.72450  1.0000 0.1692328507
C   C81       1.0  0.45071  0.79175  0.17540  1.0000 -0.1889921216
C   C82       1.0  0.79175  0.45071  0.82460  1.0000 -0.1889921216
C   C83       1.0  0.45938  0.84252  0.20150  1.0000 -0.1303731447
C   C84       1.0  0.84252  0.45938  0.79850  1.0000 -0.1303731447
C   C85       1.0  0.45071  0.86573  0.32140  1.0000 0.0484938962
C   C86       1.0  0.86573  0.45071  0.67860  1.0000 0.0484938962
C   C87       1.0  0.42872  0.83540  0.41650  1.0000 -0.1303731447
C   C88       1.0  0.83540  0.42872  0.58350  1.0000 -0.1303731447
C   C89       1.0  0.41928  0.78504  0.39180  1.0000 -0.1801404005
C   C90       1.0  0.78504  0.41928  0.60820  1.0000 -0.1889921216
C   C91       1.0  0.46585  0.91719  0.35140  1.0000 0.1192486508
C   C92       1.0  0.91719  0.46585  0.64860  1.0000 0.1109702627
C   C93       1.0  0.49276  0.94396  0.26270  1.0000 -0.1982732585
C   C94       1.0  0.94396  0.49276  0.73730  1.0000 -0.1982732585
C   C95       1.0  0.51092  0.98980  0.29370  1.0000 0.0668902034
C   C96       1.0  0.98980  0.51092  0.70630  1.0000 0.0668902034
C   C97       1.0  0.48136  0.98476  0.49730  1.0000 0.0858439633
C   C98       1.0  0.98476  0.48136  0.50270  1.0000 0.0858439633
C   C99       1.0  0.46351  0.93831  0.47540  1.0000 -0.2118045694
C   C100      1.0  0.93831  0.46351  0.52460  1.0000 -0.2118045694
C   C101      1.0  0.47103  0.66527  0.18570  1.0000 0.1692328507
C   C102      1.0  0.66527  0.47103  0.81430  1.0000 0.1692328507
C   C103      1.0  0.45505  0.62659  0.11050  1.0000 -0.1889921216
C   C104      1.0  0.62659  0.45505  0.88950  1.0000 -0.1889921216
C   C105      1.0  0.49412  0.58892  0.04190  1.0000 -0.1392698958
C   C106      1.0  0.58892  0.49412  0.95810  1.0000 -0.1392698958
C   C107      1.0  0.54993  0.59037  0.03900  1.0000 0.0484938962
C   C108      1.0  0.59037  0.54993  0.96100  1.0000 0.0484938962
C   C109      1.0  0.56491  0.62955  0.11110  1.0000 -0.1499511248
C   C110      1.0  0.62955  0.56491  0.88890  1.0000 -0.1499511248
C   C111      1.0  0.52648  0.66704  0.18530  1.0000 -0.1889921216
C   C112      1.0  0.66704  0.52648  0.81470  1.0000 -0.1889921216
C   C113      1.0  0.00226  0.65214  0.52750  1.0000 0.5324847827
C   C114      1.0  0.65214  0.00226  0.47250  1.0000 0.5324847827
C   C115      1.0  0.95376  0.70830  0.51980  1.0000 -0.0231709222
C   C116      1.0  0.70830  0.95376  0.48020  1.0000 -0.0231709222
C   C117      1.0  0.93860  0.73864  0.62710  1.0000 -0.1083418636
C   C118      1.0  0.73864  0.93860  0.37290  1.0000 -0.1083418636
C   C119      1.0  0.89397  0.78789  0.62200  1.0000 -0.1499511248
C   C120      1.0  0.78789  0.89397  0.37800  1.0000 -0.1499511248
C   C121      1.0  0.86088  0.81072  0.50370  1.0000 0.0625325282
C   C122      1.0  0.81072  0.86088  0.49630  1.0000 0.0625325282
C   C123      1.0  0.87575  0.77885  0.39350  1.0000 -0.1499511248
C   C124      1.0  0.77885  0.87575  0.60650  1.0000 -0.1499511248
C   C125      1.0  0.92131  0.72827  0.40180  1.0000 -0.1083418636
C   C126      1.0  0.72827  0.92131  0.59820  1.0000 -0.1083418636
C   C127      1.0  0.14197  0.47749  0.81650  1.0000 0.5773401389
C   C128      1.0  0.47749  0.14197  0.18350  1.0000 0.5773401389
C   C129      1.0  0.18819  0.42407  0.87330  1.0000 -0.0293394059
C   C130      1.0  0.42407  0.18819  0.12670  1.0000 -0.0293394059
C   C131      1.0  0.22642  0.39418  0.79350  1.0000 -0.1031860233
C   C132      1.0  0.39418  0.22642  0.20650  1.0000 -0.1031860233
C   C133      1.0  0.26861  0.34339  0.84240  1.0000 -0.1499511248
C   C134      1.0  0.34339  0.26861  0.15760  1.0000 -0.1499511248
C   C135      1.0  0.27406  0.32472  0.97260  1.0000 0.0805858688
C   C136      1.0  0.32472  0.27406  0.02740  1.0000 0.0805858688
C   C137      1.0  0.23431  0.35563  0.05300  1.0000 -0.1392698958
C   C138      1.0  0.35563  0.23431  0.94700  1.0000 -0.1392698958
C   C139      1.0  0.19205  0.40359  0.00350  1.0000 -0.1031860233
C   C140      1.0  0.40359  0.19205  0.99650  1.0000 -0.1031860233
C   C141      1.0  0.14462  0.48200  0.30870  1.0000 0.5609545538
C   C142      1.0  0.48200  0.14462  0.69130  1.0000 0.5609545538
C   C143      1.0  0.19373  0.42947  0.36640  1.0000 -0.0293394059
C   C144      1.0  0.42947  0.19373  0.63360  1.0000 -0.0293394059
C   C145      1.0  0.25008  0.42936  0.35600  1.0000 -0.120514991
C   C146      1.0  0.42936  0.25008  0.64400  1.0000 -0.120514991
C   C147      1.0  0.29599  0.38487  0.40910  1.0000 -0.1606328657
C   C148      1.0  0.38487  0.29599  0.59090  1.0000 -0.1606328657
C   C149      1.0  0.28631  0.33545  0.47150  1.0000 0.0668902034
C   C150      1.0  0.33545  0.28631  0.52850  1.0000 0.0668902034
C   C151      1.0  0.23203  0.33653  0.47950  1.0000 -0.1499511248
C   C152      1.0  0.33653  0.23203  0.52050  1.0000 -0.1499511248
C   C153      1.0  0.18526  0.38420  0.42960  1.0000 -0.1031860233
C   C154      1.0  0.38420  0.18526  0.57040  1.0000 -0.1031860233
N   N1        1.0  0.15277  0.60465  0.98660  1.0000 -0.2463242656
N   N2        1.0  0.60465  0.15277  0.01340  1.0000 -0.2463242656
N   N3        1.0  0.43397  0.71045  0.75520  1.0000 -0.1801404005
N   N4        1.0  0.71045  0.43397  0.24480  1.0000 -0.1801404005
N   N5        1.0  0.53203  0.00709  0.90640  1.0000 -0.239984872
N   N6        1.0  0.00709  0.53203  0.09360  1.0000 -0.239984872
N   N7        1.0  0.15510  0.58560  0.49980  1.0000 -0.2463242656
N   N8        1.0  0.58560  0.15510  0.50020  1.0000 -0.2463242656
N   N9        1.0  0.42950  0.70330  0.25590  1.0000 -0.1982732585
N   N10       1.0  0.70330  0.42950  0.74410  1.0000 -0.1982732585
N   N11       1.0  0.50479  0.01119  0.41110  1.0000 -0.2334689817
N   N12       1.0  0.01119  0.50479  0.58890  1.0000 -0.2334689817
O   O1        1.0  0.01422  0.62674  0.42770  1.0000 -0.5373905769
O   O2        1.0  0.62674  0.01422  0.57230  1.0000 -0.5373905769
O   O3        1.0  0.02849  0.63219  0.63710  1.0000 -0.5655482879
O   O4        1.0  0.63219  0.02849  0.36290  1.0000 -0.5655482879
O   O5        1.0  0.14348  0.49136  0.69720  1.0000 -0.5575222543
O   O6        1.0  0.49136  0.14348  0.30280  1.0000 -0.5575222543
O   O7        1.0  0.10546  0.50320  0.88920  1.0000 -0.5773668161
O   O8        1.0  0.50320  0.10546  0.11080  1.0000 -0.5773668161
O   O9        1.0  0.15203  0.50669  0.20540  1.0000 -0.5575222543
O   O10       1.0  0.50669  0.15203  0.79460  1.0000 -0.5575222543
O   O11       1.0  0.09853  0.49385  0.36600  1.0000 -0.5773668161
O   O12       1.0  0.49385  0.09853  0.63400  1.0000 -0.5773668161
O   O13       1.0  0.01919  0.63251  0.90230  1.0000 -0.6657720676
O   O14       1.0  0.63251  0.01919  0.09770  1.0000 -0.6657720676
O   O15       1.0  0.05160  0.63852  0.18820  1.0000 -0.6609654
O   O16       1.0  0.63852  0.05160  0.81180  1.0000 -0.6609654
