# DDEC6 charges by PACMAN v1.1 (https://github.com/mtap-research/PACMAN-charge/)
data_2015[Tb][nan]3[FSR]15
_chemical_formula_sum              "Tb8 H116 C132 N4 O68"
_cell_length_a       12.903
_cell_length_b       13.782
_cell_length_c       27.912
_cell_angle_alpha    75.64
_cell_angle_beta     79.46
_cell_angle_gamma    85.71

_symmetry_space_group_name_H-M    "P 1"
_symmetry_Int_Tables_number       1

loop_
  _symmetry_equiv_pos_as_xyz
  'x, y, z'

loop_
  _atom_site_type_symbol
  _atom_site_label
  _atom_site_symmetry_multiplicity
  _atom_site_fract_x
  _atom_site_fract_y
  _atom_site_fract_z
  _atom_site_occupancy
  _atom_site_charge
Tb  Tb1       1.0  0.88016  0.02123  0.55365  1.0000 2.1069159426
Tb  Tb2       1.0  0.11984  0.97877  0.44635  1.0000 2.1069159426
Tb  Tb3       1.0  0.47005  0.53812  0.41489  1.0000 2.0896249332
Tb  Tb4       1.0  0.52995  0.46188  0.58511  1.0000 2.0896249332
Tb  Tb5       1.0  0.03018  0.87474  0.06046  1.0000 2.0896249332
Tb  Tb6       1.0  0.96982  0.12526  0.93954  1.0000 2.0896249332
Tb  Tb7       1.0  0.51652  0.47940  0.91422  1.0000 2.1293736615
Tb  Tb8       1.0  0.48348  0.52060  0.08578  1.0000 2.1293736615
H   H1        1.0  0.72270  0.74460  0.51470  1.0000 0.136238537
H   H2        1.0  0.27730  0.25540  0.48530  1.0000 0.136238537
H   H3        1.0  0.72540  0.66780  0.38640  1.0000 0.1204619304
H   H4        1.0  0.27460  0.33220  0.61360  1.0000 0.1204619304
H   H5        1.0  0.91670  0.88090  0.39080  1.0000 0.1296429713
H   H6        1.0  0.08330  0.11910  0.60920  1.0000 0.1296429713
H   H7        1.0  0.00060  0.85760  0.31930  1.0000 0.1113660117
H   H8        1.0  0.99940  0.14240  0.68070  1.0000 0.1113660117
H   H9        1.0  0.05580  0.87930  0.23400  1.0000 0.1204619304
H   H10       1.0  0.94420  0.12070  0.76600  1.0000 0.1204619304
H   H11       1.0  0.80680  0.73660  0.22520  1.0000 0.1204619304
H   H12       1.0  0.19320  0.26340  0.77480  1.0000 0.1204619304
H   H13       1.0  0.75020  0.71590  0.30960  1.0000 0.1204619304
H   H14       1.0  0.24980  0.28410  0.69040  1.0000 0.1204619304
H   H15       1.0  0.74790  0.27290  0.43780  1.0000 0.1296429713
H   H16       1.0  0.25210  0.72710  0.56220  1.0000 0.1296429713
H   H17       1.0  0.02530  0.26080  0.34650  1.0000 0.1204619304
H   H18       1.0  0.97470  0.73920  0.65350  1.0000 0.1204619304
H   H19       1.0  0.81370  0.48120  0.30900  1.0000 0.1113660117
H   H20       1.0  0.18630  0.51880  0.69100  1.0000 0.1113660117
H   H21       1.0  0.96650  0.56980  0.27590  1.0000 0.1113660117
H   H22       1.0  0.03350  0.43020  0.72410  1.0000 0.1113660117
H   H23       1.0  0.09530  0.64420  0.21110  1.0000 0.1204619304
H   H24       1.0  0.90470  0.35580  0.78890  1.0000 0.1204619304
H   H25       1.0  0.20840  0.37550  0.19410  1.0000 0.1204619304
H   H26       1.0  0.79160  0.62450  0.80590  1.0000 0.1204619304
H   H27       1.0  0.07870  0.29970  0.25790  1.0000 0.1113660117
H   H28       1.0  0.92130  0.70030  0.74210  1.0000 0.1113660117
H   H29       1.0  0.73920  0.24230  0.05690  1.0000 0.1113660117
H   H30       1.0  0.26080  0.75770  0.94310  1.0000 0.1113660117
H   H31       1.0  0.54430  0.18400  0.18920  1.0000 0.1113660117
H   H32       1.0  0.45570  0.81600  0.81080  1.0000 0.1113660117
H   H33       1.0  0.75920  0.97630  0.15450  1.0000 0.1204619304
H   H34       1.0  0.24080  0.02370  0.84550  1.0000 0.1204619304
H   H35       1.0  0.62380  0.87190  0.20020  1.0000 0.1113660117
H   H36       1.0  0.37620  0.12810  0.79980  1.0000 0.1113660117
H   H37       1.0  0.55640  0.75940  0.27490  1.0000 0.1204619304
H   H38       1.0  0.44360  0.24060  0.72510  1.0000 0.1204619304
H   H39       1.0  0.49650  0.98490  0.34400  1.0000 0.1204619304
H   H40       1.0  0.50350  0.01510  0.65600  1.0000 0.1204619304
H   H41       1.0  0.56540  0.09510  0.27090  1.0000 0.1113660117
H   H42       1.0  0.43460  0.90490  0.72910  1.0000 0.1113660117
H   H43       1.0  0.74500  0.73030  0.01290  1.0000 0.1296429713
H   H44       1.0  0.25500  0.26970  0.98710  1.0000 0.1296429713
H   H45       1.0  0.86550  0.92350  0.88680  1.0000 0.1296429713
H   H46       1.0  0.13450  0.07650  0.11320  1.0000 0.1296429713
H   H47       1.0  0.67920  0.70980  0.88080  1.0000 0.1296429713
H   H48       1.0  0.32080  0.29020  0.11920  1.0000 0.1296429713
H   H49       1.0  0.64800  0.82380  0.81000  1.0000 0.1113660117
H   H50       1.0  0.35200  0.17620  0.19000  1.0000 0.1113660117
H   H51       1.0  0.67340  0.87670  0.72370  1.0000 0.1204619304
H   H52       1.0  0.32660  0.12330  0.27630  1.0000 0.1113660117
H   H53       1.0  0.96190  0.95840  0.72360  1.0000 0.1204619304
H   H54       1.0  0.03810  0.04160  0.27640  1.0000 0.1204619304
H   H55       1.0  0.93830  0.90550  0.80900  1.0000 0.1204619304
H   H56       1.0  0.06170  0.09450  0.19100  1.0000 0.1204619304
H   H57       1.0  0.50300  0.45500  0.30210  1.0000 0.1296429713
H   H58       1.0  0.49700  0.54500  0.69790  1.0000 0.1296429713
H   H59       1.0  0.26210  0.28630  0.31790  1.0000 0.1296429713
H   H60       1.0  0.73790  0.71370  0.68210  1.0000 0.1296429713
H   H61       1.0  0.24200  0.36840  0.34900  1.0000 0.1296429713
H   H62       1.0  0.75800  0.63160  0.65100  1.0000 0.1296429713
H   H63       1.0  0.31720  0.27570  0.36470  1.0000 0.150522969
H   H64       1.0  0.68280  0.72430  0.63530  1.0000 0.150522969
H   H65       1.0  0.38560  0.30340  0.24600  1.0000 0.1296429713
H   H66       1.0  0.61440  0.69660  0.75400  1.0000 0.1296429713
H   H67       1.0  0.49820  0.30890  0.25860  1.0000 0.1296429713
H   H68       1.0  0.50180  0.69110  0.74140  1.0000 0.1296429713
H   H69       1.0  0.44550  0.40440  0.22770  1.0000 0.1296429713
H   H70       1.0  0.55450  0.59560  0.77230  1.0000 0.1296429713
H   H71       1.0  0.06820  0.69890  0.99440  1.0000 0.0960557044
H   H72       1.0  0.93180  0.30110  0.00560  1.0000 0.0960557044
H   H73       1.0  0.15880  0.45780  0.98980  1.0000 0.1296429713
H   H74       1.0  0.84120  0.54220  0.01020  1.0000 0.1296429713
H   H75       1.0  0.19560  0.56520  0.96000  1.0000 0.136238537
H   H76       1.0  0.80440  0.43480  0.04000  1.0000 0.136238537
H   H77       1.0  0.07870  0.53590  0.96420  1.0000 0.1296429713
H   H78       1.0  0.92130  0.46410  0.03580  1.0000 0.1296429713
H   H79       1.0  0.13550  0.43230  0.07360  1.0000 0.1204619304
H   H80       1.0  0.86450  0.56770  0.92640  1.0000 0.1204619304
H   H81       1.0  0.04210  0.49400  0.09770  1.0000 0.136238537
H   H82       1.0  0.95790  0.50600  0.90230  1.0000 0.136238537
H   H83       1.0  0.15880  0.52300  0.09420  1.0000 0.136238537
H   H84       1.0  0.84120  0.47700  0.90580  1.0000 0.136238537
H   H85       1.0  0.62930  0.01700  0.57600  1.0000 0.4104192697
H   H86       1.0  0.37070  0.98300  0.42400  1.0000 0.4104192697
H   H87       1.0  0.65500  0.13100  0.55300  1.0000 0.3912202485
H   H88       1.0  0.34500  0.86900  0.44700  1.0000 0.3912202485
H   H89       1.0  0.79000  0.23400  0.56900  1.0000 0.4104192697
H   H90       1.0  0.21000  0.76600  0.43100  1.0000 0.4104192697
H   H91       1.0  0.91200  0.23900  0.56600  1.0000 0.4104192697
H   H92       1.0  0.08800  0.76100  0.43400  1.0000 0.4104192697
H   H93       1.0  0.36900  0.61700  0.50890  1.0000 0.4104192697
H   H94       1.0  0.63100  0.38300  0.49110  1.0000 0.4104192697
H   H95       1.0  0.41000  0.71400  0.46700  1.0000 0.401883588
H   H96       1.0  0.59000  0.28600  0.53300  1.0000 0.401883588
H   H97       1.0  0.25000  0.59000  0.37700  1.0000 0.4205063698
H   H98       1.0  0.75000  0.41000  0.62300  1.0000 0.4205063698
H   H99       1.0  0.22200  0.58000  0.43490  1.0000 0.4104192697
H   H100      1.0  0.77800  0.42000  0.56510  1.0000 0.4104192697
H   H101      1.0  0.27300  0.87900  0.06800  1.0000 0.401883588
H   H102      1.0  0.72700  0.12100  0.93200  1.0000 0.401883588
H   H103      1.0  0.24200  0.76700  0.09400  1.0000 0.401883588
H   H104      1.0  0.75800  0.23300  0.90600  1.0000 0.401883588
H   H105      1.0  0.30600  0.44200  0.88400  1.0000 0.4205063698
H   H106      1.0  0.69400  0.55800  0.11600  1.0000 0.4205063698
H   H107      1.0  0.35900  0.52900  0.84000  1.0000 0.4104192697
H   H108      1.0  0.64100  0.47100  0.16000  1.0000 0.4104192697
H   H109      1.0  0.59400  0.26900  0.90000  1.0000 0.3912202485
H   H110      1.0  0.40600  0.73100  0.10000  1.0000 0.3912202485
H   H111      1.0  0.52100  0.31000  0.85900  1.0000 0.4205063698
H   H112      1.0  0.47900  0.69000  0.14100  1.0000 0.4205063698
H   H113      1.0  0.69400  0.37200  0.97700  1.0000 0.401883588
H   H114      1.0  0.30600  0.62800  0.02300  1.0000 0.401883588
H   H115      1.0  0.61300  0.28500  0.98300  1.0000 0.401883588
H   H116      1.0  0.38700  0.71500  0.01700  1.0000 0.401883588
C   C1        1.0  0.82430  0.82430  0.45690  1.0000 -0.0292376729
C   C2        1.0  0.17570  0.17570  0.54310  1.0000 -0.0292376729
C   C3        1.0  0.74930  0.75240  0.48070  1.0000 -0.1093661121
C   C4        1.0  0.25070  0.24760  0.51930  1.0000 -0.1093661121
C   C5        1.0  0.71480  0.69360  0.45480  1.0000 -0.0292376729
C   C6        1.0  0.28520  0.30640  0.54520  1.0000 -0.0292376729
C   C7        1.0  0.75180  0.70670  0.40400  1.0000 -0.1414793556
C   C8        1.0  0.24820  0.29330  0.59600  1.0000 -0.1414793556
C   C9        1.0  0.82770  0.77660  0.37850  1.0000 0.0780884393
C   C10       1.0  0.17230  0.22340  0.62150  1.0000 0.0780884393
C   C11       1.0  0.86460  0.83480  0.40640  1.0000 -0.1571736119
C   C12       1.0  0.13540  0.16520  0.59360  1.0000 -0.1571736119
C   C13       1.0  0.86470  0.78840  0.32380  1.0000 0.0697580532
C   C14       1.0  0.13530  0.21160  0.67620  1.0000 0.0697580532
C   C15       1.0  0.95950  0.83500  0.30040  1.0000 -0.1414793556
C   C16       1.0  0.04050  0.16500  0.69960  1.0000 -0.1414793556
C   C17       1.0  0.99260  0.84790  0.24910  1.0000 -0.1093661121
C   C18       1.0  0.00740  0.15210  0.75090  1.0000 -0.1093661121
C   C19       1.0  0.93370  0.81510  0.22050  1.0000 -0.0113668628
C   C20       1.0  0.06630  0.18490  0.77950  1.0000 -0.0113668628
C   C21       1.0  0.84490  0.76350  0.24380  1.0000 -0.0987399146
C   C22       1.0  0.15510  0.23650  0.75620  1.0000 -0.0987399146
C   C23       1.0  0.81120  0.75090  0.29460  1.0000 -0.1414793556
C   C24       1.0  0.18880  0.24910  0.70540  1.0000 -0.1414793556
C   C25       1.0  0.85970  0.88890  0.48570  1.0000 0.6196520247
C   C26       1.0  0.14030  0.11110  0.51430  1.0000 0.6196520247
C   C27       1.0  0.63980  0.61070  0.48120  1.0000 0.6480682709
C   C28       1.0  0.36020  0.38930  0.51880  1.0000 0.6480682709
C   C29       1.0  0.97100  0.82990  0.16480  1.0000 0.5494393923
C   C30       1.0  0.02900  0.17010  0.83520  1.0000 0.5494393923
C   C31       1.0  0.76430  0.38200  0.37400  1.0000 -0.0113668628
C   C32       1.0  0.23570  0.61800  0.62600  1.0000 -0.0113668628
C   C33       1.0  0.79360  0.29870  0.40820  1.0000 -0.1184966944
C   C34       1.0  0.20640  0.70130  0.59180  1.0000 -0.1184966944
C   C35       1.0  0.89320  0.25340  0.39770  1.0000 -0.0199712191
C   C36       1.0  0.10680  0.74660  0.60230  1.0000 -0.0199712191
C   C37       1.0  0.96030  0.29270  0.35370  1.0000 -0.1414793556
C   C38       1.0  0.03970  0.70730  0.64630  1.0000 -0.1414793556
C   C39       1.0  0.93270  0.37940  0.31970  1.0000 0.0635839843
C   C40       1.0  0.06730  0.62060  0.68030  1.0000 0.0635839843
C   C41       1.0  0.83380  0.42310  0.33090  1.0000 -0.150810315
C   C42       1.0  0.16620  0.57690  0.66910  1.0000 -0.150810315
C   C43       1.0  0.01050  0.42770  0.27490  1.0000 0.0697580532
C   C44       1.0  0.98950  0.57230  0.72510  1.0000 0.0697580532
C   C45       1.0  0.01550  0.53010  0.25990  1.0000 -0.150810315
C   C46       1.0  0.98450  0.46990  0.74010  1.0000 -0.150810315
C   C47       1.0  0.09320  0.57460  0.22100  1.0000 -0.0914780654
C   C48       1.0  0.90680  0.42540  0.77900  1.0000 -0.0914780654
C   C49       1.0  0.16760  0.51790  0.19670  1.0000 -0.0292376729
C   C50       1.0  0.83240  0.48210  0.80330  1.0000 -0.0292376729
C   C51       1.0  0.16020  0.41480  0.21080  1.0000 -0.0987399146
C   C52       1.0  0.83980  0.58520  0.78920  1.0000 -0.0987399146
C   C53       1.0  0.08280  0.36920  0.24920  1.0000 -0.150810315
C   C54       1.0  0.91720  0.63080  0.75080  1.0000 -0.150810315
C   C55       1.0  0.65770  0.43390  0.38550  1.0000 0.5588522174
C   C56       1.0  0.34230  0.56610  0.61450  1.0000 0.5588522174
C   C57       1.0  0.92950  0.16370  0.43520  1.0000 0.6391643403
C   C58       1.0  0.07050  0.83630  0.56480  1.0000 0.6391643403
C   C59       1.0  0.25810  0.56650  0.15880  1.0000 0.592473618
C   C60       1.0  0.74190  0.43350  0.84120  1.0000 0.592473618
C   C61       1.0  0.76390  0.10300  0.09960  1.0000 -0.0199712191
C   C62       1.0  0.23610  0.89700  0.90040  1.0000 -0.0199712191
C   C63       1.0  0.71620  0.19870  0.08770  1.0000 -0.1414793556
C   C64       1.0  0.28380  0.80130  0.91230  1.0000 -0.1414793556
C   C65       1.0  0.63530  0.22900  0.12130  1.0000 -0.0199712191
C   C66       1.0  0.36470  0.77100  0.87870  1.0000 -0.0199712191
C   C67       1.0  0.59930  0.16360  0.16680  1.0000 -0.150810315
C   C68       1.0  0.40070  0.83640  0.83320  1.0000 -0.150810315
C   C69       1.0  0.64450  0.06770  0.17950  1.0000 0.0697580532
C   C70       1.0  0.35550  0.93230  0.82050  1.0000 0.0697580532
C   C71       1.0  0.72730  0.03950  0.14590  1.0000 -0.1311804212
C   C72       1.0  0.27270  0.96050  0.85410  1.0000 -0.1311804212
C   C73       1.0  0.60210  0.99640  0.22820  1.0000 0.0780884393
C   C74       1.0  0.39790  0.00360  0.77180  1.0000 0.0780884393
C   C75       1.0  0.59910  0.89460  0.22910  1.0000 -0.150810315
C   C76       1.0  0.40090  0.10540  0.77090  1.0000 -0.150810315
C   C77       1.0  0.55840  0.82720  0.27390  1.0000 -0.0987399146
C   C78       1.0  0.44160  0.17280  0.72610  1.0000 -0.0987399146
C   C79       1.0  0.52070  0.86170  0.31730  1.0000 -0.0436823152
C   C80       1.0  0.47930  0.13830  0.68270  1.0000 -0.0436823152
C   C81       1.0  0.52280  0.96150  0.31550  1.0000 -0.0987399146
C   C82       1.0  0.47720  0.03850  0.68450  1.0000 -0.0987399146
C   C83       1.0  0.56370  0.02750  0.27140  1.0000 -0.150810315
C   C84       1.0  0.43630  0.97250  0.72860  1.0000 -0.150810315
C   C85       1.0  0.85070  0.06970  0.06300  1.0000 0.6391643403
C   C86       1.0  0.14930  0.93030  0.93700  1.0000 0.6391643403
C   C87       1.0  0.58070  0.32940  0.10830  1.0000 0.54170262
C   C88       1.0  0.41930  0.67060  0.89170  1.0000 0.54170262
C   C89       1.0  0.48140  0.78590  0.36460  1.0000 0.6118774332
C   C90       1.0  0.51860  0.21410  0.63540  1.0000 0.6118774332
C   C91       1.0  0.69960  0.70790  0.95110  1.0000 -0.0469462655
C   C92       1.0  0.30040  0.29210  0.04890  1.0000 -0.0469462655
C   C93       1.0  0.75210  0.75400  0.97830  1.0000 -0.1311804212
C   C94       1.0  0.24790  0.24600  0.02170  1.0000 -0.1311804212
C   C95       1.0  0.81450  0.83470  0.95440  1.0000 -0.0292376729
C   C96       1.0  0.18550  0.16530  0.04560  1.0000 -0.0292376729
C   C97       1.0  0.82410  0.86860  0.90300  1.0000 -0.1414793556
C   C98       1.0  0.17590  0.13140  0.09700  1.0000 -0.1414793556
C   C99       1.0  0.77440  0.82380  0.87490  1.0000 0.0697580532
C   C100      1.0  0.22560  0.17620  0.12510  1.0000 0.0697580532
C   C101      1.0  0.71230  0.74180  0.89920  1.0000 -0.1414793556
C   C102      1.0  0.28770  0.25820  0.10080  1.0000 -0.1414793556
C   C103      1.0  0.79030  0.85860  0.81920  1.0000 0.0780884393
C   C104      1.0  0.20970  0.14140  0.18080  1.0000 0.0780884393
C   C105      1.0  0.71200  0.85080  0.79270  1.0000 -0.150810315
C   C106      1.0  0.28800  0.14920  0.20730  1.0000 -0.150810315
C   C107      1.0  0.72710  0.88250  0.74090  1.0000 -0.1093661121
C   C108      1.0  0.27290  0.11750  0.25910  1.0000 -0.1093661121
C   C109      1.0  0.82260  0.92300  0.71440  1.0000 -0.0113668628
C   C110      1.0  0.17740  0.07700  0.28560  1.0000 -0.0113668628
C   C111      1.0  0.89810  0.93080  0.74090  1.0000 -0.0987399146
C   C112      1.0  0.10190  0.06920  0.25910  1.0000 -0.0987399146
C   C113      1.0  0.88410  0.89930  0.79220  1.0000 -0.150810315
C   C114      1.0  0.11590  0.10070  0.20780  1.0000 -0.150810315
C   C115      1.0  0.63020  0.62400  0.97860  1.0000 0.6391643403
C   C116      1.0  0.36980  0.37600  0.02140  1.0000 0.6391643403
C   C117      1.0  0.87270  0.88120  0.98390  1.0000 0.6343434967
C   C118      1.0  0.12730  0.11880  0.01610  1.0000 0.6343434967
C   C119      1.0  0.83840  0.96160  0.65850  1.0000 0.5494393923
C   C120      1.0  0.16160  0.03840  0.34150  1.0000 0.5494393923
C   C121      1.0  0.43920  0.43540  0.32280  1.0000 0.2670131841
C   C122      1.0  0.56080  0.56460  0.67720  1.0000 0.2670131841
C   C123      1.0  0.29340  0.32220  0.33680  1.0000 -0.2889433883
C   C124      1.0  0.70660  0.67780  0.66320  1.0000 -0.2889433883
C   C125      1.0  0.43270  0.34510  0.25430  1.0000 -0.3708855095
C   C126      1.0  0.56730  0.65490  0.74570  1.0000 -0.3751788817
C   C127      1.0  0.07670  0.65920  0.02570  1.0000 0.2979758002
C   C128      1.0  0.92330  0.34080  0.97430  1.0000 0.2979758002
C   C129      1.0  0.13790  0.52750  0.98140  1.0000 -0.3708855095
C   C130      1.0  0.86210  0.47250  0.01860  1.0000 -0.3708855095
C   C131      1.0  0.11130  0.49790  0.07770  1.0000 -0.3320607326
C   C132      1.0  0.88870  0.50210  0.92230  1.0000 -0.3320607326
N   N1        1.0  0.38050  0.37590  0.30540  1.0000 0.0084985134
N   N2        1.0  0.61950  0.62410  0.69460  1.0000 0.0084985134
N   N3        1.0  0.10760  0.56460  0.02900  1.0000 0.0256176994
N   N4        1.0  0.89240  0.43540  0.97100  1.0000 0.0256176994
O   O1        1.0  0.94570  0.93230  0.47205  1.0000 -0.7113747678
O   O2        1.0  0.05430  0.06770  0.52795  1.0000 -0.7113747678
O   O3        1.0  0.79930  0.90020  0.52540  1.0000 -0.6068344943
O   O4        1.0  0.20070  0.09980  0.47460  1.0000 -0.6068344943
O   O5        1.0  0.59940  0.56660  0.45600  1.0000 -0.6807406269
O   O6        1.0  0.40060  0.43340  0.54400  1.0000 -0.6807406269
O   O7        1.0  0.62450  0.58960  0.52867  1.0000 -0.6654445611
O   O8        1.0  0.37550  0.41040  0.47133  1.0000 -0.6654445611
O   O9        1.0  0.04470  0.88790  0.14420  1.0000 -0.6068344943
O   O10       1.0  0.95530  0.11210  0.85580  1.0000 -0.6068344943
O   O11       1.0  0.92840  0.78600  0.14037  1.0000 -0.5822124563
O   O12       1.0  0.07160  0.21400  0.85963  1.0000 -0.5822124563
O   O13       1.0  0.63700  0.51630  0.35742  1.0000 -0.6288057477
O   O14       1.0  0.36300  0.48370  0.64258  1.0000 -0.6249416552
O   O15       1.0  0.59270  0.39200  0.42291  1.0000 -0.6288057477
O   O16       1.0  0.40730  0.60800  0.57709  1.0000 -0.6288057477
O   O17       1.0  0.86820  0.13500  0.47597  1.0000 -0.6503328167
O   O18       1.0  0.13180  0.86500  0.52403  1.0000 -0.6503328167
O   O19       1.0  0.01960  0.12600  0.42269  1.0000 -0.6807406269
O   O20       1.0  0.98040  0.87400  0.57731  1.0000 -0.6807406269
O   O21       1.0  0.26060  0.66040  0.14770  1.0000 -0.5743638359
O   O22       1.0  0.73940  0.33960  0.85230  1.0000 -0.5743638359
O   O23       1.0  0.32640  0.50900  0.14120  1.0000 -0.6807406269
O   O24       1.0  0.67360  0.49100  0.85880  1.0000 -0.6807406269
O   O25       1.0  0.89010  0.98370  0.07700  1.0000 -0.657656797
O   O26       1.0  0.10990  0.01630  0.92300  1.0000 -0.657656797
O   O27       1.0  0.87640  0.12730  0.02089  1.0000 -0.6654445611
O   O28       1.0  0.12360  0.87270  0.97911  1.0000 -0.6654445611
O   O29       1.0  0.50560  0.35390  0.13850  1.0000 -0.6288057477
O   O30       1.0  0.49440  0.64610  0.86150  1.0000 -0.6288057477
O   O31       1.0  0.61340  0.38940  0.06707  1.0000 -0.6288057477
O   O32       1.0  0.38660  0.61060  0.93293  1.0000 -0.6288057477
O   O33       1.0  0.48870  0.69410  0.36320  1.0000 -0.6912496171
O   O34       1.0  0.51130  0.30590  0.63680  1.0000 -0.6912496171
O   O35       1.0  0.44490  0.81490  0.40310  1.0000 -0.5743638359
O   O36       1.0  0.55510  0.18510  0.59690  1.0000 -0.5743638359
O   O37       1.0  0.59600  0.57190  0.95410  1.0000 -0.6807406269
O   O38       1.0  0.40400  0.42810  0.04590  1.0000 -0.6807406269
O   O39       1.0  0.61050  0.60840  0.02490  1.0000 -0.6403689913
O   O40       1.0  0.38950  0.39160  0.97510  1.0000 -0.6403689913
O   O41       1.0  0.90060  0.96920  0.96650  1.0000 -0.6807406269
O   O42       1.0  0.09940  0.03080  0.03350  1.0000 -0.6807406269
O   O43       1.0  0.89370  0.82760  0.02470  1.0000 -0.6403689913
O   O44       1.0  0.10630  0.17240  0.97530  1.0000 -0.6403689913
O   O45       1.0  0.77720  0.93700  0.63470  1.0000 -0.5916440767
O   O46       1.0  0.22280  0.06300  0.36530  1.0000 -0.5916440767
O   O47       1.0  0.91240  0.01750  0.63746  1.0000 -0.5916440767
O   O48       1.0  0.08760  0.98250  0.36254  1.0000 -0.5916440767
O   O49       1.0  0.68990  0.06120  0.55550  1.0000 -0.8530521177
O   O50       1.0  0.31010  0.93880  0.44450  1.0000 -0.8530521177
O   O51       1.0  0.85590  0.18660  0.56790  1.0000 -0.8400547586
O   O52       1.0  0.14410  0.81340  0.43210  1.0000 -0.8400547586
O   O53       1.0  0.42300  0.46270  0.35630  1.0000 -0.4435954176
O   O54       1.0  0.57700  0.53730  0.64370  1.0000 -0.4435954176
O   O55       1.0  0.38940  0.64300  0.47210  1.0000 -0.8582257412
O   O56       1.0  0.61060  0.35700  0.52790  1.0000 -0.8582257412
O   O57       1.0  0.28460  0.58320  0.40740  1.0000 -0.8400547586
O   O58       1.0  0.71540  0.41680  0.59260  1.0000 -0.8400547586
O   O59       1.0  0.05760  0.69970  0.06370  1.0000 -0.5916440767
O   O60       1.0  0.94240  0.30030  0.93630  1.0000 -0.5916440767
O   O61       1.0  0.21160  0.83210  0.07370  1.0000 -0.8530521177
O   O62       1.0  0.78840  0.16790  0.92630  1.0000 -0.8530521177
O   O63       1.0  0.37610  0.47110  0.86740  1.0000 -0.8400547586
O   O64       1.0  0.62390  0.52890  0.13260  1.0000 -0.8400547586
O   O65       1.0  0.53510  0.31900  0.89190  1.0000 -0.8582257412
O   O66       1.0  0.46490  0.68100  0.10810  1.0000 -0.8582257412
O   O67       1.0  0.62130  0.36300  0.96990  1.0000 -0.8321130357
O   O68       1.0  0.37870  0.63700  0.03010  1.0000 -0.8321130357
