# DDEC6 charges by PACMAN v1.1 (https://github.com/mtap-research/PACMAN-charge/)
data_2015[Cd][crb]3[FSR]2
_chemical_formula_sum              "Cd4 H36 C60 N20 O16"
_cell_length_a       9.9977
_cell_length_b       18.2887
_cell_length_c       14.1443
_cell_angle_alpha    90
_cell_angle_beta     123.432
_cell_angle_gamma    90

_symmetry_space_group_name_H-M    "P 1"
_symmetry_Int_Tables_number       1

loop_
  _symmetry_equiv_pos_as_xyz
  'x, y, z'

loop_
  _atom_site_type_symbol
  _atom_site_label
  _atom_site_symmetry_multiplicity
  _atom_site_fract_x
  _atom_site_fract_y
  _atom_site_fract_z
  _atom_site_occupancy
  _atom_site_charge
Cd  Cd1       1.0  0.11802  0.55175  0.66587  1.0000 0.8294491722
Cd  Cd2       1.0  0.88198  0.05175  0.83413  1.0000 0.8294491722
Cd  Cd3       1.0  0.88198  0.44825  0.33413  1.0000 0.8294491722
Cd  Cd4       1.0  0.11802  0.94825  0.16587  1.0000 0.8294491722
H   H1        1.0  0.38250  0.06050  0.81040  1.0000 0.1393334987
H   H2        1.0  0.61750  0.56050  0.68960  1.0000 0.1393334987
H   H3        1.0  0.61750  0.93950  0.18960  1.0000 0.1393334987
H   H4        1.0  0.38250  0.43950  0.31040  1.0000 0.1393334987
H   H5        1.0  0.05140  0.22280  0.68900  1.0000 0.1493359683
H   H6        1.0  0.94860  0.72280  0.81100  1.0000 0.1493359683
H   H7        1.0  0.94860  0.77720  0.31100  1.0000 0.1493359683
H   H8        1.0  0.05140  0.27720  0.18900  1.0000 0.1493359683
H   H9        1.0  0.47350  0.25440  0.71570  1.0000 0.1393334987
H   H10       1.0  0.52650  0.75440  0.78430  1.0000 0.1393334987
H   H11       1.0  0.52650  0.74560  0.28430  1.0000 0.1393334987
H   H12       1.0  0.47350  0.24560  0.21570  1.0000 0.1393334987
H   H13       1.0  0.19060  0.25970  0.45810  1.0000 0.1493359683
H   H14       1.0  0.80940  0.75970  0.04190  1.0000 0.1493359683
H   H15       1.0  0.80940  0.74030  0.54190  1.0000 0.1493359683
H   H16       1.0  0.19060  0.24030  0.95810  1.0000 0.1493359683
H   H17       1.0  0.04670  0.22660  0.46350  1.0000 0.1644518776
H   H18       1.0  0.95330  0.72660  0.03650  1.0000 0.1644518776
H   H19       1.0  0.95330  0.77340  0.53650  1.0000 0.1644518776
H   H20       1.0  0.04670  0.27340  0.96350  1.0000 0.1644518776
H   H21       1.0  0.01130  0.28780  0.37150  1.0000 0.1831341638
H   H22       1.0  0.98870  0.78780  0.12850  1.0000 0.1831341638
H   H23       1.0  0.98870  0.71220  0.62850  1.0000 0.1831341638
H   H24       1.0  0.01130  0.21220  0.87150  1.0000 0.1831341638
H   H25       1.0  0.37750  0.30780  0.89010  1.0000 0.1182862499
H   H26       1.0  0.62250  0.80780  0.60990  1.0000 0.1182862499
H   H27       1.0  0.62250  0.69220  0.10990  1.0000 0.1182862499
H   H28       1.0  0.37750  0.19220  0.39010  1.0000 0.1182862499
H   H29       1.0  0.39040  0.45820  0.09350  1.0000 0.1182862499
H   H30       1.0  0.60960  0.95820  0.40650  1.0000 0.1182862499
H   H31       1.0  0.60960  0.54180  0.90650  1.0000 0.1182862499
H   H32       1.0  0.39040  0.04180  0.59350  1.0000 0.1182862499
H   H33       1.0  0.26500  0.54030  0.94340  1.0000 0.1393334987
H   H34       1.0  0.73500  0.04030  0.55660  1.0000 0.1393334987
H   H35       1.0  0.73500  0.45970  0.05660  1.0000 0.1393334987
H   H36       1.0  0.26500  0.95970  0.44340  1.0000 0.1393334987
C   C1        1.0  0.09280  0.09008  0.77260  1.0000 0.5429196759
C   C2        1.0  0.90720  0.59008  0.72740  1.0000 0.5429196759
C   C3        1.0  0.90720  0.90992  0.22740  1.0000 0.5429196759
C   C4        1.0  0.09280  0.40992  0.27260  1.0000 0.5429196759
C   C5        1.0  0.61160  0.12515  0.79600  1.0000 0.5429196759
C   C6        1.0  0.38840  0.62515  0.70400  1.0000 0.5429196759
C   C7        1.0  0.38840  0.87485  0.20400  1.0000 0.5429196759
C   C8        1.0  0.61160  0.37485  0.29600  1.0000 0.5429196759
C   C9        1.0  0.35030  0.10872  0.78160  1.0000 -0.1315764384
C   C10       1.0  0.64970  0.60872  0.71840  1.0000 -0.1315764384
C   C11       1.0  0.64970  0.89128  0.21840  1.0000 -0.1315764384
C   C12       1.0  0.35030  0.39128  0.28160  1.0000 -0.1315764384
C   C13       1.0  0.20200  0.13466  0.75340  1.0000 0.0065974761
C   C14       1.0  0.79800  0.63466  0.74660  1.0000 0.0065974761
C   C15       1.0  0.79800  0.86534  0.24660  1.0000 0.0065974761
C   C16       1.0  0.20200  0.36534  0.25340  1.0000 0.0065974761
C   C17       1.0  0.45250  0.15299  0.76800  1.0000 0.0065974761
C   C18       1.0  0.54750  0.65299  0.73200  1.0000 0.0065974761
C   C19       1.0  0.54750  0.84701  0.23200  1.0000 0.0065974761
C   C20       1.0  0.45250  0.34701  0.26800  1.0000 0.0065974761
C   C21       1.0  0.15320  0.20479  0.70960  1.0000 -0.2021107944
C   C22       1.0  0.84680  0.70479  0.79040  1.0000 -0.2021107944
C   C23       1.0  0.84680  0.79521  0.29040  1.0000 -0.2021107944
C   C24       1.0  0.15320  0.29521  0.20960  1.0000 -0.2021107944
C   C25       1.0  0.40510  0.22366  0.72510  1.0000 -0.2067894883
C   C26       1.0  0.59490  0.72366  0.77490  1.0000 -0.2067894883
C   C27       1.0  0.59490  0.77634  0.27490  1.0000 -0.2067894883
C   C28       1.0  0.40510  0.27634  0.22510  1.0000 -0.2067894883
C   C29       1.0  0.25620  0.24788  0.69660  1.0000 0.1393334987
C   C30       1.0  0.74380  0.74788  0.80340  1.0000 0.1393334987
C   C31       1.0  0.74380  0.75212  0.30340  1.0000 0.1393334987
C   C32       1.0  0.25620  0.25212  0.19660  1.0000 0.1393334987
C   C33       1.0  0.08820  0.27080  0.44890  1.0000 -0.5333179431
C   C34       1.0  0.91180  0.77080  0.05110  1.0000 -0.5333179431
C   C35       1.0  0.91180  0.72920  0.55110  1.0000 -0.5333179431
C   C36       1.0  0.08820  0.22920  0.94890  1.0000 -0.5333179431
C   C37       1.0  0.11250  0.32882  0.53040  1.0000 0.3764144434
C   C38       1.0  0.88750  0.82882  0.96960  1.0000 0.3764144434
C   C39       1.0  0.88750  0.67118  0.46960  1.0000 0.3764144434
C   C40       1.0  0.11250  0.17118  0.03040  1.0000 0.3764144434
C   C41       1.0  0.19610  0.38354  0.69070  1.0000 0.2185829049
C   C42       1.0  0.80390  0.88354  0.80930  1.0000 0.2185829049
C   C43       1.0  0.80390  0.61646  0.30930  1.0000 0.2185829049
C   C44       1.0  0.19610  0.11646  0.19070  1.0000 0.2185829049
C   C45       1.0  0.26690  0.40258  0.81050  1.0000 0.1182862499
C   C46       1.0  0.73310  0.90258  0.68950  1.0000 0.1182862499
C   C47       1.0  0.73310  0.59742  0.18950  1.0000 0.1182862499
C   C48       1.0  0.26690  0.09742  0.31050  1.0000 0.1182862499
C   C49       1.0  0.35220  0.35548  0.90230  1.0000 -0.0136260297
C   C50       1.0  0.64780  0.85548  0.59770  1.0000 -0.0136260297
C   C51       1.0  0.64780  0.64452  0.09770  1.0000 -0.0136260297
C   C52       1.0  0.35220  0.14452  0.40230  1.0000 -0.0136260297
C   C53       1.0  0.36300  0.44296  0.02070  1.0000 0.0321731745
C   C54       1.0  0.63700  0.94296  0.47930  1.0000 0.0321731745
C   C55       1.0  0.63700  0.55704  0.97930  1.0000 0.0321731745
C   C56       1.0  0.36300  0.05704  0.52070  1.0000 0.0321731745
C   C57       1.0  0.28520  0.49182  0.93040  1.0000 0.0525951712
C   C58       1.0  0.71480  0.99182  0.56960  1.0000 0.0525951712
C   C59       1.0  0.71480  0.50818  0.06960  1.0000 0.0525951712
C   C60       1.0  0.28520  0.00818  0.43040  1.0000 0.0525951712
N   N1        1.0  0.19813  0.31873  0.64479  1.0000 -0.0955015467
N   N2        1.0  0.80187  0.81873  0.85521  1.0000 -0.0955015467
N   N3        1.0  0.80187  0.68127  0.35521  1.0000 -0.0955015467
N   N4        1.0  0.19813  0.18127  0.14479  1.0000 -0.0955015467
N   N5        1.0  0.06047  0.39676  0.50757  1.0000 -0.2067894883
N   N6        1.0  0.93953  0.89676  0.99243  1.0000 -0.2067894883
N   N7        1.0  0.93953  0.60324  0.49243  1.0000 -0.2067894883
N   N8        1.0  0.06047  0.10324  0.00757  1.0000 -0.2067894883
N   N9        1.0  0.11330  0.43132  0.60870  1.0000 -0.2067894883
N   N10       1.0  0.88670  0.93132  0.89130  1.0000 -0.2067894883
N   N11       1.0  0.88670  0.56868  0.39130  1.0000 -0.2067894883
N   N12       1.0  0.11330  0.06868  0.10870  1.0000 -0.2067894883
N   N13       1.0  0.23866  0.47159  0.82626  1.0000 -0.2021107944
N   N14       1.0  0.76134  0.97159  0.67374  1.0000 -0.2021107944
N   N15       1.0  0.76134  0.52841  0.17374  1.0000 -0.2021107944
N   N16       1.0  0.23866  0.02841  0.32626  1.0000 -0.2021107944
N   N17       1.0  0.39980  0.37552  0.00750  1.0000 -0.1766669499
N   N18       1.0  0.60020  0.87552  0.49250  1.0000 -0.1766669499
N   N19       1.0  0.60020  0.62448  0.99250  1.0000 -0.1766669499
N   N20       1.0  0.39980  0.12448  0.50750  1.0000 -0.1766669499
O   O1        1.0  0.13930  0.03037  0.82380  1.0000 -0.5503046451
O   O2        1.0  0.86070  0.53037  0.67620  1.0000 -0.5503046451
O   O3        1.0  0.86070  0.96963  0.17620  1.0000 -0.5503046451
O   O4        1.0  0.13930  0.46963  0.32380  1.0000 -0.5503046451
O   O5        1.0  0.95749  0.11744  0.73868  1.0000 -0.5503046451
O   O6        1.0  0.04251  0.61744  0.76132  1.0000 -0.5503046451
O   O7        1.0  0.04251  0.88256  0.26132  1.0000 -0.5503046451
O   O8        1.0  0.95749  0.38256  0.23868  1.0000 -0.5503046451
O   O9        1.0  0.63908  0.05757  0.81288  1.0000 -0.5552253769
O   O10       1.0  0.36092  0.55757  0.68712  1.0000 -0.5503046451
O   O11       1.0  0.36092  0.94243  0.18712  1.0000 -0.5503046451
O   O12       1.0  0.63908  0.44243  0.31288  1.0000 -0.5503046451
O   O13       1.0  0.71134  0.16877  0.80055  1.0000 -0.5392768132
O   O14       1.0  0.28866  0.66877  0.69945  1.0000 -0.5392768132
O   O15       1.0  0.28866  0.83123  0.19945  1.0000 -0.5392768132
O   O16       1.0  0.71134  0.33123  0.30055  1.0000 -0.5392768132
