# DDEC6 charges by PACMAN v1.1 (https://github.com/mtap-research/PACMAN-charge/)
data_2015[Cu][nan]3[FSR]7
_chemical_formula_sum              "Cu16 H64 C56 N48"
_cell_length_a       14.3364
_cell_length_b       14.3364
_cell_length_c       16.1167
_cell_angle_alpha    60.5937
_cell_angle_beta     119.406
_cell_angle_gamma    132.151

_symmetry_space_group_name_H-M    "P 1"
_symmetry_Int_Tables_number       1

loop_
  _symmetry_equiv_pos_as_xyz
  'x, y, z'

loop_
  _atom_site_type_symbol
  _atom_site_label
  _atom_site_symmetry_multiplicity
  _atom_site_fract_x
  _atom_site_fract_y
  _atom_site_fract_z
  _atom_site_occupancy
  _atom_site_charge
Cu  Cu1       1.0  0.32252  0.32252  0.25000  1.0000 0.2595574439
Cu  Cu2       1.0  0.67748  0.67748  0.75000  1.0000 0.2595574439
Cu  Cu3       1.0  0.64034  0.12492  0.55002  1.0000 0.2595574439
Cu  Cu4       1.0  0.12492  0.64034  0.94998  1.0000 0.2595574439
Cu  Cu5       1.0  0.35966  0.87508  0.44998  1.0000 0.2595574439
Cu  Cu6       1.0  0.87508  0.35966  0.05002  1.0000 0.2595574439
Cu  Cu7       1.0  0.45550  0.08004  0.67230  1.0000 0.2595574439
Cu  Cu8       1.0  0.08004  0.45550  0.82770  1.0000 0.2595574439
Cu  Cu9       1.0  0.54450  0.91996  0.32770  1.0000 0.2595574439
Cu  Cu10      1.0  0.91996  0.54450  0.17230  1.0000 0.2595574439
Cu  Cu11      1.0  0.07818  0.21406  0.49189  1.0000 0.2595574439
Cu  Cu12      1.0  0.21406  0.07818  0.00811  1.0000 0.2595574439
Cu  Cu13      1.0  0.92182  0.78594  0.50811  1.0000 0.2595574439
Cu  Cu14      1.0  0.78594  0.92182  0.99189  1.0000 0.2595574439
Cu  Cu15      1.0  0.10876  0.10876  0.75000  1.0000 0.2595574439
Cu  Cu16      1.0  0.89124  0.89124  0.25000  1.0000 0.2650392771
H   H1        1.0  0.61600  0.26280  0.33010  1.0000 0.158959818
H   H2        1.0  0.26280  0.61600  0.16990  1.0000 0.158959818
H   H3        1.0  0.38400  0.73720  0.66990  1.0000 0.158959818
H   H4        1.0  0.73720  0.38400  0.83010  1.0000 0.158959818
H   H5        1.0  0.48920  0.25300  0.24780  1.0000 0.158959818
H   H6        1.0  0.25300  0.48920  0.25220  1.0000 0.158959818
H   H7        1.0  0.51080  0.74700  0.75220  1.0000 0.158959818
H   H8        1.0  0.74700  0.51080  0.74780  1.0000 0.158959818
H   H9        1.0  0.60530  0.38370  0.28430  1.0000 0.167512725
H   H10       1.0  0.38370  0.60530  0.21570  1.0000 0.167512725
H   H11       1.0  0.39470  0.61630  0.71570  1.0000 0.167512725
H   H12       1.0  0.61630  0.39470  0.78430  1.0000 0.167512725
H   H13       1.0  0.26270  0.24990  0.42640  1.0000 0.1488654808
H   H14       1.0  0.24990  0.26270  0.07360  1.0000 0.1488654808
H   H15       1.0  0.73730  0.75010  0.57360  1.0000 0.1488654808
H   H16       1.0  0.75010  0.73730  0.92640  1.0000 0.1488654808
H   H17       1.0  0.18460  0.09640  0.44920  1.0000 0.158959818
H   H18       1.0  0.09640  0.18460  0.05080  1.0000 0.158959818
H   H19       1.0  0.81540  0.90360  0.55080  1.0000 0.158959818
H   H20       1.0  0.90360  0.81540  0.94920  1.0000 0.158959818
H   H21       1.0  0.37470  0.14130  0.86630  1.0000 0.158959818
H   H22       1.0  0.14130  0.37470  0.63370  1.0000 0.158959818
H   H23       1.0  0.62530  0.85870  0.13370  1.0000 0.158959818
H   H24       1.0  0.85870  0.62530  0.36630  1.0000 0.158959818
H   H25       1.0  0.34340  0.01280  0.86300  1.0000 0.158959818
H   H26       1.0  0.01280  0.34340  0.63700  1.0000 0.158959818
H   H27       1.0  0.65660  0.98720  0.13700  1.0000 0.158959818
H   H28       1.0  0.98720  0.65660  0.36300  1.0000 0.158959818
H   H29       1.0  0.47790  0.14930  0.84470  1.0000 0.158959818
H   H30       1.0  0.14930  0.47790  0.65530  1.0000 0.158959818
H   H31       1.0  0.52210  0.85070  0.15530  1.0000 0.158959818
H   H32       1.0  0.85070  0.52210  0.34470  1.0000 0.158959818
H   H33       1.0  0.80880  0.17400  0.36120  1.0000 0.1488654808
H   H34       1.0  0.17400  0.80880  0.13880  1.0000 0.1488654808
H   H35       1.0  0.19120  0.82600  0.63880  1.0000 0.1488654808
H   H36       1.0  0.82600  0.19120  0.86120  1.0000 0.1488654808
H   H37       1.0  0.68860  0.14040  0.38040  1.0000 0.1488654808
H   H38       1.0  0.14040  0.68860  0.11960  1.0000 0.1488654808
H   H39       1.0  0.31140  0.85960  0.61960  1.0000 0.1488654808
H   H40       1.0  0.85960  0.31140  0.88040  1.0000 0.1488654808
H   H41       1.0  0.82050  0.28290  0.37800  1.0000 0.158959818
H   H42       1.0  0.28290  0.82050  0.12200  1.0000 0.158959818
H   H43       1.0  0.17950  0.71710  0.62200  1.0000 0.158959818
H   H44       1.0  0.71710  0.17950  0.87800  1.0000 0.158959818
H   H45       1.0  0.81830  0.94130  0.78910  1.0000 0.1488654808
H   H46       1.0  0.94130  0.81830  0.71090  1.0000 0.1488654808
H   H47       1.0  0.18170  0.05870  0.21090  1.0000 0.1488654808
H   H48       1.0  0.05870  0.18170  0.28910  1.0000 0.1488654808
H   H49       1.0  0.90840  0.08640  0.79880  1.0000 0.158959818
H   H50       1.0  0.08640  0.90840  0.70120  1.0000 0.158959818
H   H51       1.0  0.09160  0.91360  0.20120  1.0000 0.158959818
H   H52       1.0  0.91360  0.09160  0.29880  1.0000 0.158959818
H   H53       1.0  0.41770  0.87210  0.86670  1.0000 0.158959818
H   H54       1.0  0.87210  0.41770  0.63330  1.0000 0.158959818
H   H55       1.0  0.58230  0.12790  0.13330  1.0000 0.158959818
H   H56       1.0  0.12790  0.58230  0.36670  1.0000 0.158959818
H   H57       1.0  0.48550  0.79610  0.94080  1.0000 0.167512725
H   H58       1.0  0.79610  0.48550  0.55920  1.0000 0.167512725
H   H59       1.0  0.51450  0.20390  0.05920  1.0000 0.167512725
H   H60       1.0  0.20390  0.51450  0.44080  1.0000 0.167512725
H   H61       1.0  0.54940  0.93640  0.94830  1.0000 0.158959818
H   H62       1.0  0.93640  0.54940  0.55170  1.0000 0.158959818
H   H63       1.0  0.45060  0.06360  0.05170  1.0000 0.158959818
H   H64       1.0  0.06360  0.45060  0.44830  1.0000 0.158959818
C   C1        1.0  0.55660  0.28860  0.30450  1.0000 -0.5202505916
C   C2        1.0  0.28860  0.55660  0.19550  1.0000 -0.5202505916
C   C3        1.0  0.44340  0.71140  0.69550  1.0000 -0.5202505916
C   C4        1.0  0.71140  0.44340  0.80450  1.0000 -0.5202505916
C   C5        1.0  0.49550  0.23790  0.38220  1.0000 0.385682565
C   C6        1.0  0.23790  0.49550  0.11780  1.0000 0.385682565
C   C7        1.0  0.50450  0.76210  0.61780  1.0000 0.385682565
C   C8        1.0  0.76210  0.50450  0.88220  1.0000 0.385682565
C   C9        1.0  0.37340  0.19160  0.45540  1.0000 0.3619754658
C   C10       1.0  0.19160  0.37340  0.04460  1.0000 0.3619754658
C   C11       1.0  0.62660  0.80840  0.54460  1.0000 0.3619754658
C   C12       1.0  0.80840  0.62660  0.95540  1.0000 0.3619754658
C   C13       1.0  0.26770  0.17450  0.47070  1.0000 -0.3873084365
C   C14       1.0  0.17450  0.26770  0.02930  1.0000 -0.3873084365
C   C15       1.0  0.73230  0.82550  0.52930  1.0000 -0.3873084365
C   C16       1.0  0.82550  0.73230  0.97070  1.0000 -0.3873084365
C   C17       1.0  0.27740  0.16100  0.57230  1.0000 0.3619754658
C   C18       1.0  0.16100  0.27740  0.92770  1.0000 0.3619754658
C   C19       1.0  0.72260  0.83900  0.42770  1.0000 0.3619754658
C   C20       1.0  0.83900  0.72260  0.07230  1.0000 0.3619754658
C   C21       1.0  0.32350  0.13150  0.72670  1.0000 0.385682565
C   C22       1.0  0.13150  0.32350  0.77330  1.0000 0.385682565
C   C23       1.0  0.67650  0.86850  0.27330  1.0000 0.385682565
C   C24       1.0  0.86850  0.67650  0.22670  1.0000 0.385682565
C   C25       1.0  0.38520  0.10660  0.83450  1.0000 -0.5326382845
C   C26       1.0  0.10660  0.38520  0.66550  1.0000 -0.5326382845
C   C27       1.0  0.61480  0.89340  0.16550  1.0000 -0.5326382845
C   C28       1.0  0.89340  0.61480  0.33450  1.0000 -0.5326382845
C   C29       1.0  0.78360  0.19000  0.39680  1.0000 -0.5433652579
C   C30       1.0  0.19000  0.78360  0.10320  1.0000 -0.5433652579
C   C31       1.0  0.21640  0.81000  0.60320  1.0000 -0.5433652579
C   C32       1.0  0.81000  0.21640  0.89680  1.0000 -0.5433652579
C   C33       1.0  0.83330  0.14870  0.50460  1.0000 0.3746429951
C   C34       1.0  0.14870  0.83330  0.99540  1.0000 0.3746429951
C   C35       1.0  0.16670  0.85130  0.49540  1.0000 0.3746429951
C   C36       1.0  0.85130  0.16670  0.00460  1.0000 0.3746429951
C   C37       1.0  0.84700  0.07580  0.65840  1.0000 0.350495261
C   C38       1.0  0.07580  0.84700  0.84160  1.0000 0.350495261
C   C39       1.0  0.15300  0.92420  0.34160  1.0000 0.350495261
C   C40       1.0  0.92420  0.15300  0.15840  1.0000 0.350495261
C   C41       1.0  0.82770  0.02550  0.75890  1.0000 -0.4093212105
C   C42       1.0  0.02550  0.82770  0.74110  1.0000 -0.4093212105
C   C43       1.0  0.17230  0.97450  0.24110  1.0000 -0.4093212105
C   C44       1.0  0.97450  0.17230  0.25890  1.0000 -0.4093212105
C   C45       1.0  0.71590  0.00530  0.76830  1.0000 0.350495261
C   C46       1.0  0.00530  0.71590  0.73170  1.0000 0.350495261
C   C47       1.0  0.28410  0.99470  0.23170  1.0000 0.350495261
C   C48       1.0  0.99470  0.28410  0.26830  1.0000 0.350495261
C   C49       1.0  0.57760  0.94340  0.83320  1.0000 0.3769094468
C   C50       1.0  0.94340  0.57760  0.66680  1.0000 0.3769094468
C   C51       1.0  0.42240  0.05660  0.16680  1.0000 0.3769094468
C   C52       1.0  0.05660  0.42240  0.33320  1.0000 0.3769094468
C   C53       1.0  0.50100  0.88180  0.90320  1.0000 -0.5326382845
C   C54       1.0  0.88180  0.50100  0.59680  1.0000 -0.5326382845
C   C55       1.0  0.49900  0.11820  0.09680  1.0000 -0.5326382845
C   C56       1.0  0.11820  0.49900  0.40320  1.0000 -0.5326382845
N   N1        1.0  0.39850  0.24670  0.36610  1.0000 -0.4178557872
N   N2        1.0  0.24670  0.39850  0.13390  1.0000 -0.4178557872
N   N3        1.0  0.60150  0.75330  0.63390  1.0000 -0.4178557872
N   N4        1.0  0.75330  0.60150  0.86610  1.0000 -0.4178557872
N   N5        1.0  0.52680  0.18060  0.47570  1.0000 -0.2394000224
N   N6        1.0  0.18060  0.52680  0.02430  1.0000 -0.2394000224
N   N7        1.0  0.47320  0.81940  0.52430  1.0000 -0.2394000224
N   N8        1.0  0.81940  0.47320  0.97570  1.0000 -0.2394000224
N   N9        1.0  0.44883  0.15197  0.52300  1.0000 -0.228946197
N   N10       1.0  0.15197  0.44883  0.97700  1.0000 -0.228946197
N   N11       1.0  0.55117  0.84803  0.47700  1.0000 -0.228946197
N   N12       1.0  0.84803  0.55117  0.02300  1.0000 -0.228946197
N   N13       1.0  0.35260  0.13120  0.65820  1.0000 -0.4093212105
N   N14       1.0  0.13120  0.35260  0.84180  1.0000 -0.4093212105
N   N15       1.0  0.64740  0.86880  0.34180  1.0000 -0.4093212105
N   N16       1.0  0.86880  0.64740  0.15820  1.0000 -0.4093212105
N   N17       1.0  0.20673  0.17807  0.58660  1.0000 -0.2498459883
N   N18       1.0  0.17807  0.20673  0.91340  1.0000 -0.2498459883
N   N19       1.0  0.79327  0.82193  0.41340  1.0000 -0.2498459883
N   N20       1.0  0.82193  0.79327  0.08660  1.0000 -0.2498459883
N   N21       1.0  0.23679  0.15941  0.68680  1.0000 -0.2394000224
N   N22       1.0  0.15941  0.23679  0.81320  1.0000 -0.2394000224
N   N23       1.0  0.76321  0.84059  0.31320  1.0000 -0.2394000224
N   N24       1.0  0.84059  0.76321  0.18680  1.0000 -0.2394000224
N   N25       1.0  0.94283  0.09257  0.64630  1.0000 -0.2498459883
N   N26       1.0  0.09257  0.94283  0.85370  1.0000 -0.2498459883
N   N27       1.0  0.05717  0.90743  0.35370  1.0000 -0.2498459883
N   N28       1.0  0.90743  0.05717  0.14630  1.0000 -0.2498459883
N   N29       1.0  0.93484  0.14016  0.54700  1.0000 -0.2394000224
N   N30       1.0  0.14016  0.93484  0.95300  1.0000 -0.2394000224
N   N31       1.0  0.06516  0.85984  0.45300  1.0000 -0.2394000224
N   N32       1.0  0.85984  0.06516  0.04700  1.0000 -0.2394000224
N   N33       1.0  0.77508  0.10992  0.57130  1.0000 -0.4028885841
N   N34       1.0  0.10992  0.77508  0.92870  1.0000 -0.4028885841
N   N35       1.0  0.22492  0.89008  0.42870  1.0000 -0.4028885841
N   N36       1.0  0.89008  0.22492  0.07130  1.0000 -0.4028885841
N   N37       1.0  0.68073  0.94027  0.85530  1.0000 -0.4263188793
N   N38       1.0  0.94027  0.68073  0.64470  1.0000 -0.4263188793
N   N39       1.0  0.31927  0.05973  0.14470  1.0000 -0.4263188793
N   N40       1.0  0.05973  0.31927  0.35530  1.0000 -0.4263188793
N   N41       1.0  0.55355  0.00685  0.74030  1.0000 -0.2394000224
N   N42       1.0  0.00685  0.55355  0.75970  1.0000 -0.2394000224
N   N43       1.0  0.44645  0.99315  0.25970  1.0000 -0.2394000224
N   N44       1.0  0.99315  0.44645  0.24030  1.0000 -0.2394000224
N   N45       1.0  0.64263  0.04597  0.69860  1.0000 -0.2394000224
N   N46       1.0  0.04597  0.64263  0.80140  1.0000 -0.2394000224
N   N47       1.0  0.35737  0.95403  0.30140  1.0000 -0.2394000224
N   N48       1.0  0.95403  0.35737  0.19860  1.0000 -0.2394000224
