# DDEC6 charges by PACMAN v1.1 (https://github.com/mtap-research/PACMAN-charge/)
data_2015[Cu][dia]3[FSR]1
_chemical_formula_sum              "Cu4 H48 C72 N24 O16"
_cell_length_a       9.8601
_cell_length_b       12.7307
_cell_length_c       17.6478
_cell_angle_alpha    90
_cell_angle_beta     90
_cell_angle_gamma    90

_symmetry_space_group_name_H-M    "P 1"
_symmetry_Int_Tables_number       1

loop_
  _symmetry_equiv_pos_as_xyz
  'x, y, z'

loop_
  _atom_site_type_symbol
  _atom_site_label
  _atom_site_symmetry_multiplicity
  _atom_site_fract_x
  _atom_site_fract_y
  _atom_site_fract_z
  _atom_site_occupancy
  _atom_site_charge
Cu  Cu1       1.0  0.50000  0.75000  0.66008  1.0000 0.7437747685
Cu  Cu2       1.0  0.00000  0.25000  0.16008  1.0000 0.7437747685
Cu  Cu3       1.0  0.00000  0.75000  0.83992  1.0000 0.7437747685
Cu  Cu4       1.0  0.50000  0.25000  0.33992  1.0000 0.7437747685
H   H1        1.0  0.60720  0.50250  0.48700  1.0000 0.1209002404
H   H2        1.0  0.39280  0.99750  0.48700  1.0000 0.1209002404
H   H3        1.0  0.10720  0.49750  0.98700  1.0000 0.1209002404
H   H4        1.0  0.89280  0.00250  0.98700  1.0000 0.1209002404
H   H5        1.0  0.71930  0.42210  0.38700  1.0000 0.1320580337
H   H6        1.0  0.28070  0.07790  0.38700  1.0000 0.1320580337
H   H7        1.0  0.21930  0.57790  0.88700  1.0000 0.1320580337
H   H8        1.0  0.78070  0.92210  0.88700  1.0000 0.1320580337
H   H9        1.0  0.03640  0.61960  0.41650  1.0000 0.1320580337
H   H10       1.0  0.96360  0.88040  0.41650  1.0000 0.1320580337
H   H11       1.0  0.53640  0.38040  0.91650  1.0000 0.1320580337
H   H12       1.0  0.46360  0.11960  0.91650  1.0000 0.1320580337
H   H13       1.0  0.92090  0.69930  0.51730  1.0000 0.1117552525
H   H14       1.0  0.07910  0.80070  0.51730  1.0000 0.1117552525
H   H15       1.0  0.42090  0.30070  0.01730  1.0000 0.1117552525
H   H16       1.0  0.57910  0.19930  0.01730  1.0000 0.1117552525
H   H17       1.0  0.13890  0.47330  0.19350  1.0000 0.1209002404
H   H18       1.0  0.86110  0.02670  0.19350  1.0000 0.1209002404
H   H19       1.0  0.63890  0.52670  0.69350  1.0000 0.1209002404
H   H20       1.0  0.36110  0.97330  0.69350  1.0000 0.1209002404
H   H21       1.0  0.86980  0.32200  0.31740  1.0000 0.1320580337
H   H22       1.0  0.13020  0.17800  0.31740  1.0000 0.1320580337
H   H23       1.0  0.36980  0.67800  0.81740  1.0000 0.1320580337
H   H24       1.0  0.63020  0.82200  0.81740  1.0000 0.1320580337
H   H25       1.0  0.89280  0.50250  0.01300  1.0000 0.1209002404
H   H26       1.0  0.10720  0.99750  0.01300  1.0000 0.1209002404
H   H27       1.0  0.39280  0.49750  0.51300  1.0000 0.1209002404
H   H28       1.0  0.60720  0.00250  0.51300  1.0000 0.1209002404
H   H29       1.0  0.78070  0.42210  0.11300  1.0000 0.1320580337
H   H30       1.0  0.21930  0.07790  0.11300  1.0000 0.1320580337
H   H31       1.0  0.28070  0.57790  0.61300  1.0000 0.1320580337
H   H32       1.0  0.71930  0.92210  0.61300  1.0000 0.1320580337
H   H33       1.0  0.46360  0.61960  0.08350  1.0000 0.1320580337
H   H34       1.0  0.53640  0.88040  0.08350  1.0000 0.1320580337
H   H35       1.0  0.96360  0.38040  0.58350  1.0000 0.1320580337
H   H36       1.0  0.03640  0.11960  0.58350  1.0000 0.1320580337
H   H37       1.0  0.57910  0.69930  0.98270  1.0000 0.1117552525
H   H38       1.0  0.42090  0.80070  0.98270  1.0000 0.1117552525
H   H39       1.0  0.07910  0.30070  0.48270  1.0000 0.1117552525
H   H40       1.0  0.92090  0.19930  0.48270  1.0000 0.1117552525
H   H41       1.0  0.36110  0.47330  0.30650  1.0000 0.1209002404
H   H42       1.0  0.63890  0.02670  0.30650  1.0000 0.1209002404
H   H43       1.0  0.86110  0.52670  0.80650  1.0000 0.1209002404
H   H44       1.0  0.13890  0.97330  0.80650  1.0000 0.1209002404
H   H45       1.0  0.63020  0.32200  0.18260  1.0000 0.1320580337
H   H46       1.0  0.36980  0.17800  0.18260  1.0000 0.1320580337
H   H47       1.0  0.13020  0.67800  0.68260  1.0000 0.1320580337
H   H48       1.0  0.86980  0.82200  0.68260  1.0000 0.1320580337
C   C1        1.0  0.67860  0.66470  0.57500  1.0000 0.5392892627
C   C2        1.0  0.32140  0.83530  0.57500  1.0000 0.5392892627
C   C3        1.0  0.17860  0.33530  0.07500  1.0000 0.5392892627
C   C4        1.0  0.82140  0.16470  0.07500  1.0000 0.5392892627
C   C5        1.0  0.75240  0.60930  0.51230  1.0000 -0.0214316001
C   C6        1.0  0.24760  0.89070  0.51230  1.0000 -0.0214316001
C   C7        1.0  0.25240  0.39070  0.01230  1.0000 -0.0214316001
C   C8        1.0  0.74760  0.10930  0.01230  1.0000 -0.0214316001
C   C9        1.0  0.69460  0.52680  0.47270  1.0000 -0.073397714
C   C10       1.0  0.30540  0.97320  0.47270  1.0000 -0.073397714
C   C11       1.0  0.19460  0.47320  0.97270  1.0000 -0.073397714
C   C12       1.0  0.80540  0.02680  0.97270  1.0000 -0.073397714
C   C13       1.0  0.76020  0.47900  0.41330  1.0000 -0.1679969769
C   C14       1.0  0.23980  0.02100  0.41330  1.0000 -0.1679969769
C   C15       1.0  0.26020  0.52100  0.91330  1.0000 -0.1679969769
C   C16       1.0  0.73980  0.97900  0.91330  1.0000 -0.1679969769
C   C17       1.0  0.88600  0.51510  0.39270  1.0000 0.1423760556
C   C18       1.0  0.11400  0.98490  0.39270  1.0000 0.1423760556
C   C19       1.0  0.38600  0.48490  0.89270  1.0000 0.1423760556
C   C20       1.0  0.61400  0.01510  0.89270  1.0000 0.1423760556
C   C21       1.0  0.94850  0.59620  0.43080  1.0000 -0.1679969769
C   C22       1.0  0.05150  0.90380  0.43080  1.0000 -0.1679969769
C   C23       1.0  0.44850  0.40380  0.93080  1.0000 -0.1679969769
C   C24       1.0  0.55150  0.09620  0.93080  1.0000 -0.1679969769
C   C25       1.0  0.87950  0.64300  0.49070  1.0000 -0.096508223
C   C26       1.0  0.12050  0.85700  0.49070  1.0000 -0.096508223
C   C27       1.0  0.37950  0.35700  0.99070  1.0000 -0.096508223
C   C28       1.0  0.62050  0.14300  0.99070  1.0000 -0.096508223
C   C29       1.0  0.07630  0.45740  0.23270  1.0000 0.1509841351
C   C30       1.0  0.92370  0.04260  0.23270  1.0000 0.1509841351
C   C31       1.0  0.57630  0.54260  0.73270  1.0000 0.1509841351
C   C32       1.0  0.42370  0.95740  0.73270  1.0000 0.1509841351
C   C33       1.0  0.93060  0.37370  0.29860  1.0000 0.0876908671
C   C34       1.0  0.06940  0.12630  0.29860  1.0000 0.0876908671
C   C35       1.0  0.43060  0.62630  0.79860  1.0000 0.0876908671
C   C36       1.0  0.56940  0.87370  0.79860  1.0000 0.0876908671
C   C37       1.0  0.82140  0.66470  0.92500  1.0000 0.5392892627
C   C38       1.0  0.17860  0.83530  0.92500  1.0000 0.5392892627
C   C39       1.0  0.32140  0.33530  0.42500  1.0000 0.5392892627
C   C40       1.0  0.67860  0.16470  0.42500  1.0000 0.5392892627
C   C41       1.0  0.74760  0.60930  0.98770  1.0000 -0.0214316001
C   C42       1.0  0.25240  0.89070  0.98770  1.0000 -0.0214316001
C   C43       1.0  0.24760  0.39070  0.48770  1.0000 -0.0214316001
C   C44       1.0  0.75240  0.10930  0.48770  1.0000 -0.0214316001
C   C45       1.0  0.80540  0.52680  0.02730  1.0000 -0.073397714
C   C46       1.0  0.19460  0.97320  0.02730  1.0000 -0.073397714
C   C47       1.0  0.30540  0.47320  0.52730  1.0000 -0.073397714
C   C48       1.0  0.69460  0.02680  0.52730  1.0000 -0.073397714
C   C49       1.0  0.73980  0.47900  0.08670  1.0000 -0.1679969769
C   C50       1.0  0.26020  0.02100  0.08670  1.0000 -0.1679969769
C   C51       1.0  0.23980  0.52100  0.58670  1.0000 -0.1679969769
C   C52       1.0  0.76020  0.97900  0.58670  1.0000 -0.1679969769
C   C53       1.0  0.61400  0.51510  0.10730  1.0000 0.1423760556
C   C54       1.0  0.38600  0.98490  0.10730  1.0000 0.1423760556
C   C55       1.0  0.11400  0.48490  0.60730  1.0000 0.1423760556
C   C56       1.0  0.88600  0.01510  0.60730  1.0000 0.1423760556
C   C57       1.0  0.55150  0.59620  0.06920  1.0000 -0.1679969769
C   C58       1.0  0.44850  0.90380  0.06920  1.0000 -0.1679969769
C   C59       1.0  0.05150  0.40380  0.56920  1.0000 -0.1679969769
C   C60       1.0  0.94850  0.09620  0.56920  1.0000 -0.1679969769
C   C61       1.0  0.62050  0.64300  0.00930  1.0000 -0.096508223
C   C62       1.0  0.37950  0.85700  0.00930  1.0000 -0.096508223
C   C63       1.0  0.12050  0.35700  0.50930  1.0000 -0.096508223
C   C64       1.0  0.87950  0.14300  0.50930  1.0000 -0.096508223
C   C65       1.0  0.42370  0.45740  0.26730  1.0000 0.1509841351
C   C66       1.0  0.57630  0.04260  0.26730  1.0000 0.1509841351
C   C67       1.0  0.92370  0.54260  0.76730  1.0000 0.1509841351
C   C68       1.0  0.07630  0.95740  0.76730  1.0000 0.1509841351
C   C69       1.0  0.56940  0.37370  0.20140  1.0000 0.0876908671
C   C70       1.0  0.43060  0.12630  0.20140  1.0000 0.0876908671
C   C71       1.0  0.06940  0.62630  0.70140  1.0000 0.0876908671
C   C72       1.0  0.93060  0.87370  0.70140  1.0000 0.0876908671
N   N1        1.0  0.95270  0.46810  0.32940  1.0000 0.1423760556
N   N2        1.0  0.04730  0.03190  0.32940  1.0000 0.1423760556
N   N3        1.0  0.45270  0.53190  0.82940  1.0000 0.1423760556
N   N4        1.0  0.54730  0.96810  0.82940  1.0000 0.1423760556
N   N5        1.0  0.04710  0.52260  0.28770  1.0000 -0.2478155823
N   N6        1.0  0.95290  0.97740  0.28770  1.0000 -0.2478155823
N   N7        1.0  0.54710  0.47740  0.78770  1.0000 -0.2478155823
N   N8        1.0  0.45290  0.02260  0.78770  1.0000 -0.2478155823
N   N9        1.0  0.00780  0.36400  0.23740  1.0000 -0.3293520392
N   N10       1.0  0.99220  0.13600  0.23740  1.0000 -0.3293520392
N   N11       1.0  0.50780  0.63600  0.73740  1.0000 -0.3293520392
N   N12       1.0  0.49220  0.86400  0.73740  1.0000 -0.3293520392
N   N13       1.0  0.54730  0.46810  0.17060  1.0000 0.1423760556
N   N14       1.0  0.45270  0.03190  0.17060  1.0000 0.1423760556
N   N15       1.0  0.04730  0.53190  0.67060  1.0000 0.1423760556
N   N16       1.0  0.95270  0.96810  0.67060  1.0000 0.1423760556
N   N17       1.0  0.45290  0.52260  0.21230  1.0000 -0.2478155823
N   N18       1.0  0.54710  0.97740  0.21230  1.0000 -0.2478155823
N   N19       1.0  0.95290  0.47740  0.71230  1.0000 -0.2478155823
N   N20       1.0  0.04710  0.02260  0.71230  1.0000 -0.2478155823
N   N21       1.0  0.49220  0.36400  0.26260  1.0000 -0.3293520392
N   N22       1.0  0.50780  0.13600  0.26260  1.0000 -0.3293520392
N   N23       1.0  0.99220  0.63600  0.76260  1.0000 -0.3293520392
N   N24       1.0  0.00780  0.86400  0.76260  1.0000 -0.3293520392
O   O1        1.0  0.55130  0.64810  0.58041  1.0000 -0.5081645132
O   O2        1.0  0.44870  0.85190  0.58041  1.0000 -0.5081645132
O   O3        1.0  0.05130  0.35190  0.08041  1.0000 -0.5081645132
O   O4        1.0  0.94870  0.14810  0.08041  1.0000 -0.5081645132
O   O5        1.0  0.74130  0.72410  0.61790  1.0000 -0.5716699691
O   O6        1.0  0.25870  0.77590  0.61790  1.0000 -0.5716699691
O   O7        1.0  0.24130  0.27590  0.11790  1.0000 -0.5716699691
O   O8        1.0  0.75870  0.22410  0.11790  1.0000 -0.5716699691
O   O9        1.0  0.94870  0.64810  0.91959  1.0000 -0.5081645132
O   O10       1.0  0.05130  0.85190  0.91959  1.0000 -0.5081645132
O   O11       1.0  0.44870  0.35190  0.41959  1.0000 -0.5081645132
O   O12       1.0  0.55130  0.14810  0.41959  1.0000 -0.5081645132
O   O13       1.0  0.75870  0.72410  0.88210  1.0000 -0.5716699691
O   O14       1.0  0.24130  0.77590  0.88210  1.0000 -0.5716699691
O   O15       1.0  0.25870  0.27590  0.38210  1.0000 -0.5716699691
O   O16       1.0  0.74130  0.22410  0.38210  1.0000 -0.5716699691
