# DDEC6 charges by PACMAN v1.1 (https://github.com/mtap-research/PACMAN-charge/)
data_2015[U][nan]3[FSR]3
_chemical_formula_sum              "U8 H64 C60 N24 O68"
_cell_length_a       11.46
_cell_length_b       19.968
_cell_length_c       17.2482
_cell_angle_alpha    90
_cell_angle_beta     121.296
_cell_angle_gamma    90

_symmetry_space_group_name_H-M    "P 1"
_symmetry_Int_Tables_number       1

loop_
  _symmetry_equiv_pos_as_xyz
  'x, y, z'

loop_
  _atom_site_type_symbol
  _atom_site_label
  _atom_site_symmetry_multiplicity
  _atom_site_fract_x
  _atom_site_fract_y
  _atom_site_fract_z
  _atom_site_occupancy
  _atom_site_charge
U   U1        1.0  0.87704  0.53271  0.14409  1.0000 2.3101184056
U   U2        1.0  0.12296  0.03271  0.35591  1.0000 2.3101184056
U   U3        1.0  0.12296  0.46729  0.85591  1.0000 2.3101184056
U   U4        1.0  0.87704  0.96729  0.64409  1.0000 2.3101184056
U   U5        1.0  0.65842  0.61347  0.41290  1.0000 2.3947558687
U   U6        1.0  0.34158  0.11347  0.08710  1.0000 2.3947558687
U   U7        1.0  0.34158  0.38653  0.58710  1.0000 2.3947558687
U   U8        1.0  0.65842  0.88653  0.91290  1.0000 2.3947558687
H   H1        1.0  0.11070  0.52890  0.46250  1.0000 0.1607323797
H   H2        1.0  0.88930  0.02890  0.03750  1.0000 0.1607323797
H   H3        1.0  0.88930  0.47110  0.53750  1.0000 0.1607323797
H   H4        1.0  0.11070  0.97110  0.96250  1.0000 0.1607323797
H   H5        1.0  0.03440  0.59640  0.45320  1.0000 0.1607323797
H   H6        1.0  0.96560  0.09640  0.04680  1.0000 0.1607323797
H   H7        1.0  0.96560  0.40360  0.54680  1.0000 0.1607323797
H   H8        1.0  0.03440  0.90360  0.95320  1.0000 0.1607323797
H   H9        1.0  0.28990  0.56420  0.39430  1.0000 0.1662989804
H   H10       1.0  0.71010  0.06420  0.10570  1.0000 0.1662989804
H   H11       1.0  0.71010  0.43580  0.60570  1.0000 0.1662989804
H   H12       1.0  0.28990  0.93580  0.89430  1.0000 0.1662989804
H   H13       1.0  0.40120  0.60160  0.48200  1.0000 0.1469868184
H   H14       1.0  0.59880  0.10160  0.01800  1.0000 0.1469868184
H   H15       1.0  0.59880  0.39840  0.51800  1.0000 0.1469868184
H   H16       1.0  0.40120  0.89840  0.98200  1.0000 0.1469868184
H   H17       1.0  0.45560  0.74300  0.39620  1.0000 0.1607323797
H   H18       1.0  0.54440  0.24300  0.10380  1.0000 0.1607323797
H   H19       1.0  0.54440  0.25700  0.60380  1.0000 0.1607323797
H   H20       1.0  0.45560  0.75700  0.89620  1.0000 0.1607323797
H   H21       1.0  0.55420  0.80450  0.43280  1.0000 0.1607323797
H   H22       1.0  0.44580  0.30450  0.06720  1.0000 0.1607323797
H   H23       1.0  0.44580  0.19550  0.56720  1.0000 0.1607323797
H   H24       1.0  0.55420  0.69550  0.93280  1.0000 0.1607323797
H   H25       1.0  0.45210  0.87790  0.55330  1.0000 0.1469868184
H   H26       1.0  0.54790  0.37790  0.94670  1.0000 0.1469868184
H   H27       1.0  0.54790  0.12210  0.44670  1.0000 0.1469868184
H   H28       1.0  0.45210  0.62210  0.05330  1.0000 0.1469868184
H   H29       1.0  0.51750  0.89320  0.49500  1.0000 0.1607323797
H   H30       1.0  0.48250  0.39320  0.00500  1.0000 0.1607323797
H   H31       1.0  0.48250  0.10680  0.50500  1.0000 0.1607323797
H   H32       1.0  0.51750  0.60680  0.99500  1.0000 0.1607323797
H   H33       1.0  0.08600  0.89660  0.48180  1.0000 0.1662989804
H   H34       1.0  0.91400  0.39660  0.01820  1.0000 0.1662989804
H   H35       1.0  0.91400  0.10340  0.51820  1.0000 0.1662989804
H   H36       1.0  0.08600  0.60340  0.98180  1.0000 0.1662989804
H   H37       1.0  0.93080  0.88620  0.40940  1.0000 0.1607323797
H   H38       1.0  0.06920  0.38620  0.09060  1.0000 0.1607323797
H   H39       1.0  0.06920  0.11380  0.59060  1.0000 0.1607323797
H   H40       1.0  0.93080  0.61380  0.90940  1.0000 0.1607323797
H   H41       1.0  0.94030  0.72220  0.50190  1.0000 0.1607323797
H   H42       1.0  0.05970  0.22220  0.99810  1.0000 0.1607323797
H   H43       1.0  0.05970  0.27780  0.49810  1.0000 0.1607323797
H   H44       1.0  0.94030  0.77780  0.00190  1.0000 0.1607323797
H   H45       1.0  0.86700  0.78830  0.50220  1.0000 0.1607323797
H   H46       1.0  0.13300  0.28830  0.99780  1.0000 0.1607323797
H   H47       1.0  0.13300  0.21170  0.49780  1.0000 0.1607323797
H   H48       1.0  0.86700  0.71170  0.00220  1.0000 0.1607323797
H   H49       1.0  0.60260  0.71590  0.62510  1.0000 0.3493741513
H   H50       1.0  0.39740  0.21590  0.87490  1.0000 0.3493741513
H   H51       1.0  0.39740  0.28410  0.37490  1.0000 0.3493741513
H   H52       1.0  0.60260  0.78410  0.12510  1.0000 0.3493741513
H   H53       1.0  0.71790  0.78030  0.26770  1.0000 0.3493741513
H   H54       1.0  0.28210  0.28030  0.23230  1.0000 0.3493741513
H   H55       1.0  0.28210  0.21970  0.73230  1.0000 0.3493741513
H   H56       1.0  0.71790  0.71970  0.76770  1.0000 0.3493741513
H   H57       1.0  0.66280  0.60090  0.25230  1.0000 0.3786375211
H   H58       1.0  0.33720  0.10090  0.24770  1.0000 0.3786375211
H   H59       1.0  0.33720  0.39910  0.74770  1.0000 0.3786375211
H   H60       1.0  0.66280  0.89910  0.75230  1.0000 0.3786375211
H   H61       1.0  0.58260  0.54770  0.24940  1.0000 0.4002135531
H   H62       1.0  0.41740  0.04770  0.25060  1.0000 0.4002135531
H   H63       1.0  0.41740  0.45230  0.75060  1.0000 0.4002135531
H   H64       1.0  0.58260  0.95230  0.74940  1.0000 0.4002135531
C   C1        1.0  0.00410  0.56320  0.33220  1.0000 0.6080131914
C   C2        1.0  0.99590  0.06320  0.16780  1.0000 0.6080131914
C   C3        1.0  0.99590  0.43680  0.66780  1.0000 0.6080131914
C   C4        1.0  0.00410  0.93680  0.83220  1.0000 0.6080131914
C   C5        1.0  0.35420  0.50970  0.50930  1.0000 0.6080131914
C   C6        1.0  0.64580  0.00970  0.99070  1.0000 0.6080131914
C   C7        1.0  0.64580  0.49030  0.49070  1.0000 0.6080131914
C   C8        1.0  0.35420  0.99030  0.00930  1.0000 0.6080131914
C   C9        1.0  0.60220  0.73360  0.53030  1.0000 0.6320851878
C   C10       1.0  0.39780  0.23360  0.96970  1.0000 0.6320851878
C   C11       1.0  0.39780  0.26640  0.46970  1.0000 0.6320851878
C   C12       1.0  0.60220  0.76640  0.03030  1.0000 0.6320851878
C   C13       1.0  0.32600  0.93110  0.43950  1.0000 0.6080131914
C   C14       1.0  0.67400  0.43110  0.06050  1.0000 0.6080131914
C   C15       1.0  0.67400  0.06890  0.56050  1.0000 0.6080131914
C   C16       1.0  0.32600  0.56890  0.93950  1.0000 0.6080131914
C   C17       1.0  0.96510  0.90710  0.53430  1.0000 0.6023094342
C   C18       1.0  0.03490  0.40710  0.96570  1.0000 0.6023094342
C   C19       1.0  0.03490  0.09290  0.46570  1.0000 0.6023094342
C   C20       1.0  0.96510  0.59290  0.03430  1.0000 0.6023094342
C   C21       1.0  0.79510  0.75230  0.37430  1.0000 0.6234909729
C   C22       1.0  0.20490  0.25230  0.12570  1.0000 0.6234909729
C   C23       1.0  0.20490  0.24770  0.62570  1.0000 0.6234909729
C   C24       1.0  0.79510  0.74770  0.87430  1.0000 0.6234909729
C   C25       1.0  0.08810  0.57250  0.43340  1.0000 -0.2428086749
C   C26       1.0  0.91190  0.07250  0.06660  1.0000 -0.2428086749
C   C27       1.0  0.91190  0.42750  0.56660  1.0000 -0.2428086749
C   C28       1.0  0.08810  0.92750  0.93340  1.0000 -0.2428086749
C   C29       1.0  0.32030  0.57370  0.45720  1.0000 -0.2428086749
C   C30       1.0  0.67970  0.07370  0.04280  1.0000 -0.2428086749
C   C31       1.0  0.67970  0.42630  0.54280  1.0000 -0.2428086749
C   C32       1.0  0.32030  0.92630  0.95720  1.0000 -0.2428086749
C   C33       1.0  0.50250  0.77360  0.44690  1.0000 -0.2770915939
C   C34       1.0  0.49750  0.27360  0.05310  1.0000 -0.2770915939
C   C35       1.0  0.49750  0.22640  0.55310  1.0000 -0.2770915939
C   C36       1.0  0.50250  0.72640  0.94690  1.0000 -0.2770915939
C   C37       1.0  0.43400  0.87920  0.49180  1.0000 -0.2559634796
C   C38       1.0  0.56600  0.37920  0.00820  1.0000 -0.2559634796
C   C39       1.0  0.56600  0.12080  0.50820  1.0000 -0.2559634796
C   C40       1.0  0.43400  0.62080  0.99180  1.0000 -0.2559634796
C   C41       1.0  0.00210  0.87640  0.47140  1.0000 -0.2559634796
C   C42       1.0  0.99790  0.37640  0.02860  1.0000 -0.2559634796
C   C43       1.0  0.99790  0.12360  0.52860  1.0000 -0.2559634796
C   C44       1.0  0.00210  0.62360  0.97140  1.0000 -0.2559634796
C   C45       1.0  0.90640  0.76500  0.47180  1.0000 -0.2698796405
C   C46       1.0  0.09360  0.26500  0.02820  1.0000 -0.2698796405
C   C47       1.0  0.09360  0.23500  0.52820  1.0000 -0.2698796405
C   C48       1.0  0.90640  0.73500  0.97180  1.0000 -0.2698796405
C   C49       1.0  0.21070  0.67790  0.46020  1.0000 0.479167758
C   C50       1.0  0.78930  0.17790  0.03980  1.0000 0.479167758
C   C51       1.0  0.78930  0.32210  0.53980  1.0000 0.479167758
C   C52       1.0  0.21070  0.82210  0.96020  1.0000 0.479167758
C   C53       1.0  0.30390  0.77630  0.46100  1.0000 0.4551778124
C   C54       1.0  0.69610  0.27630  0.03900  1.0000 0.4551778124
C   C55       1.0  0.69610  0.22370  0.53900  1.0000 0.4551778124
C   C56       1.0  0.30390  0.72370  0.96100  1.0000 0.4551778124
C   C57       1.0  0.11640  0.77340  0.47080  1.0000 0.4745497839
C   C58       1.0  0.88360  0.27340  0.02920  1.0000 0.4745497839
C   C59       1.0  0.88360  0.22660  0.52920  1.0000 0.4745497839
C   C60       1.0  0.11640  0.72660  0.97080  1.0000 0.4745497839
N   N1        1.0  0.31020  0.70910  0.45690  1.0000 -0.5237536146
N   N2        1.0  0.68980  0.20910  0.04310  1.0000 -0.5237536146
N   N3        1.0  0.68980  0.29090  0.54310  1.0000 -0.5237536146
N   N4        1.0  0.31020  0.79090  0.95690  1.0000 -0.5237536146
N   N5        1.0  0.21190  0.81150  0.47000  1.0000 -0.5065523102
N   N6        1.0  0.78810  0.31150  0.03000  1.0000 -0.5065523102
N   N7        1.0  0.78810  0.18850  0.53000  1.0000 -0.5065523102
N   N8        1.0  0.21190  0.68850  0.97000  1.0000 -0.5065523102
N   N9        1.0  0.10760  0.70660  0.46350  1.0000 -0.5280656233
N   N10       1.0  0.89240  0.20660  0.03650  1.0000 -0.5280656233
N   N11       1.0  0.89240  0.29340  0.53650  1.0000 -0.5280656233
N   N12       1.0  0.10760  0.79340  0.96350  1.0000 -0.5280656233
N   N13       1.0  0.21300  0.60930  0.46190  1.0000 -0.067015653
N   N14       1.0  0.78700  0.10930  0.03810  1.0000 -0.067015653
N   N15       1.0  0.78700  0.39070  0.53810  1.0000 -0.067015653
N   N16       1.0  0.21300  0.89070  0.96190  1.0000 -0.067015653
N   N17       1.0  0.40080  0.81150  0.45460  1.0000 -0.0291700936
N   N18       1.0  0.59920  0.31150  0.04540  1.0000 -0.0291700936
N   N19       1.0  0.59920  0.18850  0.54540  1.0000 -0.0291700936
N   N20       1.0  0.40080  0.68850  0.95460  1.0000 -0.0291700936
N   N21       1.0  0.02050  0.80380  0.48240  1.0000 -0.0291700936
N   N22       1.0  0.97950  0.30380  0.01760  1.0000 -0.0291700936
N   N23       1.0  0.97950  0.19620  0.51760  1.0000 -0.0291700936
N   N24       1.0  0.02050  0.69620  0.98240  1.0000 -0.0291700936
O   O1        1.0  0.75650  0.59640  0.11700  1.0000 -0.7200951292
O   O2        1.0  0.24350  0.09640  0.38300  1.0000 -0.7200951292
O   O3        1.0  0.24350  0.40360  0.88300  1.0000 -0.7200951292
O   O4        1.0  0.75650  0.90360  0.61700  1.0000 -0.7200951292
O   O5        1.0  0.00420  0.47123  0.17690  1.0000 -0.6684395685
O   O6        1.0  0.99580  0.97123  0.32310  1.0000 -0.6684395685
O   O7        1.0  0.99580  0.52877  0.82310  1.0000 -0.6684395685
O   O8        1.0  0.00420  0.02877  0.67690  1.0000 -0.6684395685
O   O9        1.0  0.47970  0.62435  0.34330  1.0000 -0.7107735589
O   O10       1.0  0.52030  0.12435  0.15670  1.0000 -0.7107735589
O   O11       1.0  0.52030  0.37565  0.65670  1.0000 -0.7107735589
O   O12       1.0  0.47970  0.87565  0.84330  1.0000 -0.7107735589
O   O13       1.0  0.83680  0.59880  0.47920  1.0000 -0.6908970787
O   O14       1.0  0.16320  0.09880  0.02080  1.0000 -0.6908970787
O   O15       1.0  0.16320  0.40120  0.52080  1.0000 -0.6908970787
O   O16       1.0  0.83680  0.90120  0.97920  1.0000 -0.6908970787
O   O17       1.0  0.90170  0.52415  0.29770  1.0000 -0.5598871796
O   O18       1.0  0.09830  0.02415  0.20230  1.0000 -0.5598871796
O   O19       1.0  0.09830  0.47585  0.70230  1.0000 -0.5598871796
O   O20       1.0  0.90170  0.97585  0.79770  1.0000 -0.5598871796
O   O21       1.0  0.03770  0.59300  0.28230  1.0000 -0.5495491439
O   O22       1.0  0.96230  0.09300  0.21770  1.0000 -0.5495491439
O   O23       1.0  0.96230  0.40700  0.71770  1.0000 -0.5495491439
O   O24       1.0  0.03770  0.90700  0.78230  1.0000 -0.5495491439
O   O25       1.0  0.35930  0.45555  0.47360  1.0000 -0.5717934086
O   O26       1.0  0.64070  0.95555  0.02640  1.0000 -0.5717934086
O   O27       1.0  0.64070  0.54445  0.52640  1.0000 -0.5717934086
O   O28       1.0  0.35930  0.04445  0.97360  1.0000 -0.5717934086
O   O29       1.0  0.37210  0.50920  0.58740  1.0000 -0.5717934086
O   O30       1.0  0.62790  0.00920  0.91260  1.0000 -0.5717934086
O   O31       1.0  0.62790  0.49080  0.41260  1.0000 -0.5717934086
O   O32       1.0  0.37210  0.99080  0.08740  1.0000 -0.5717934086
O   O33       1.0  0.66560  0.68658  0.51640  1.0000 -0.6294242754
O   O34       1.0  0.33440  0.18658  0.98360  1.0000 -0.6294242754
O   O35       1.0  0.33440  0.31342  0.48360  1.0000 -0.6294242754
O   O36       1.0  0.66560  0.81342  0.01640  1.0000 -0.6294242754
O   O37       1.0  0.62130  0.74810  0.60400  1.0000 -0.3457112513
O   O38       1.0  0.37870  0.24810  0.89600  1.0000 -0.3457112513
O   O39       1.0  0.37870  0.25190  0.39600  1.0000 -0.3457112513
O   O40       1.0  0.62130  0.75190  0.10400  1.0000 -0.3457112513
O   O41       1.0  0.30080  0.97210  0.48460  1.0000 -0.5598871796
O   O42       1.0  0.69920  0.47210  0.01540  1.0000 -0.5598871796
O   O43       1.0  0.69920  0.02790  0.51540  1.0000 -0.5598871796
O   O44       1.0  0.30080  0.52790  0.98460  1.0000 -0.5598871796
O   O45       1.0  0.26690  0.93766  0.35550  1.0000 -0.5423013284
O   O46       1.0  0.73310  0.43766  0.14450  1.0000 -0.5423013284
O   O47       1.0  0.73310  0.06234  0.64450  1.0000 -0.5423013284
O   O48       1.0  0.26690  0.56234  0.85550  1.0000 -0.5423013284
O   O49       1.0  0.87760  0.95290  0.50440  1.0000 -0.5495491439
O   O50       1.0  0.12240  0.45290  0.99560  1.0000 -0.5495491439
O   O51       1.0  0.12240  0.04710  0.49560  1.0000 -0.5495491439
O   O52       1.0  0.87760  0.54710  0.00440  1.0000 -0.5495491439
O   O53       1.0  0.01840  0.88880  0.61580  1.0000 -0.5495491439
O   O54       1.0  0.98160  0.38880  0.88420  1.0000 -0.5495491439
O   O55       1.0  0.98160  0.11120  0.38420  1.0000 -0.5495491439
O   O56       1.0  0.01840  0.61120  0.11580  1.0000 -0.5495491439
O   O57       1.0  0.79470  0.78180  0.31320  1.0000 -0.3457112513
O   O58       1.0  0.20530  0.28180  0.18680  1.0000 -0.3457112513
O   O59       1.0  0.20530  0.21820  0.68680  1.0000 -0.3457112513
O   O60       1.0  0.79470  0.71820  0.81320  1.0000 -0.3457112513
O   O61       1.0  0.70120  0.71030  0.36320  1.0000 -0.6813462689
O   O62       1.0  0.29880  0.21030  0.13680  1.0000 -0.6813462689
O   O63       1.0  0.29880  0.28970  0.63680  1.0000 -0.6813462689
O   O64       1.0  0.70120  0.78970  0.86320  1.0000 -0.6813462689
O   O65       1.0  0.65680  0.56880  0.28250  1.0000 -0.7107735589
O   O66       1.0  0.34320  0.06880  0.21750  1.0000 -0.7107735589
O   O67       1.0  0.34320  0.43120  0.71750  1.0000 -0.7107735589
O   O68       1.0  0.65680  0.93120  0.78250  1.0000 -0.7107735589
