# DDEC6 charges by PACMAN v1.1 (https://github.com/mtap-research/PACMAN-charge/)
data_2015[Cd][rtl]3[FSR]1
_chemical_formula_sum              "Cd4 H20 C36 O28"
_cell_length_a       10.241
_cell_length_b       13.769
_cell_length_c       16.6974
_cell_angle_alpha    90
_cell_angle_beta     127.059
_cell_angle_gamma    90

_symmetry_space_group_name_H-M    "P 1"
_symmetry_Int_Tables_number       1

loop_
  _symmetry_equiv_pos_as_xyz
  'x, y, z'

loop_
  _atom_site_type_symbol
  _atom_site_label
  _atom_site_symmetry_multiplicity
  _atom_site_fract_x
  _atom_site_fract_y
  _atom_site_fract_z
  _atom_site_occupancy
  _atom_site_charge
Cd  Cd1       1.0  0.08220  0.42412  0.93817  1.0000 1.0120373309
Cd  Cd2       1.0  0.91780  0.92412  0.56183  1.0000 1.0120373309
Cd  Cd3       1.0  0.91780  0.57588  0.06183  1.0000 1.0120373309
Cd  Cd4       1.0  0.08220  0.07588  0.43817  1.0000 1.0120373309
H   H1        1.0  0.91630  0.59560  0.85170  1.0000 0.3800509513
H   H2        1.0  0.08370  0.09560  0.64830  1.0000 0.3800509513
H   H3        1.0  0.08370  0.40440  0.14830  1.0000 0.3800509513
H   H4        1.0  0.91630  0.90440  0.35170  1.0000 0.3800509513
H   H5        1.0  0.85130  0.53130  0.77170  1.0000 0.3902573899
H   H6        1.0  0.14869  0.03130  0.72830  1.0000 0.3902573899
H   H7        1.0  0.14869  0.46870  0.22830  1.0000 0.3902573899
H   H8        1.0  0.85130  0.96870  0.27170  1.0000 0.3902573899
H   H9        1.0  0.43390  0.71940  0.27800  1.0000 0.1329927609
H   H10       1.0  0.56609  0.21940  0.22200  1.0000 0.1329927609
H   H11       1.0  0.56609  0.28060  0.72200  1.0000 0.1329927609
H   H12       1.0  0.43390  0.78060  0.77800  1.0000 0.1329927609
H   H13       1.0  0.44800  0.57520  0.07390  1.0000 0.1448119968
H   H14       1.0  0.55199  0.07520  0.42610  1.0000 0.1448119968
H   H15       1.0  0.55200  0.42480  0.92610  1.0000 0.1448119968
H   H16       1.0  0.44800  0.92480  0.57390  1.0000 0.1448119968
H   H17       1.0  0.83930  0.72710  0.29290  1.0000 0.1244096324
H   H18       1.0  0.16069  0.22710  0.20710  1.0000 0.1244096324
H   H19       1.0  0.16070  0.27290  0.70710  1.0000 0.1244096324
H   H20       1.0  0.83930  0.77290  0.79290  1.0000 0.1244096324
C   C1        1.0  0.65077  0.73074  0.30107  1.0000 -0.0195359884
C   C2        1.0  0.34923  0.23074  0.19893  1.0000 -0.0195359884
C   C3        1.0  0.34923  0.26926  0.69893  1.0000 -0.0195359884
C   C4        1.0  0.65078  0.76926  0.80107  1.0000 -0.0195359884
C   C5        1.0  0.41304  0.64335  0.16684  1.0000 -0.0118341785
C   C6        1.0  0.58696  0.14335  0.33316  1.0000 -0.0118341785
C   C7        1.0  0.58696  0.35665  0.83316  1.0000 -0.0118341785
C   C8        1.0  0.41304  0.85665  0.66684  1.0000 -0.0118341785
C   C9        1.0  0.65877  0.64542  0.17767  1.0000 -0.0008612897
C   C10       1.0  0.34123  0.14542  0.32233  1.0000 0.0008433819
C   C11       1.0  0.34122  0.35458  0.82233  1.0000 -0.0008612897
C   C12       1.0  0.65877  0.85458  0.67767  1.0000 -0.0008612897
C   C13       1.0  0.24022  0.61041  0.11862  1.0000 0.5777848602
C   C14       1.0  0.75977  0.11041  0.38138  1.0000 0.5777848602
C   C15       1.0  0.75977  0.38959  0.88138  1.0000 0.5777848602
C   C16       1.0  0.24022  0.88959  0.61862  1.0000 0.5777848602
C   C17       1.0  0.49024  0.70098  0.25294  1.0000 -0.0934593886
C   C18       1.0  0.50975  0.20098  0.24706  1.0000 -0.0934593886
C   C19       1.0  0.50975  0.29902  0.74706  1.0000 -0.0934593886
C   C20       1.0  0.49024  0.79902  0.75294  1.0000 -0.0934593886
C   C21       1.0  0.75472  0.61455  0.14062  1.0000 0.546919556
C   C22       1.0  0.24527  0.11455  0.35938  1.0000 0.546919556
C   C23       1.0  0.24527  0.38545  0.85938  1.0000 0.546919556
C   C24       1.0  0.75472  0.88545  0.64062  1.0000 0.546919556
C   C25       1.0  0.49840  0.61487  0.13030  1.0000 -0.0801453054
C   C26       1.0  0.50159  0.11487  0.36970  1.0000 -0.0801453054
C   C27       1.0  0.50160  0.38513  0.86970  1.0000 -0.0801453054
C   C28       1.0  0.49840  0.88513  0.63030  1.0000 -0.0801453054
C   C29       1.0  0.73335  0.70474  0.26225  1.0000 -0.100073092
C   C30       1.0  0.26665  0.20474  0.23775  1.0000 -0.100073092
C   C31       1.0  0.26664  0.29526  0.73775  1.0000 -0.100073092
C   C32       1.0  0.73335  0.79526  0.76225  1.0000 -0.100073092
C   C33       1.0  0.73355  0.79026  0.39575  1.0000 0.546919556
C   C34       1.0  0.26644  0.29026  0.10425  1.0000 0.546919556
C   C35       1.0  0.26644  0.20974  0.60425  1.0000 0.546919556
C   C36       1.0  0.73355  0.70974  0.89575  1.0000 0.546919556
O   O1        1.0  0.69998  0.54692  0.07729  1.0000 -0.4523555994
O   O2        1.0  0.30002  0.04692  0.42271  1.0000 -0.4562702834
O   O3        1.0  0.30002  0.45308  0.92271  1.0000 -0.4562702834
O   O4        1.0  0.69998  0.95308  0.57729  1.0000 -0.4562702834
O   O5        1.0  0.88728  0.65649  0.17426  1.0000 -0.4812054353
O   O6        1.0  0.11271  0.15649  0.32574  1.0000 -0.4853992224
O   O7        1.0  0.11272  0.34351  0.82574  1.0000 -0.4812054353
O   O8        1.0  0.88728  0.84351  0.67426  1.0000 -0.4812054353
O   O9        1.0  0.16584  0.64862  0.14838  1.0000 -0.4812054353
O   O10       1.0  0.83416  0.14862  0.35162  1.0000 -0.4812054353
O   O11       1.0  0.83416  0.35138  0.85162  1.0000 -0.4812054353
O   O12       1.0  0.16583  0.85138  0.64838  1.0000 -0.4812054353
O   O13       1.0  0.86447  0.83245  0.42682  1.0000 -0.5126694202
O   O14       1.0  0.13553  0.33245  0.07318  1.0000 -0.5126694202
O   O15       1.0  0.13552  0.16755  0.57318  1.0000 -0.5126694202
O   O16       1.0  0.86447  0.66755  0.92682  1.0000 -0.5126694202
O   O17       1.0  0.18080  0.54545  0.05327  1.0000 -0.5438744783
O   O18       1.0  0.81920  0.04545  0.44673  1.0000 -0.5455321431
O   O19       1.0  0.81920  0.45455  0.94673  1.0000 -0.5455321431
O   O20       1.0  0.18080  0.95455  0.55327  1.0000 -0.5455321431
O   O21       1.0  0.67138  0.79380  0.44090  1.0000 -0.432604438
O   O22       1.0  0.32861  0.29380  0.05910  1.0000 -0.432604438
O   O23       1.0  0.32861  0.20620  0.55910  1.0000 -0.432604438
O   O24       1.0  0.67139  0.70620  0.94090  1.0000 -0.432604438
O   O25       1.0  0.93955  0.55287  0.82507  1.0000 -0.6415584444
O   O26       1.0  0.06044  0.05287  0.67493  1.0000 -0.6415584444
O   O27       1.0  0.06044  0.44713  0.17493  1.0000 -0.6415584444
O   O28       1.0  0.93955  0.94713  0.32507  1.0000 -0.6415584444
