# DDEC6 charges by PACMAN v1.1 (https://github.com/mtap-research/PACMAN-charge/)
data_2015[Co][dia]3[FSR]3
_chemical_formula_sum              "Co4 H80 C72 N16 O16"
_cell_length_a       9.489
_cell_length_b       13.441
_cell_length_c       18.8475
_cell_angle_alpha    67.6622
_cell_angle_beta     77.8632
_cell_angle_gamma    72.865

_symmetry_space_group_name_H-M    "P 1"
_symmetry_Int_Tables_number       1

loop_
  _symmetry_equiv_pos_as_xyz
  'x, y, z'

loop_
  _atom_site_type_symbol
  _atom_site_label
  _atom_site_symmetry_multiplicity
  _atom_site_fract_x
  _atom_site_fract_y
  _atom_site_fract_z
  _atom_site_occupancy
  _atom_site_charge
Co  Co1       1.0  0.23010  0.82933  0.68265  1.0000 0.8281775965
Co  Co2       1.0  0.76990  0.17067  0.31735  1.0000 0.8281775965
Co  Co3       1.0  0.72450  0.69484  0.82856  1.0000 0.8010768844
Co  Co4       1.0  0.27550  0.30516  0.17144  1.0000 0.8010768844
H   H1        1.0  0.38510  0.67030  0.59610  1.0000 0.10981169
H   H2        1.0  0.61490  0.32970  0.40390  1.0000 0.10981169
H   H3        1.0  0.50890  0.66260  0.47910  1.0000 0.1308235539
H   H4        1.0  0.49110  0.33740  0.52090  1.0000 0.1308235539
H   H5        1.0  0.44940  0.99280  0.40360  1.0000 0.149439065
H   H6        1.0  0.55060  0.00720  0.59640  1.0000 0.149439065
H   H7        1.0  0.32880  0.99370  0.52350  1.0000 0.0998088043
H   H8        1.0  0.67120  0.00630  0.47650  1.0000 0.0998088043
H   H9        1.0  0.59940  0.90320  0.32210  1.0000 0.1214387203
H   H10       1.0  0.40060  0.09680  0.67790  1.0000 0.1214387203
H   H11       1.0  0.68920  0.77960  0.36370  1.0000 0.10981169
H   H12       1.0  0.31080  0.22040  0.63630  1.0000 0.10981169
H   H13       1.0  0.41120  0.93890  0.24640  1.0000 0.10981169
H   H14       1.0  0.58880  0.06110  0.75360  1.0000 0.10981169
H   H15       1.0  0.31570  0.88200  0.32460  1.0000 0.0998088043
H   H16       1.0  0.68430  0.11800  0.67540  1.0000 0.0998088043
H   H17       1.0  0.71940  0.72330  0.25860  1.0000 0.0998088043
H   H18       1.0  0.28060  0.27670  0.74140  1.0000 0.0998088043
H   H19       1.0  0.64410  0.84760  0.20870  1.0000 0.0998088043
H   H20       1.0  0.35590  0.15240  0.79130  1.0000 0.0998088043
H   H21       1.0  0.00180  0.97050  0.56280  1.0000 0.0998088043
H   H22       1.0  0.99820  0.02950  0.43720  1.0000 0.0998088043
H   H23       1.0  0.88110  0.15240  0.50850  1.0000 0.1308235539
H   H24       1.0  0.11890  0.84760  0.49150  1.0000 0.1308235539
H   H25       1.0  0.00710  0.22050  0.67090  1.0000 0.1308235539
H   H26       1.0  0.99290  0.77950  0.32910  1.0000 0.1308235539
H   H27       1.0  0.13760  0.04310  0.71550  1.0000 0.10981169
H   H28       1.0  0.86240  0.95690  0.28450  1.0000 0.10981169
H   H29       1.0  0.83410  0.34170  0.49230  1.0000 0.10981169
H   H30       1.0  0.16590  0.65830  0.50770  1.0000 0.10981169
H   H31       1.0  0.75480  0.34220  0.57610  1.0000 0.10981169
H   H32       1.0  0.24520  0.65780  0.42390  1.0000 0.10981169
H   H33       1.0  0.74870  0.53000  0.54540  1.0000 0.0998088043
H   H34       1.0  0.25130  0.47000  0.45460  1.0000 0.0998088043
H   H35       1.0  0.81910  0.53430  0.45950  1.0000 0.0998088043
H   H36       1.0  0.18090  0.46570  0.54050  1.0000 0.0998088043
H   H37       1.0  0.05740  0.40680  0.44100  1.0000 0.10981169
H   H38       1.0  0.94260  0.59320  0.55900  1.0000 0.10981169
H   H39       1.0  0.13850  0.32050  0.51470  1.0000 0.0998088043
H   H40       1.0  0.86150  0.67950  0.48530  1.0000 0.0998088043
H   H41       1.0  0.63220  0.86200  0.90920  1.0000 0.10981169
H   H42       1.0  0.36780  0.13800  0.09080  1.0000 0.10981169
H   H43       1.0  0.50720  0.88220  0.02580  1.0000 0.1308235539
H   H44       1.0  0.49280  0.11780  0.97420  1.0000 0.1308235539
H   H45       1.0  0.37900  0.60250  0.07340  1.0000 0.1395521192
H   H46       1.0  0.62100  0.39750  0.92660  1.0000 0.1395521192
H   H47       1.0  0.51180  0.58500  0.96130  1.0000 0.0998088043
H   H48       1.0  0.48820  0.41500  0.03870  1.0000 0.0998088043
H   H49       1.0  0.24380  0.79740  0.12730  1.0000 0.10981169
H   H50       1.0  0.75620  0.20260  0.87270  1.0000 0.10981169
H   H51       1.0  0.34000  0.67850  0.17380  1.0000 0.10981169
H   H52       1.0  0.66000  0.32150  0.82620  1.0000 0.10981169
H   H53       1.0  0.22430  0.88210  0.21940  1.0000 0.10981169
H   H54       1.0  0.77570  0.11790  0.78060  1.0000 0.10981169
H   H55       1.0  0.28870  0.75740  0.27250  1.0000 0.0900072
H   H56       1.0  0.71130  0.24260  0.72750  1.0000 0.0900072
H   H57       1.0  0.62870  0.72200  0.15170  1.0000 0.0998088043
H   H58       1.0  0.37130  0.27800  0.84830  1.0000 0.0998088043
H   H59       1.0  0.54050  0.65730  0.22990  1.0000 0.0998088043
H   H60       1.0  0.45950  0.34270  0.77010  1.0000 0.0998088043
H   H61       1.0  0.81930  0.53090  0.99320  1.0000 0.0998088043
H   H62       1.0  0.18070  0.46910  0.00680  1.0000 0.0998088043
H   H63       1.0  0.94510  0.35410  0.05030  1.0000 0.149439065
H   H64       1.0  0.05490  0.64590  0.94970  1.0000 0.149439065
H   H65       1.0  0.00100  0.30610  0.84630  1.0000 0.1308235539
H   H66       1.0  0.99900  0.69390  0.15370  1.0000 0.1308235539
H   H67       1.0  0.87310  0.48880  0.79480  1.0000 0.10981169
H   H68       1.0  0.12690  0.51120  0.20520  1.0000 0.10981169
H   H69       1.0  0.18410  0.19140  0.96130  1.0000 0.10981169
H   H70       1.0  0.81590  0.80860  0.03870  1.0000 0.10981169
H   H71       1.0  0.08390  0.17350  0.04270  1.0000 0.1214387203
H   H72       1.0  0.91610  0.82650  0.95730  1.0000 0.1214387203
H   H73       1.0  0.82170  0.14500  0.02610  1.0000 0.10981169
H   H74       1.0  0.17830  0.85500  0.97390  1.0000 0.10981169
H   H75       1.0  0.93300  0.04940  0.08370  1.0000 0.10981169
H   H76       1.0  0.06700  0.95060  0.91630  1.0000 0.10981169
H   H77       1.0  0.18130  0.97790  0.03420  1.0000 0.0998088043
H   H78       1.0  0.81870  0.02210  0.96580  1.0000 0.0998088043
H   H79       1.0  0.23390  0.02590  0.94380  1.0000 0.0998088043
H   H80       1.0  0.76610  0.97410  0.05620  1.0000 0.0998088043
C   C1        1.0  0.48080  0.82250  0.74310  1.0000 0.4524665056
C   C2        1.0  0.51920  0.17750  0.25690  1.0000 0.4524665056
C   C3        1.0  0.48230  0.70250  0.76160  1.0000 0.4621187476
C   C4        1.0  0.51770  0.29750  0.23840  1.0000 0.4621187476
C   C5        1.0  0.97850  0.73610  0.72380  1.0000 0.4621187476
C   C6        1.0  0.02150  0.26390  0.27620  1.0000 0.4621187476
C   C7        1.0  0.98190  0.77680  0.79080  1.0000 0.4524665056
C   C8        1.0  0.01810  0.22320  0.20920  1.0000 0.4524665056
C   C9        1.0  0.39860  0.73740  0.55640  1.0000 0.0699530998
C   C10       1.0  0.60140  0.26260  0.44360  1.0000 0.0699530998
C   C11       1.0  0.47360  0.73150  0.48750  1.0000 -0.2173743667
C   C12       1.0  0.52640  0.26850  0.51250  1.0000 -0.2173743667
C   C13       1.0  0.49720  0.82860  0.43000  1.0000 0.149439065
C   C14       1.0  0.50280  0.17140  0.57000  1.0000 0.149439065
C   C15       1.0  0.43930  0.92490  0.44330  1.0000 -0.2003658721
C   C16       1.0  0.56070  0.07510  0.55670  1.0000 -0.2003658721
C   C17       1.0  0.36510  0.92510  0.51470  1.0000 0.0699530998
C   C18       1.0  0.63490  0.07490  0.48530  1.0000 0.0699530998
C   C19       1.0  0.58870  0.82720  0.35360  1.0000 -0.1913181664
C   C20       1.0  0.41130  0.17280  0.64640  1.0000 -0.1913181664
C   C21       1.0  0.38620  0.86820  0.28060  1.0000 -0.1390077369
C   C22       1.0  0.61380  0.13180  0.71940  1.0000 -0.1318875747
C   C23       1.0  0.62410  0.77480  0.24190  1.0000 -0.1390077369
C   C24       1.0  0.37590  0.22520  0.75810  1.0000 -0.1390077369
C   C25       1.0  0.00790  0.02340  0.58340  1.0000 0.0594326379
C   C26       1.0  0.99210  0.97660  0.41660  1.0000 0.0594326379
C   C27       1.0  0.93400  0.13180  0.55150  1.0000 -0.2077282527
C   C28       1.0  0.06600  0.86820  0.44850  1.0000 -0.2077282527
C   C29       1.0  0.93500  0.21140  0.58030  1.0000 0.1395521192
C   C30       1.0  0.06500  0.78860  0.41970  1.0000 0.1395521192
C   C31       1.0  0.00930  0.17150  0.64510  1.0000 -0.2281774329
C   C32       1.0  0.99070  0.82850  0.35490  1.0000 -0.2281774329
C   C33       1.0  0.08440  0.06510  0.67250  1.0000 0.0831164634
C   C34       1.0  0.91560  0.93490  0.32750  1.0000 0.0831164634
C   C35       1.0  0.85220  0.32890  0.54530  1.0000 -0.2003658721
C   C36       1.0  0.14780  0.67110  0.45470  1.0000 -0.2003658721
C   C37       1.0  0.84310  0.52110  0.51140  1.0000 -0.1390077369
C   C38       1.0  0.15690  0.47890  0.48860  1.0000 -0.1390077369
C   C39       1.0  0.07590  0.39610  0.49350  1.0000 -0.1318875747
C   C40       1.0  0.92410  0.60390  0.50650  1.0000 -0.1318875747
C   C41       1.0  0.58270  0.80720  0.94430  1.0000 0.0900072
C   C42       1.0  0.41730  0.19280  0.05570  1.0000 0.0900072
C   C43       1.0  0.50700  0.82030  0.01310  1.0000 -0.2173743667
C   C44       1.0  0.49300  0.17970  0.98690  1.0000 -0.2173743667
C   C45       1.0  0.43240  0.74310  0.06210  1.0000 0.149439065
C   C46       1.0  0.56760  0.25690  0.93790  1.0000 0.149439065
C   C47       1.0  0.43300  0.65600  0.04120  1.0000 -0.1913181664
C   C48       1.0  0.56700  0.34400  0.95880  1.0000 -0.1913181664
C   C49       1.0  0.51110  0.64670  0.97460  1.0000 0.0594326379
C   C50       1.0  0.48890  0.35330  0.02540  1.0000 0.0594326379
C   C51       1.0  0.34610  0.75310  0.13670  1.0000 -0.1913181664
C   C52       1.0  0.65390  0.24690  0.86330  1.0000 -0.1913181664
C   C53       1.0  0.31630  0.82690  0.23750  1.0000 -0.1390077369
C   C54       1.0  0.68370  0.17310  0.76250  1.0000 -0.1390077369
C   C55       1.0  0.55780  0.73100  0.19680  1.0000 -0.1318875747
C   C56       1.0  0.44220  0.26900  0.80320  1.0000 -0.1318875747
C   C57       1.0  0.85730  0.48470  0.96250  1.0000 0.0468834685
C   C58       1.0  0.14270  0.51530  0.03750  1.0000 0.0468834685
C   C59       1.0  0.93110  0.37920  0.99730  1.0000 -0.2077282527
C   C60       1.0  0.06890  0.62080  0.00270  1.0000 -0.2077282527
C   C61       1.0  0.98610  0.30750  0.95560  1.0000 0.149439065
C   C62       1.0  0.01390  0.69250  0.04440  1.0000 0.149439065
C   C63       1.0  0.96440  0.35070  0.87810  1.0000 -0.2173743667
C   C64       1.0  0.03560  0.64930  0.12190  1.0000 -0.2173743667
C   C65       1.0  0.88790  0.46060  0.84780  1.0000 0.0831164634
C   C66       1.0  0.11210  0.53940  0.15220  1.0000 0.0831164634
C   C67       1.0  0.08140  0.19250  0.98670  1.0000 -0.1913181664
C   C68       1.0  0.91860  0.80750  0.01330  1.0000 -0.1913181664
C   C69       1.0  0.90390  0.07810  0.03080  1.0000 -0.1390077369
C   C70       1.0  0.09610  0.92190  0.96920  1.0000 -0.1390077369
C   C71       1.0  0.14810  0.00770  0.98210  1.0000 -0.1457006903
C   C72       1.0  0.85190  0.99230  0.01790  1.0000 -0.1457006903
N   N1        1.0  0.34220  0.83310  0.57190  1.0000 -0.2695566388
N   N2        1.0  0.65780  0.16690  0.42810  1.0000 -0.2695566388
N   N3        1.0  0.52150  0.78630  0.30930  1.0000 -0.0992233308
N   N4        1.0  0.47850  0.21370  0.69070  1.0000 -0.0992233308
N   N5        1.0  0.08830  0.98910  0.64270  1.0000 -0.2504799562
N   N6        1.0  0.91170  0.01090  0.35730  1.0000 -0.2504799562
N   N7        1.0  0.93460  0.40660  0.54250  1.0000 -0.094512661
N   N8        1.0  0.06540  0.59340  0.45750  1.0000 -0.0992233308
N   N9        1.0  0.58690  0.71930  0.92660  1.0000 -0.2504799562
N   N10       1.0  0.41310  0.28070  0.07340  1.0000 -0.2504799562
N   N11       1.0  0.41680  0.80620  0.17010  1.0000 -0.0992233308
N   N12       1.0  0.58320  0.19380  0.82990  1.0000 -0.0992233308
N   N13       1.0  0.83420  0.52850  0.88800  1.0000 -0.2695566388
N   N14       1.0  0.16580  0.47150  0.11200  1.0000 -0.2695566388
N   N15       1.0  0.02980  0.10790  0.97520  1.0000 -0.094512661
N   N16       1.0  0.97020  0.89210  0.02480  1.0000 -0.094512661
O   O1        1.0  0.37590  0.89600  0.70700  1.0000 -0.528955494
O   O2        1.0  0.62410  0.10400  0.29300  1.0000 -0.528955494
O   O3        1.0  0.38250  0.68180  0.73740  1.0000 -0.5103967364
O   O4        1.0  0.61750  0.31820  0.26260  1.0000 -0.5103967364
O   O5        1.0  0.58410  0.84190  0.76230  1.0000 -0.4880880462
O   O6        1.0  0.41590  0.15810  0.23770  1.0000 -0.4880880462
O   O7        1.0  0.58280  0.62860  0.79870  1.0000 -0.5150991427
O   O8        1.0  0.41720  0.37140  0.20130  1.0000 -0.5103967364
O   O9        1.0  0.08730  0.74430  0.67150  1.0000 -0.528955494
O   O10       1.0  0.91270  0.25570  0.32850  1.0000 -0.528955494
O   O11       1.0  0.09220  0.81310  0.78690  1.0000 -0.5103967364
O   O12       1.0  0.90780  0.18690  0.21310  1.0000 -0.5103967364
O   O13       1.0  0.87520  0.69460  0.72810  1.0000 -0.4955670582
O   O14       1.0  0.12480  0.30540  0.27190  1.0000 -0.4955670582
O   O15       1.0  0.87270  0.77140  0.84020  1.0000 -0.5103967364
O   O16       1.0  0.12730  0.22860  0.15980  1.0000 -0.5103967364
