# DDEC6 charges by PACMAN v1.1 (https://github.com/mtap-research/PACMAN-charge/)
data_2015[Co][nan]3[FSR]19
_chemical_formula_sum              "Co4 H32 C52 N4 O20"
_cell_length_a       11.3407
_cell_length_b       11.3847
_cell_length_c       13.1908
_cell_angle_alpha    88.868
_cell_angle_beta     110.661
_cell_angle_gamma    94.274

_symmetry_space_group_name_H-M    "P 1"
_symmetry_Int_Tables_number       1

loop_
  _symmetry_equiv_pos_as_xyz
  'x, y, z'

loop_
  _atom_site_type_symbol
  _atom_site_label
  _atom_site_symmetry_multiplicity
  _atom_site_fract_x
  _atom_site_fract_y
  _atom_site_fract_z
  _atom_site_occupancy
  _atom_site_charge
Co  Co1       1.0  0.99062  0.88342  0.74825  1.0000 1.0682801893
Co  Co2       1.0  0.00938  0.11658  0.25175  1.0000 1.0682801893
Co  Co3       1.0  0.00000  0.00000  0.50000  1.0000 1.0682801893
Co  Co4       1.0  0.00000  0.00000  0.00000  1.0000 1.0453686805
H   H1        1.0  0.28030  0.05310  0.70980  1.0000 0.1384829582
H   H2        1.0  0.71970  0.94690  0.29020  1.0000 0.1384829582
H   H3        1.0  0.41400  0.20840  0.81210  1.0000 0.1286062726
H   H4        1.0  0.58600  0.79160  0.18790  1.0000 0.1286062726
H   H5        1.0  0.33750  0.35580  0.88090  1.0000 0.1286062726
H   H6        1.0  0.66250  0.64420  0.11910  1.0000 0.1286062726
H   H7        1.0  0.12040  0.35150  0.85080  1.0000 0.1384829582
H   H8        1.0  0.87960  0.64850  0.14920  1.0000 0.1384829582
H   H9        1.0  0.90100  0.34200  0.64730  1.0000 0.1384829582
H   H10       1.0  0.09900  0.65800  0.35270  1.0000 0.1384829582
H   H11       1.0  0.68430  0.33760  0.62250  1.0000 0.1286062726
H   H12       1.0  0.31570  0.66240  0.37750  1.0000 0.1286062726
H   H13       1.0  0.59530  0.18210  0.69340  1.0000 0.1384829582
H   H14       1.0  0.40470  0.81790  0.30660  1.0000 0.1384829582
H   H15       1.0  0.72270  0.03720  0.79360  1.0000 0.1384829582
H   H16       1.0  0.27730  0.96280  0.20640  1.0000 0.1384829582
H   H17       1.0  0.14340  0.46280  0.17280  1.0000 0.1223446333
H   H18       1.0  0.85660  0.53720  0.82720  1.0000 0.1223446333
H   H19       1.0  0.88840  0.34400  0.88850  1.0000 0.1102204662
H   H20       1.0  0.11160  0.65600  0.11150  1.0000 0.1102204662
H   H21       1.0  0.59880  0.90510  0.89950  1.0000 0.1223446333
H   H22       1.0  0.40120  0.09490  0.10050  1.0000 0.1223446333
H   H23       1.0  0.61610  0.13280  0.13890  1.0000 0.1286062726
H   H24       1.0  0.38390  0.86720  0.86110  1.0000 0.1286062726
H   H25       1.0  0.14160  0.55800  0.67160  1.0000 0.1286062726
H   H26       1.0  0.85840  0.44200  0.32840  1.0000 0.1286062726
H   H27       1.0  0.13570  0.36590  0.60730  1.0000 0.1102204662
H   H28       1.0  0.86430  0.63410  0.39270  1.0000 0.1102204662
H   H29       1.0  0.59230  0.85750  0.62700  1.0000 0.1286062726
H   H30       1.0  0.40770  0.14250  0.37300  1.0000 0.1286062726
H   H31       1.0  0.61650  0.09790  0.40400  1.0000 0.1223446333
H   H32       1.0  0.38350  0.90210  0.59600  1.0000 0.1223446333
C   C1        1.0  0.24780  0.11350  0.73880  1.0000 -0.0106728984
C   C2        1.0  0.75220  0.88650  0.26120  1.0000 -0.0106728984
C   C3        1.0  0.32600  0.20630  0.79930  1.0000 -0.1416080578
C   C4        1.0  0.67400  0.79370  0.20070  1.0000 -0.1416080578
C   C5        1.0  0.28170  0.29330  0.84030  1.0000 -0.0721726029
C   C6        1.0  0.71830  0.70670  0.15970  1.0000 -0.0721726029
C   C7        1.0  0.15290  0.29050  0.82260  1.0000 -0.1704491733
C   C8        1.0  0.84710  0.70950  0.17740  1.0000 -0.1704491733
C   C9        1.0  0.07160  0.19820  0.76340  1.0000 0.1223446333
C   C10       1.0  0.92840  0.80180  0.23660  1.0000 0.1223446333
C   C11       1.0  0.93190  0.19350  0.73590  1.0000 0.1102204662
C   C12       1.0  0.06810  0.80650  0.26410  1.0000 0.1102204662
C   C13       1.0  0.86270  0.28030  0.67730  1.0000 -0.1704491733
C   C14       1.0  0.13730  0.71970  0.32270  1.0000 -0.1704491733
C   C15       1.0  0.73460  0.27720  0.66190  1.0000 -0.0569014161
C   C16       1.0  0.26540  0.72280  0.33810  1.0000 -0.0569014161
C   C17       1.0  0.68290  0.18660  0.70400  1.0000 -0.1416080578
C   C18       1.0  0.31710  0.81340  0.29600  1.0000 -0.1416080578
C   C19       1.0  0.75840  0.10010  0.76280  1.0000 0.0055504145
C   C20       1.0  0.24160  0.89990  0.23720  1.0000 0.0055504145
C   C21       1.0  0.03330  0.25880  0.07200  1.0000 0.5931677313
C   C22       1.0  0.96670  0.74120  0.92800  1.0000 0.5931677313
C   C23       1.0  0.01780  0.38450  0.03570  1.0000 -0.0106728984
C   C24       1.0  0.98220  0.61550  0.96430  1.0000 -0.0106728984
C   C25       1.0  0.08490  0.47740  0.10250  1.0000 -0.1135980694
C   C26       1.0  0.91510  0.52260  0.89750  1.0000 -0.1135980694
C   C27       1.0  0.93420  0.40770  0.93440  1.0000 -0.1197552642
C   C28       1.0  0.06580  0.59230  0.06560  1.0000 -0.1197552642
C   C29       1.0  0.77130  0.04220  0.05070  1.0000 0.5763726325
C   C30       1.0  0.22870  0.95780  0.94930  1.0000 0.5763726325
C   C31       1.0  0.63060  0.02300  0.02270  1.0000 -0.0221515654
C   C32       1.0  0.36940  0.97700  0.97730  1.0000 -0.0221515654
C   C33       1.0  0.55870  0.94380  0.94030  1.0000 -0.1275565608
C   C34       1.0  0.44130  0.05620  0.05970  1.0000 -0.1275565608
C   C35       1.0  0.56900  0.07900  0.08250  1.0000 -0.1275565608
C   C36       1.0  0.43100  0.92100  0.91750  1.0000 -0.1275565608
C   C37       1.0  0.01390  0.74060  0.57190  1.0000 0.5986348481
C   C38       1.0  0.98610  0.25940  0.42810  1.0000 0.5986348481
C   C39       1.0  0.00650  0.61460  0.53610  1.0000 -0.0106728984
C   C40       1.0  0.99350  0.38540  0.46390  1.0000 -0.0106728984
C   C41       1.0  0.08470  0.53500  0.60150  1.0000 -0.1197552642
C   C42       1.0  0.91530  0.46500  0.39850  1.0000 -0.1197552642
C   C43       1.0  0.07970  0.42020  0.56390  1.0000 -0.1197552642
C   C44       1.0  0.92030  0.57980  0.43610  1.0000 -0.1197552642
C   C45       1.0  0.75880  0.94940  0.54590  1.0000 0.5931677313
C   C46       1.0  0.24120  0.05060  0.45410  1.0000 0.5931677313
C   C47       1.0  0.62310  0.97270  0.51970  1.0000 -0.0346968642
C   C48       1.0  0.37690  0.02730  0.48030  1.0000 -0.0353022202
C   C49       1.0  0.55490  0.91560  0.57540  1.0000 -0.1197552642
C   C50       1.0  0.44510  0.08440  0.42460  1.0000 -0.1197552642
C   C51       1.0  0.56930  0.05830  0.44300  1.0000 -0.1197552642
C   C52       1.0  0.43070  0.94170  0.55700  1.0000 -0.1197552642
N   N1        1.0  0.12310  0.11310  0.72300  1.0000 0.2925778122
N   N2        1.0  0.87690  0.88690  0.27700  1.0000 0.2925778122
N   N3        1.0  0.87840  0.10490  0.77580  1.0000 0.2721835913
N   N4        1.0  0.12160  0.89510  0.22420  1.0000 0.2721835913
O   O1        1.0  0.04550  0.02320  0.66700  1.0000 -0.5298075883
O   O2        1.0  0.95450  0.97680  0.33300  1.0000 -0.5298075883
O   O3        1.0  0.94850  0.02000  0.83220  1.0000 -0.5298075883
O   O4        1.0  0.05150  0.98000  0.16780  1.0000 -0.5298075883
O   O5        1.0  0.99870  0.18220  0.99890  1.0000 -0.5489523717
O   O6        1.0  0.00130  0.81780  0.00110  1.0000 -0.5489523717
O   O7        1.0  0.08460  0.24070  0.17230  1.0000 -0.5489523717
O   O8        1.0  0.91540  0.75930  0.82770  1.0000 -0.5489523717
O   O9        1.0  0.81650  0.99300  0.99040  1.0000 -0.5583663492
O   O10       1.0  0.18350  0.00700  0.00960  1.0000 -0.5583663492
O   O11       1.0  0.82860  0.10660  0.13160  1.0000 -0.5583663492
O   O12       1.0  0.17140  0.89340  0.86840  1.0000 -0.5583663492
O   O13       1.0  0.05100  0.75870  0.67450  1.0000 -0.5583663492
O   O14       1.0  0.94900  0.24130  0.32550  1.0000 -0.5583663492
O   O15       1.0  0.98490  0.81690  0.50050  1.0000 -0.5489523717
O   O16       1.0  0.01510  0.18310  0.49950  1.0000 -0.5489523717
O   O17       1.0  0.81410  0.99670  0.48490  1.0000 -0.5785206466
O   O18       1.0  0.18590  0.00330  0.51510  1.0000 -0.5785206466
O   O19       1.0  0.81210  0.88900  0.62950  1.0000 -0.5709139614
O   O20       1.0  0.18790  0.11100  0.37050  1.0000 -0.5709139614
