# DDEC6 charges by PACMAN v1.1 (https://github.com/mtap-research/PACMAN-charge/)
data_2015[Fe][nan]3[FSR]1
_chemical_formula_sum              "Fe8 P8 H8 C12 O56"
_cell_length_a       9.2137
_cell_length_b       15.2014
_cell_length_c       13.5737
_cell_angle_alpha    90
_cell_angle_beta     119.729
_cell_angle_gamma    90

_symmetry_space_group_name_H-M    "P 1"
_symmetry_Int_Tables_number       1

loop_
  _symmetry_equiv_pos_as_xyz
  'x, y, z'

loop_
  _atom_site_type_symbol
  _atom_site_label
  _atom_site_symmetry_multiplicity
  _atom_site_fract_x
  _atom_site_fract_y
  _atom_site_fract_z
  _atom_site_occupancy
  _atom_site_charge
Fe  Fe1       1.0  0.97024  0.11255  0.33548  1.0000 1.243480294
Fe  Fe2       1.0  0.02976  0.61255  0.16452  1.0000 1.2464470556
Fe  Fe3       1.0  0.02976  0.88745  0.66452  1.0000 1.243480294
Fe  Fe4       1.0  0.97024  0.38745  0.83548  1.0000 1.243480294
Fe  Fe5       1.0  0.75425  0.93807  0.00205  1.0000 1.4298614552
Fe  Fe6       1.0  0.24575  0.43807  0.49795  1.0000 1.4298614552
Fe  Fe7       1.0  0.24575  0.06193  0.99795  1.0000 1.4298614552
Fe  Fe8       1.0  0.75425  0.56193  0.50205  1.0000 1.4298614552
P   P1        1.0  0.00370  0.10730  0.10920  1.0000 1.5691552003
P   P2        1.0  0.99630  0.60730  0.39080  1.0000 1.5691552003
P   P3        1.0  0.99630  0.89270  0.89080  1.0000 1.5691552003
P   P4        1.0  0.00370  0.39270  0.60920  1.0000 1.5691552003
P   P5        1.0  0.63210  0.00300  0.18330  1.0000 1.5691552003
P   P6        1.0  0.36790  0.50300  0.31670  1.0000 1.5691552003
P   P7        1.0  0.36790  0.99700  0.81670  1.0000 1.5691552003
P   P8        1.0  0.63210  0.49700  0.68330  1.0000 1.5691552003
H   H1        1.0  0.02770  0.23750  0.10800  1.0000 0.4182613036
H   H2        1.0  0.97230  0.73750  0.39200  1.0000 0.4182613036
H   H3        1.0  0.97230  0.76250  0.89200  1.0000 0.4182613036
H   H4        1.0  0.02770  0.26250  0.60800  1.0000 0.4182613036
H   H5        1.0  0.61110  0.90300  0.27050  1.0000 0.4270682773
H   H6        1.0  0.38890  0.40300  0.22950  1.0000 0.4270682773
H   H7        1.0  0.38890  0.09700  0.72950  1.0000 0.4270682773
H   H8        1.0  0.61110  0.59700  0.77050  1.0000 0.4270682773
C   C1        1.0  0.04650  0.96760  0.48170  1.0000 0.4717589135
C   C2        1.0  0.95350  0.46760  0.01830  1.0000 0.4717589135
C   C3        1.0  0.95350  0.03240  0.51830  1.0000 0.4717589135
C   C4        1.0  0.04650  0.53240  0.98170  1.0000 0.4717589135
C   C5        1.0  0.19380  0.25200  0.45520  1.0000 0.4717589135
C   C6        1.0  0.80620  0.75200  0.04480  1.0000 0.4717589135
C   C7        1.0  0.80620  0.74800  0.54480  1.0000 0.4717589135
C   C8        1.0  0.19380  0.24800  0.95520  1.0000 0.4717589135
C   C9        1.0  0.02670  0.29570  0.36890  1.0000 0.4717589135
C   C10       1.0  0.97330  0.79570  0.13110  1.0000 0.4717589135
C   C11       1.0  0.97330  0.70430  0.63110  1.0000 0.4717589135
C   C12       1.0  0.02670  0.20430  0.86890  1.0000 0.4717589135
O   O1        1.0  0.74480  0.08290  0.22530  1.0000 -0.6922526071
O   O2        1.0  0.25520  0.58290  0.27470  1.0000 -0.6922526071
O   O3        1.0  0.25520  0.91710  0.77470  1.0000 -0.6922526071
O   O4        1.0  0.74480  0.41710  0.72530  1.0000 -0.6922526071
O   O5        1.0  0.06000  0.10050  0.23570  1.0000 -0.7081870347
O   O6        1.0  0.94000  0.60050  0.26430  1.0000 -0.7081870347
O   O7        1.0  0.94000  0.89950  0.76430  1.0000 -0.7081870347
O   O8        1.0  0.06000  0.39950  0.73570  1.0000 -0.7081870347
O   O9        1.0  0.90950  0.24320  0.30940  1.0000 -0.4287624964
O   O10       1.0  0.09050  0.74320  0.19060  1.0000 -0.4287624964
O   O11       1.0  0.09050  0.75680  0.69060  1.0000 -0.4287624964
O   O12       1.0  0.90950  0.25680  0.80940  1.0000 -0.4287624964
O   O13       1.0  0.06970  0.99260  0.40220  1.0000 -0.4096598039
O   O14       1.0  0.93030  0.49260  0.09780  1.0000 -0.4096598039
O   O15       1.0  0.93030  0.00740  0.59780  1.0000 -0.4096598039
O   O16       1.0  0.06970  0.50740  0.90220  1.0000 -0.4096598039
O   O17       1.0  0.19470  0.16930  0.45640  1.0000 -0.4565064072
O   O18       1.0  0.80530  0.66930  0.04360  1.0000 -0.4565064072
O   O19       1.0  0.80530  0.83070  0.54360  1.0000 -0.4565064072
O   O20       1.0  0.19470  0.33070  0.95640  1.0000 -0.4565064072
O   O21       1.0  0.90940  0.10460  0.46530  1.0000 -0.4565064072
O   O22       1.0  0.09060  0.60460  0.03470  1.0000 -0.4565064072
O   O23       1.0  0.09060  0.89540  0.53470  1.0000 -0.4565064072
O   O24       1.0  0.90940  0.39540  0.96530  1.0000 -0.4565064072
O   O25       1.0  0.85190  0.05210  0.03660  1.0000 -0.7081870347
O   O26       1.0  0.14810  0.55210  0.46340  1.0000 -0.7081870347
O   O27       1.0  0.14810  0.94790  0.96340  1.0000 -0.7081870347
O   O28       1.0  0.85190  0.44790  0.53660  1.0000 -0.7081870347
O   O29       1.0  0.45130  0.03180  0.13300  1.0000 -0.7081870347
O   O30       1.0  0.54870  0.53180  0.36700  1.0000 -0.7081870347
O   O31       1.0  0.54870  0.96820  0.86700  1.0000 -0.7081870347
O   O32       1.0  0.45130  0.46820  0.63300  1.0000 -0.7081870347
O   O33       1.0  0.65970  0.94680  0.10190  1.0000 -0.7666986893
O   O34       1.0  0.34030  0.44680  0.39810  1.0000 -0.7666986893
O   O35       1.0  0.34030  0.05320  0.89810  1.0000 -0.7666986893
O   O36       1.0  0.65970  0.55320  0.60190  1.0000 -0.7666986893
O   O37       1.0  0.15440  0.08490  0.10040  1.0000 -0.7284874032
O   O38       1.0  0.84560  0.58490  0.39960  1.0000 -0.7284874032
O   O39       1.0  0.84560  0.91510  0.89960  1.0000 -0.7284874032
O   O40       1.0  0.15440  0.41510  0.60040  1.0000 -0.7284874032
O   O41       1.0  0.31020  0.30310  0.51660  1.0000 -0.4536217758
O   O42       1.0  0.68980  0.80310  0.98340  1.0000 -0.4536217758
O   O43       1.0  0.68980  0.69690  0.48340  1.0000 -0.4536217758
O   O44       1.0  0.31020  0.19690  0.01660  1.0000 -0.4536217758
O   O45       1.0  0.02340  0.37860  0.36630  1.0000 -0.4565064072
O   O46       1.0  0.97660  0.87860  0.13370  1.0000 -0.4565064072
O   O47       1.0  0.97660  0.62140  0.63370  1.0000 -0.4565064072
O   O48       1.0  0.02340  0.12140  0.86630  1.0000 -0.4565064072
O   O49       1.0  0.95090  0.20410  0.06810  1.0000 -0.5503978611
O   O50       1.0  0.04910  0.70410  0.43190  1.0000 -0.5503978611
O   O51       1.0  0.04910  0.79590  0.93190  1.0000 -0.5503978611
O   O52       1.0  0.95090  0.29590  0.56810  1.0000 -0.5449632118
O   O53       1.0  0.67300  0.94600  0.29000  1.0000 -0.5503978611
O   O54       1.0  0.32700  0.44600  0.21000  1.0000 -0.5503978611
O   O55       1.0  0.32700  0.05400  0.71000  1.0000 -0.5503978611
O   O56       1.0  0.67300  0.55400  0.79000  1.0000 -0.5503978611
