# DDEC6 charges by PACMAN v1.1 (https://github.com/mtap-research/PACMAN-charge/)
data_2015[Zn][nan]3[FSR]34
_chemical_formula_sum              "Zn6 H72 C106 N8 O38"
_cell_length_a       15.169
_cell_length_b       15.453
_cell_length_c       16.4504
_cell_angle_alpha    112.531
_cell_angle_beta     80.559
_cell_angle_gamma    118.018

_symmetry_space_group_name_H-M    "P 1"
_symmetry_Int_Tables_number       1

loop_
  _symmetry_equiv_pos_as_xyz
  'x, y, z'

loop_
  _atom_site_type_symbol
  _atom_site_label
  _atom_site_symmetry_multiplicity
  _atom_site_fract_x
  _atom_site_fract_y
  _atom_site_fract_z
  _atom_site_occupancy
  _atom_site_charge
Zn  Zn1       1.0  0.98974  0.49186  0.66448  1.0000 0.8487284842
Zn  Zn2       1.0  0.01026  0.50814  0.33552  1.0000 0.8487284842
Zn  Zn3       1.0  0.42293  0.13374  0.71017  1.0000 0.8217725816
Zn  Zn4       1.0  0.57707  0.86626  0.28983  1.0000 0.8217725816
Zn  Zn5       1.0  0.18728  0.86433  0.91624  1.0000 0.9463096323
Zn  Zn6       1.0  0.81272  0.13567  0.08376  1.0000 0.9463096323
H   H1        1.0  0.54020  0.64350  0.32290  1.0000 0.1401765819
H   H2        1.0  0.45980  0.35650  0.67710  1.0000 0.1401765819
H   H3        1.0  0.38610  0.59820  0.38810  1.0000 0.1208201715
H   H4        1.0  0.61390  0.40180  0.61190  1.0000 0.1208201715
H   H5        1.0  0.50560  0.62380  0.60210  1.0000 0.1208201715
H   H6        1.0  0.49440  0.37620  0.39790  1.0000 0.1208201715
H   H7        1.0  0.65960  0.65920  0.53400  1.0000 0.1208201715
H   H8        1.0  0.34040  0.34080  0.46600  1.0000 0.1208201715
H   H9        1.0  0.08630  0.43570  0.49360  1.0000 0.09885274
H   H10       1.0  0.91370  0.56430  0.50640  1.0000 0.09885274
H   H11       1.0  0.24380  0.47590  0.42880  1.0000 0.1286423964
H   H12       1.0  0.75620  0.52410  0.57120  1.0000 0.1286423964
H   H13       1.0  0.36790  0.65280  0.67360  1.0000 0.1401765819
H   H14       1.0  0.63210  0.34720  0.32640  1.0000 0.1401765819
H   H15       1.0  0.21120  0.61140  0.72980  1.0000 0.1286423964
H   H16       1.0  0.78880  0.38860  0.27020  1.0000 0.1286423964
H   H17       1.0  0.76540  0.84890  0.51620  1.0000 0.1208201715
H   H18       1.0  0.23460  0.15110  0.48380  1.0000 0.1208201715
H   H19       1.0  0.91230  0.94550  0.60110  1.0000 0.1116460326
H   H20       1.0  0.08770  0.05450  0.39890  1.0000 0.1116460326
H   H21       1.0  0.03190  0.76540  0.42390  1.0000 0.1286423964
H   H22       1.0  0.96810  0.23460  0.57610  1.0000 0.1286423964
H   H23       1.0  0.87880  0.65780  0.35050  1.0000 0.1286423964
H   H24       1.0  0.12120  0.34220  0.64950  1.0000 0.1286423964
H   H25       1.0  0.19650  0.06810  0.76530  1.0000 0.1286423964
H   H26       1.0  0.80350  0.93190  0.23470  1.0000 0.1286423964
H   H27       1.0  0.04330  0.97160  0.69420  1.0000 0.1286423964
H   H28       1.0  0.95670  0.02840  0.30580  1.0000 0.1286423964
H   H29       1.0  0.17780  0.92150  0.46040  1.0000 0.1401765819
H   H30       1.0  0.82220  0.07850  0.53960  1.0000 0.1401765819
H   H31       1.0  0.33040  0.02120  0.53370  1.0000 0.1208201715
H   H32       1.0  0.66960  0.97880  0.46630  1.0000 0.1208201715
H   H33       1.0  0.82520  0.75230  0.25640  1.0000 0.1208201715
H   H34       1.0  0.17480  0.24770  0.74360  1.0000 0.1208201715
H   H35       1.0  0.83320  0.66320  0.10560  1.0000 0.1208201715
H   H36       1.0  0.16680  0.33680  0.89440  1.0000 0.1208201715
H   H37       1.0  0.61040  0.39820  0.12700  1.0000 0.1208201715
H   H38       1.0  0.38960  0.60180  0.87300  1.0000 0.1208201715
H   H39       1.0  0.60270  0.48370  0.27950  1.0000 0.1208201715
H   H40       1.0  0.39730  0.51630  0.72050  1.0000 0.1208201715
H   H41       1.0  0.63930  0.23570  0.84340  1.0000 0.1116460326
H   H42       1.0  0.36070  0.76430  0.15660  1.0000 0.1116460326
H   H43       1.0  0.64480  0.31770  0.99680  1.0000 0.1401765819
H   H44       1.0  0.35520  0.68230  0.00320  1.0000 0.1401765819
H   H45       1.0  0.80880  0.59800  0.96900  1.0000 0.1401765819
H   H46       1.0  0.19120  0.40200  0.03100  1.0000 0.1401765819
H   H47       1.0  0.80080  0.50850  0.81520  1.0000 0.1286423964
H   H48       1.0  0.19920  0.49150  0.18480  1.0000 0.1286423964
H   H49       1.0  0.85140  0.28440  0.41470  1.0000 0.1208201715
H   H50       1.0  0.14860  0.71560  0.58530  1.0000 0.1208201715
H   H51       1.0  0.51450  0.06770  0.43580  1.0000 0.1286423964
H   H52       1.0  0.48550  0.93230  0.56420  1.0000 0.1286423964
H   H53       1.0  0.91420  0.33010  0.90130  1.0000 0.1208201715
H   H54       1.0  0.08580  0.66990  0.09870  1.0000 0.1208201715
H   H55       1.0  0.53710  0.46420  0.85130  1.0000 0.1116460326
H   H56       1.0  0.46290  0.53580  0.14870  1.0000 0.1116460326
H   H57       1.0  0.71180  0.33600  0.76260  1.0000 0.3057046893
H   H58       1.0  0.28820  0.66400  0.23740  1.0000 0.3057046893
H   H59       1.0  0.50660  0.91180  0.19060  1.0000 0.3710585895
H   H60       1.0  0.49340  0.08820  0.80940  1.0000 0.3710585895
H   H61       1.0  0.97180  0.66110  0.72340  1.0000 0.43639811
H   H62       1.0  0.02820  0.33890  0.27660  1.0000 0.43639811
H   H63       1.0  0.90840  0.58940  0.63590  1.0000 0.3857194844
H   H64       1.0  0.09160  0.41060  0.36410  1.0000 0.3857194844
H   H65       1.0  0.14100  0.01350  0.98400  1.0000 0.4195751411
H   H66       1.0  0.85900  0.98650  0.01600  1.0000 0.4195751411
H   H67       1.0  0.04300  0.90940  0.94840  1.0000 0.4044837716
H   H68       1.0  0.95700  0.09060  0.05160  1.0000 0.4044837716
H   H69       1.0  0.27280  0.93900  0.06000  1.0000 0.4195751411
H   H70       1.0  0.72720  0.06100  0.94000  1.0000 0.4195751411
H   H71       1.0  0.35260  0.97480  0.99110  1.0000 0.4195751411
H   H72       1.0  0.64740  0.02520  0.00890  1.0000 0.4195751411
C   C1        1.0  0.61760  0.65610  0.42080  1.0000 0.1976928773
C   C2        1.0  0.38240  0.34390  0.57920  1.0000 0.1976928773
C   C3        1.0  0.53350  0.63790  0.37810  1.0000 -0.1719778714
C   C4        1.0  0.46650  0.36210  0.62190  1.0000 -0.1719778714
C   C5        1.0  0.44060  0.61160  0.41810  1.0000 -0.100930196
C   C6        1.0  0.55940  0.38840  0.58190  1.0000 -0.100930196
C   C7        1.0  0.42670  0.60450  0.50230  1.0000 0.0438414353
C   C8        1.0  0.57330  0.39550  0.49770  1.0000 0.0438414353
C   C9        1.0  0.51190  0.62550  0.54540  1.0000 -0.1178660703
C   C10       1.0  0.48810  0.37450  0.45460  1.0000 -0.1178660703
C   C11       1.0  0.60580  0.64880  0.50510  1.0000 -0.1976075408
C   C12       1.0  0.39420  0.35120  0.49490  1.0000 -0.1976075408
C   C13       1.0  0.14330  0.48150  0.52910  1.0000 0.0740212413
C   C14       1.0  0.85670  0.51850  0.47090  1.0000 0.0740212413
C   C15       1.0  0.23870  0.50560  0.48930  1.0000 -0.2268244711
C   C16       1.0  0.76130  0.49440  0.51070  1.0000 -0.2268244711
C   C17       1.0  0.32730  0.57690  0.54440  1.0000 0.1286423964
C   C18       1.0  0.67270  0.42310  0.45560  1.0000 0.1286423964
C   C19       1.0  0.31280  0.61160  0.63530  1.0000 -0.1806495699
C   C20       1.0  0.68720  0.38840  0.36470  1.0000 -0.1806495699
C   C21       1.0  0.21770  0.58550  0.66910  1.0000 0.09885274
C   C22       1.0  0.78230  0.41450  0.33090  1.0000 0.09885274
C   C23       1.0  0.80580  0.74450  0.42680  1.0000 0.1821272882
C   C24       1.0  0.19420  0.25550  0.57320  1.0000 0.1821272882
C   C25       1.0  0.81740  0.83020  0.49900  1.0000 -0.188580626
C   C26       1.0  0.18260  0.16980  0.50100  1.0000 -0.188580626
C   C27       1.0  0.90820  0.89130  0.54860  1.0000 -0.1356580046
C   C28       1.0  0.09180  0.10870  0.45140  1.0000 -0.1356580046
C   C29       1.0  0.99340  0.87200  0.51980  1.0000 0.0475824202
C   C30       1.0  0.00660  0.12800  0.48020  1.0000 0.0475824202
C   C31       1.0  0.97890  0.78210  0.44410  1.0000 -0.1096760181
C   C32       1.0  0.02110  0.21790  0.55590  1.0000 -0.1096760181
C   C33       1.0  0.88700  0.71780  0.39880  1.0000 -0.1625867771
C   C34       1.0  0.11300  0.28220  0.60120  1.0000 -0.1625867771
C   C35       1.0  0.19300  0.03970  0.70420  1.0000 0.0761596176
C   C36       1.0  0.80700  0.96030  0.29580  1.0000 0.0761596176
C   C37       1.0  0.10080  0.98090  0.66110  1.0000 -0.188580626
C   C38       1.0  0.89920  0.01910  0.33890  1.0000 -0.188580626
C   C39       1.0  0.09150  0.93520  0.56960  1.0000 0.1208201715
C   C40       1.0  0.90850  0.06480  0.43040  1.0000 0.1208201715
C   C41       1.0  0.18050  0.95100  0.52150  1.0000 -0.188580626
C   C42       1.0  0.81950  0.04900  0.47850  1.0000 -0.188580626
C   C43       1.0  0.27240  0.01130  0.56620  1.0000 0.09885274
C   C44       1.0  0.72760  0.98870  0.43380  1.0000 0.09885274
C   C45       1.0  0.71390  0.62320  0.28350  1.0000 0.1821272882
C   C46       1.0  0.28610  0.37680  0.71650  1.0000 0.1821272882
C   C47       1.0  0.78350  0.68110  0.23110  1.0000 -0.1625867771
C   C48       1.0  0.21650  0.31890  0.76890  1.0000 -0.1625867771
C   C49       1.0  0.78680  0.62660  0.13950  1.0000 -0.100930196
C   C50       1.0  0.21320  0.37340  0.86050  1.0000 -0.100930196
C   C51       1.0  0.72410  0.52100  0.09830  1.0000 0.0575818407
C   C52       1.0  0.27590  0.47900  0.90170  1.0000 0.0575818407
C   C53       1.0  0.65440  0.46860  0.15250  1.0000 -0.0787028683
C   C54       1.0  0.34560  0.53140  0.84750  1.0000 -0.0787028683
C   C55       1.0  0.64930  0.52020  0.24560  1.0000 -0.188580626
C   C56       1.0  0.35070  0.47980  0.75440  1.0000 -0.188580626
C   C57       1.0  0.67230  0.30830  0.86880  1.0000 0.0888863268
C   C58       1.0  0.32770  0.69170  0.13120  1.0000 0.0888863268
C   C59       1.0  0.67600  0.35830  0.96150  1.0000 -0.188580626
C   C60       1.0  0.32400  0.64170  0.03850  1.0000 -0.188580626
C   C61       1.0  0.72520  0.46650  0.00060  1.0000 0.1401765819
C   C62       1.0  0.27480  0.53350  0.99940  1.0000 0.1401765819
C   C63       1.0  0.77380  0.52540  0.94550  1.0000 -0.1806495699
C   C64       1.0  0.22620  0.47460  0.05450  1.0000 -0.1806495699
C   C65       1.0  0.76820  0.47100  0.85260  1.0000 0.0888863268
C   C66       1.0  0.23180  0.52900  0.14740  1.0000 0.0888863268
C   C67       1.0  0.74260  0.24840  0.50200  1.0000 -0.052752686
C   C68       1.0  0.25740  0.75160  0.49800  1.0000 -0.052752686
C   C69       1.0  0.78400  0.24180  0.41900  1.0000 -0.1096760181
C   C70       1.0  0.21600  0.75820  0.58100  1.0000 -0.1096760181
C   C71       1.0  0.72560  0.17180  0.34116  1.0000 -0.0599433652
C   C72       1.0  0.27440  0.82820  0.65884  1.0000 -0.0599433652
C   C73       1.0  0.62120  0.10960  0.34850  1.0000 -0.0599433652
C   C74       1.0  0.37880  0.89040  0.65150  1.0000 -0.0599433652
C   C75       1.0  0.58130  0.11240  0.43170  1.0000 -0.1625867771
C   C76       1.0  0.41870  0.88760  0.56830  1.0000 -0.1625867771
C   C77       1.0  0.63990  0.18170  0.51110  1.0000 -0.0243485731
C   C78       1.0  0.36010  0.81830  0.48890  1.0000 -0.0243485731
C   C79       1.0  0.80870  0.33680  0.57990  1.0000 0.5693379584
C   C80       1.0  0.19130  0.66320  0.42010  1.0000 0.5693379584
C   C81       1.0  0.77590  0.17180  0.25530  1.0000 0.5693379584
C   C82       1.0  0.22410  0.82820  0.74470  1.0000 0.5693379584
C   C83       1.0  0.59370  0.16970  0.59620  1.0000 0.5693379584
C   C84       1.0  0.40630  0.83030  0.40380  1.0000 0.5693379584
C   C85       1.0  0.94790  0.39790  0.94070  1.0000 -0.1486475704
C   C86       1.0  0.05210  0.60210  0.05930  1.0000 -0.1486475704
C   C87       1.0  0.99970  0.48120  0.90870  1.0000 -0.0444334795
C   C88       1.0  0.00030  0.51880  0.09130  1.0000 -0.0444334795
C   C89       1.0  0.05360  0.58360  0.96570  1.0000 -0.0303356269
C   C90       1.0  0.94640  0.41640  0.03430  1.0000 -0.0303356269
C   C91       1.0  0.99120  0.45520  0.81170  1.0000 0.5515955153
C   C92       1.0  0.00880  0.54480  0.18830  1.0000 0.5515955153
C   C93       1.0  0.11970  0.67370  0.93680  1.0000 0.5693379584
C   C94       1.0  0.88030  0.32630  0.06320  1.0000 0.5693379584
C   C95       1.0  0.41710  0.28860  0.86940  1.0000 0.5771265092
C   C96       1.0  0.58290  0.71140  0.13060  1.0000 0.5771265092
C   C97       1.0  0.45660  0.39570  0.94100  1.0000 -0.052752686
C   C98       1.0  0.54340  0.60430  0.05900  1.0000 -0.052752686
C   C99       1.0  0.52190  0.47870  0.91070  1.0000 -0.100930196
C   C100      1.0  0.47810  0.52130  0.08930  1.0000 -0.1096760181
C   C101      1.0  0.56470  0.58490  0.97090  1.0000 -0.0303356269
C   C102      1.0  0.43530  0.41510  0.02910  1.0000 -0.0303356269
C   C103      1.0  0.61950  0.66540  0.92820  1.0000 0.5693379584
C   C104      1.0  0.38050  0.33460  0.07180  1.0000 0.5693379584
C   C105      1.0  0.55550  0.03590  0.26720  1.0000 0.5879620376
C   C106      1.0  0.44450  0.96410  0.73280  1.0000 0.5879620376
N   N1        1.0  0.71250  0.67810  0.37639  1.0000 -0.1806495699
N   N2        1.0  0.28750  0.32190  0.62361  1.0000 -0.1806495699
N   N3        1.0  0.13290  0.52340  0.61763  1.0000 -0.2719666299
N   N4        1.0  0.86710  0.47660  0.38237  1.0000 -0.2719666299
N   N5        1.0  0.28070  0.05630  0.65594  1.0000 -0.2887664971
N   N6        1.0  0.71930  0.94370  0.34406  1.0000 -0.2887664971
N   N7        1.0  0.71640  0.36640  0.81885  1.0000 -0.100930196
N   N8        1.0  0.28360  0.63360  0.18115  1.0000 -0.100930196
O   O1        1.0  0.90149  0.36601  0.56882  1.0000 -0.5597161389
O   O2        1.0  0.09851  0.63399  0.43118  1.0000 -0.5597161389
O   O3        1.0  0.77387  0.38173  0.64764  1.0000 -0.5701172438
O   O4        1.0  0.22613  0.61827  0.35236  1.0000 -0.5701172438
O   O5        1.0  0.86927  0.21654  0.24914  1.0000 -0.5597161389
O   O6        1.0  0.13073  0.78346  0.75086  1.0000 -0.5597161389
O   O7        1.0  0.71952  0.11874  0.18702  1.0000 -0.5597161389
O   O8        1.0  0.28048  0.88126  0.81298  1.0000 -0.5597161389
O   O9        1.0  0.54485  0.94473  0.23578  1.0000 -0.4241285262
O   O10       1.0  0.45515  0.05527  0.76422  1.0000 -0.4241285262
O   O11       1.0  0.50405  0.06574  0.24205  1.0000 -0.5152117548
O   O12       1.0  0.49595  0.93426  0.75795  1.0000 -0.5152117548
O   O13       1.0  0.50319  0.15338  0.60194  1.0000 -0.5597161389
O   O14       1.0  0.49681  0.84662  0.39806  1.0000 -0.5597161389
O   O15       1.0  0.64353  0.17696  0.65346  1.0000 -0.5597161389
O   O16       1.0  0.35647  0.82304  0.34654  1.0000 -0.5597161389
O   O17       1.0  0.00020  0.52965  0.79179  1.0000 -0.5302493361
O   O18       1.0  0.99980  0.47035  0.20821  1.0000 -0.5302493361
O   O19       1.0  0.97366  0.36799  0.75619  1.0000 -0.5302493361
O   O20       1.0  0.02634  0.63201  0.24381  1.0000 -0.5302493361
O   O21       1.0  0.19733  0.67813  0.89454  1.0000 -0.5597161389
O   O22       1.0  0.80267  0.32187  0.10546  1.0000 -0.5597161389
O   O23       1.0  0.09574  0.74718  0.95842  1.0000 -0.5836462316
O   O24       1.0  0.90426  0.25282  0.04158  1.0000 -0.5836462316
O   O25       1.0  0.46531  0.27796  0.79844  1.0000 -0.5701172438
O   O26       1.0  0.53469  0.72204  0.20156  1.0000 -0.5701172438
O   O27       1.0  0.34070  0.21231  0.88358  1.0000 -0.542771214
O   O28       1.0  0.65930  0.78769  0.11642  1.0000 -0.542771214
O   O29       1.0  0.57917  0.65436  0.86105  1.0000 -0.5971274314
O   O30       1.0  0.42083  0.34564  0.13895  1.0000 -0.5971274314
O   O31       1.0  0.69740  0.74335  0.96538  1.0000 -0.542771214
O   O32       1.0  0.30260  0.25665  0.03462  1.0000 -0.542771214
O   O33       1.0  0.97117  0.61557  0.66391  1.0000 -0.7012511727
O   O34       1.0  0.02883  0.38443  0.33609  1.0000 -0.7012511727
O   O35       1.0  0.11125  0.94882  0.93553  1.0000 -0.7012511727
O   O36       1.0  0.88875  0.05118  0.06447  1.0000 -0.7012511727
O   O37       1.0  0.28720  0.96539  0.01275  1.0000 -0.7012511727
O   O38       1.0  0.71280  0.03461  0.98725  1.0000 -0.7012511727
