# DDEC6 charges by PACMAN v1.1 (https://github.com/mtap-research/PACMAN-charge/)
data_2015[Co][nan]3[FSR]17
_chemical_formula_sum              "Co3 H16 C30 N8 O8"
_cell_length_a       9.2529
_cell_length_b       10.6355
_cell_length_c       11.0493
_cell_angle_alpha    116.378
_cell_angle_beta     86.489
_cell_angle_gamma    105.093

_symmetry_space_group_name_H-M    "P 1"
_symmetry_Int_Tables_number       1

loop_
  _symmetry_equiv_pos_as_xyz
  'x, y, z'

loop_
  _atom_site_type_symbol
  _atom_site_label
  _atom_site_symmetry_multiplicity
  _atom_site_fract_x
  _atom_site_fract_y
  _atom_site_fract_z
  _atom_site_occupancy
  _atom_site_charge
Co  Co1       1.0  0.50000  0.50000  0.50000  1.0000 0.9439705096
Co  Co2       1.0  0.77804  0.27529  0.51834  1.0000 0.7857534371
Co  Co3       1.0  0.22196  0.72471  0.48166  1.0000 0.7857534371
H   H1        1.0  0.40600  0.20240  0.09920  1.0000 0.1198375269
H   H2        1.0  0.59400  0.79760  0.90080  1.0000 0.1198375269
H   H3        1.0  0.33760  0.03690  0.87480  1.0000 0.1198375269
H   H4        1.0  0.66240  0.96310  0.12520  1.0000 0.1198375269
H   H5        1.0  0.37300  0.53180  0.84510  1.0000 0.1198375269
H   H6        1.0  0.62700  0.46820  0.15490  1.0000 0.1198375269
H   H7        1.0  0.30980  0.61590  0.06970  1.0000 0.1198375269
H   H8        1.0  0.69020  0.38410  0.93030  1.0000 0.1198375269
H   H9        1.0  0.11480  0.21340  0.68380  1.0000 0.1422376714
H   H10       1.0  0.88520  0.78660  0.31620  1.0000 0.1422376714
H   H11       1.0  0.14850  0.00180  0.67270  1.0000 0.1086933918
H   H12       1.0  0.85150  0.99820  0.32730  1.0000 0.1086933918
H   H13       1.0  0.30000  0.89840  0.31340  1.0000 0.1086933918
H   H14       1.0  0.70000  0.10160  0.68660  1.0000 0.1086933918
H   H15       1.0  0.27550  0.10930  0.31690  1.0000 0.1422376714
H   H16       1.0  0.72450  0.89070  0.68310  1.0000 0.1422376714
C   C1        1.0  0.58340  0.20560  0.28200  1.0000 0.5742575012
C   C2        1.0  0.41660  0.79440  0.71800  1.0000 0.5742575012
C   C3        1.0  0.53920  0.09850  0.13520  1.0000 -0.0209553589
C   C4        1.0  0.46080  0.90150  0.86480  1.0000 -0.0209553589
C   C5        1.0  0.44350  0.12090  0.05960  1.0000 -0.1085140819
C   C6        1.0  0.55650  0.87910  0.94040  1.0000 -0.1085140819
C   C7        1.0  0.40310  0.02210  0.92470  1.0000 -0.1085140819
C   C8        1.0  0.59690  0.97790  0.07530  1.0000 -0.1085140819
C   C9        1.0  0.57880  0.39740  0.72010  1.0000 0.5772430382
C   C10       1.0  0.42120  0.60260  0.27990  1.0000 0.5772430382
C   C11       1.0  0.53710  0.44920  0.86570  1.0000 -0.0209553589
C   C12       1.0  0.46290  0.55080  0.13430  1.0000 -0.0209553589
C   C13       1.0  0.42410  0.51870  0.90670  1.0000 -0.1085140819
C   C14       1.0  0.57590  0.48130  0.09330  1.0000 -0.1085140819
C   C15       1.0  0.38660  0.56940  0.04170  1.0000 -0.1085140819
C   C16       1.0  0.61340  0.43060  0.95830  1.0000 -0.1085140819
C   C17       1.0  0.05460  0.46320  0.49820  1.0000 0.2273675433
C   C18       1.0  0.94540  0.53680  0.50180  1.0000 0.2273675433
C   C19       1.0  0.16080  0.31240  0.49760  1.0000 0.2864349268
C   C20       1.0  0.83920  0.68760  0.50240  1.0000 0.2864349268
C   C21       1.0  0.18970  0.18280  0.49830  1.0000 0.086792194
C   C22       1.0  0.81030  0.81720  0.50170  1.0000 0.086792194
C   C23       1.0  0.15240  0.15040  0.60750  1.0000 -0.1819615283
C   C24       1.0  0.84760  0.84960  0.39250  1.0000 -0.1819615283
C   C25       1.0  0.17250  0.02300  0.59960  1.0000 0.0803582172
C   C26       1.0  0.82750  0.97700  0.40040  1.0000 0.0803582172
C   C27       1.0  0.26230  0.96260  0.38880  1.0000 0.0803582172
C   C28       1.0  0.73770  0.03740  0.61120  1.0000 0.0803582172
C   C29       1.0  0.24700  0.08880  0.38970  1.0000 -0.1697020151
C   C30       1.0  0.75300  0.91120  0.61030  1.0000 -0.1697020151
N   N1        1.0  0.02210  0.33850  0.50950  1.0000 -0.4309898235
N   N2        1.0  0.97790  0.66150  0.49050  1.0000 -0.4309898235
N   N3        1.0  0.19450  0.51250  0.47870  1.0000 -0.2274575451
N   N4        1.0  0.80550  0.48750  0.52130  1.0000 -0.2274575451
N   N5        1.0  0.26560  0.41410  0.47870  1.0000 -0.2397313112
N   N6        1.0  0.73440  0.58590  0.52130  1.0000 -0.2397313112
N   N7        1.0  0.22510  0.92860  0.49160  1.0000 -0.2397313112
N   N8        1.0  0.77490  0.07140  0.50840  1.0000 -0.2397313112
O   O1        1.0  0.52660  0.30900  0.33230  1.0000 -0.5472952841
O   O2        1.0  0.47340  0.69100  0.66770  1.0000 -0.5472952841
O   O3        1.0  0.67580  0.17650  0.33920  1.0000 -0.5472952841
O   O4        1.0  0.32420  0.82350  0.66080  1.0000 -0.5472952841
O   O5        1.0  0.50960  0.41710  0.64080  1.0000 -0.5472952841
O   O6        1.0  0.49040  0.58290  0.35920  1.0000 -0.5472952841
O   O7        1.0  0.68370  0.33390  0.69110  1.0000 -0.544336132
O   O8        1.0  0.31630  0.66610  0.30890  1.0000 -0.544336132
