# DDEC6 charges by PACMAN v1.1 (https://github.com/mtap-research/PACMAN-charge/)
data_2015[Cu][nan]3[FSR]8
_chemical_formula_sum              "Cu16 H64 C56 N48"
_cell_length_a       14.4034
_cell_length_b       14.4034
_cell_length_c       15.879
_cell_angle_alpha    65.4718
_cell_angle_beta     114.528
_cell_angle_gamma    112.065

_symmetry_space_group_name_H-M    "P 1"
_symmetry_Int_Tables_number       1

loop_
  _symmetry_equiv_pos_as_xyz
  'x, y, z'

loop_
  _atom_site_type_symbol
  _atom_site_label
  _atom_site_symmetry_multiplicity
  _atom_site_fract_x
  _atom_site_fract_y
  _atom_site_fract_z
  _atom_site_occupancy
  _atom_site_charge
Cu  Cu1       1.0  0.26930  0.26930  0.25000  1.0000 0.2761720314
Cu  Cu2       1.0  0.73070  0.73070  0.75000  1.0000 0.2761720314
Cu  Cu3       1.0  0.61490  0.09002  0.55236  1.0000 0.2682852591
Cu  Cu4       1.0  0.09002  0.61490  0.94764  1.0000 0.2682852591
Cu  Cu5       1.0  0.38510  0.90998  0.44764  1.0000 0.2682852591
Cu  Cu6       1.0  0.90998  0.38510  0.05236  1.0000 0.2682852591
Cu  Cu7       1.0  0.44804  0.08434  0.67519  1.0000 0.2401461795
Cu  Cu8       1.0  0.08434  0.44804  0.82481  1.0000 0.2401461795
Cu  Cu9       1.0  0.55196  0.91566  0.32481  1.0000 0.2401461795
Cu  Cu10      1.0  0.91566  0.55196  0.17519  1.0000 0.2401461795
Cu  Cu11      1.0  0.02285  0.16661  0.48963  1.0000 0.2514402836
Cu  Cu12      1.0  0.16661  0.02285  0.01037  1.0000 0.2514402836
Cu  Cu13      1.0  0.97715  0.83339  0.51037  1.0000 0.2514402836
Cu  Cu14      1.0  0.83339  0.97715  0.98963  1.0000 0.2514402836
Cu  Cu15      1.0  0.06092  0.06092  0.75000  1.0000 0.2682852591
Cu  Cu16      1.0  0.93908  0.93908  0.25000  1.0000 0.2682852591
H   H1        1.0  0.54420  0.16480  0.33130  1.0000 0.1598728658
H   H2        1.0  0.16480  0.54420  0.16870  1.0000 0.1598728658
H   H3        1.0  0.45580  0.83520  0.66870  1.0000 0.1598728658
H   H4        1.0  0.83520  0.45580  0.83130  1.0000 0.1598728658
H   H5        1.0  0.43110  0.17270  0.25250  1.0000 0.1598728658
H   H6        1.0  0.17270  0.43110  0.24750  1.0000 0.1598728658
H   H7        1.0  0.56890  0.82730  0.74750  1.0000 0.1598728658
H   H8        1.0  0.82730  0.56890  0.75250  1.0000 0.1598728658
H   H9        1.0  0.51250  0.27510  0.28050  1.0000 0.1679485019
H   H10       1.0  0.27510  0.51250  0.21950  1.0000 0.1679485019
H   H11       1.0  0.48750  0.72490  0.71950  1.0000 0.1679485019
H   H12       1.0  0.72490  0.48750  0.78050  1.0000 0.1679485019
H   H13       1.0  0.23690  0.23750  0.43910  1.0000 0.1598728658
H   H14       1.0  0.23750  0.23690  0.06090  1.0000 0.1598728658
H   H15       1.0  0.76310  0.76250  0.56090  1.0000 0.1598728658
H   H16       1.0  0.76250  0.76310  0.93910  1.0000 0.1598728658
H   H17       1.0  0.18370  0.11990  0.43480  1.0000 0.1514849782
H   H18       1.0  0.11990  0.18370  0.06520  1.0000 0.1514849782
H   H19       1.0  0.81630  0.88010  0.56520  1.0000 0.1514849782
H   H20       1.0  0.88010  0.81630  0.93480  1.0000 0.1514849782
H   H21       1.0  0.25770  0.00890  0.86310  1.0000 0.1514849782
H   H22       1.0  0.00890  0.25770  0.63690  1.0000 0.1514849782
H   H23       1.0  0.74230  0.99110  0.13690  1.0000 0.1514849782
H   H24       1.0  0.99110  0.74230  0.36310  1.0000 0.1514849782
H   H25       1.0  0.33260  0.96520  0.84490  1.0000 0.1598728658
H   H26       1.0  0.96520  0.33260  0.65510  1.0000 0.1598728658
H   H27       1.0  0.66740  0.03480  0.15510  1.0000 0.1598728658
H   H28       1.0  0.03480  0.66740  0.34490  1.0000 0.1598728658
H   H29       1.0  0.37120  0.08100  0.85460  1.0000 0.1598728658
H   H30       1.0  0.08100  0.37120  0.64540  1.0000 0.1598728658
H   H31       1.0  0.62880  0.91900  0.14540  1.0000 0.1598728658
H   H32       1.0  0.91900  0.62880  0.35460  1.0000 0.1598728658
H   H33       1.0  0.80400  0.16220  0.36440  1.0000 0.1598728658
H   H34       1.0  0.16220  0.80400  0.13560  1.0000 0.1598728658
H   H35       1.0  0.19600  0.83780  0.63560  1.0000 0.1598728658
H   H36       1.0  0.83780  0.19600  0.86440  1.0000 0.1598728658
H   H37       1.0  0.69260  0.08740  0.37670  1.0000 0.1514849782
H   H38       1.0  0.08740  0.69260  0.12330  1.0000 0.1514849782
H   H39       1.0  0.30740  0.91260  0.62330  1.0000 0.1514849782
H   H40       1.0  0.91260  0.30740  0.87670  1.0000 0.1514849782
H   H41       1.0  0.72620  0.20600  0.37830  1.0000 0.1679485019
H   H42       1.0  0.20600  0.72620  0.12170  1.0000 0.1679485019
H   H43       1.0  0.27380  0.79400  0.62170  1.0000 0.1679485019
H   H44       1.0  0.79400  0.27380  0.87830  1.0000 0.1679485019
H   H45       1.0  0.88110  0.03110  0.80040  1.0000 0.1598728658
H   H46       1.0  0.03110  0.88110  0.69960  1.0000 0.1598728658
H   H47       1.0  0.11890  0.96890  0.19960  1.0000 0.1598728658
H   H48       1.0  0.96890  0.11890  0.30040  1.0000 0.1598728658
H   H49       1.0  0.80320  0.92760  0.77370  1.0000 0.1435542039
H   H50       1.0  0.92760  0.80320  0.72630  1.0000 0.1435542039
H   H51       1.0  0.19680  0.07240  0.22630  1.0000 0.1435542039
H   H52       1.0  0.07240  0.19680  0.27370  1.0000 0.1435542039
H   H53       1.0  0.53390  0.04770  0.88850  1.0000 0.1514849782
H   H54       1.0  0.04770  0.53390  0.61150  1.0000 0.1514849782
H   H55       1.0  0.46610  0.95230  0.11150  1.0000 0.1514849782
H   H56       1.0  0.95230  0.46610  0.38850  1.0000 0.1514849782
H   H57       1.0  0.59680  0.96060  0.96630  1.0000 0.1598728658
H   H58       1.0  0.96060  0.59680  0.53370  1.0000 0.1598728658
H   H59       1.0  0.40320  0.03940  0.03370  1.0000 0.1598728658
H   H60       1.0  0.03940  0.40320  0.46630  1.0000 0.1598728658
H   H61       1.0  0.65440  0.08300  0.94970  1.0000 0.1598728658
H   H62       1.0  0.08300  0.65440  0.55030  1.0000 0.1598728658
H   H63       1.0  0.34560  0.91700  0.05030  1.0000 0.1598728658
H   H64       1.0  0.91700  0.34560  0.44970  1.0000 0.1598728658
C   C1        1.0  0.48630  0.19870  0.30540  1.0000 -0.5059430704
C   C2        1.0  0.19870  0.48630  0.19460  1.0000 -0.5059430704
C   C3        1.0  0.51370  0.80130  0.69460  1.0000 -0.5059430704
C   C4        1.0  0.80130  0.51370  0.80540  1.0000 -0.5059430704
C   C5        1.0  0.44180  0.17360  0.38490  1.0000 0.3873465553
C   C6        1.0  0.17360  0.44180  0.11510  1.0000 0.3873465553
C   C7        1.0  0.55820  0.82640  0.61510  1.0000 0.3873465553
C   C8        1.0  0.82640  0.55820  0.88490  1.0000 0.3873465553
C   C9        1.0  0.34000  0.16200  0.45820  1.0000 0.3579916253
C   C10       1.0  0.16200  0.34000  0.04180  1.0000 0.3579916253
C   C11       1.0  0.66000  0.83800  0.54180  1.0000 0.3579916253
C   C12       1.0  0.83800  0.66000  0.95820  1.0000 0.3579916253
C   C13       1.0  0.24510  0.16430  0.47100  1.0000 -0.3909520015
C   C14       1.0  0.16430  0.24510  0.02900  1.0000 -0.3909520015
C   C15       1.0  0.75490  0.83570  0.52900  1.0000 -0.3909520015
C   C16       1.0  0.83570  0.75490  0.97100  1.0000 -0.3909520015
C   C17       1.0  0.23860  0.12980  0.57170  1.0000 0.3579916253
C   C18       1.0  0.12980  0.23860  0.92830  1.0000 0.3579916253
C   C19       1.0  0.76140  0.87020  0.42830  1.0000 0.3579916253
C   C20       1.0  0.87020  0.76140  0.07170  1.0000 0.3579916253
C   C21       1.0  0.26300  0.07160  0.72320  1.0000 0.4064966261
C   C22       1.0  0.07160  0.26300  0.77680  1.0000 0.4064966261
C   C23       1.0  0.73700  0.92840  0.27680  1.0000 0.4064966261
C   C24       1.0  0.92840  0.73700  0.22320  1.0000 0.4064966261
C   C25       1.0  0.31030  0.02790  0.83070  1.0000 -0.5305556164
C   C26       1.0  0.02790  0.31030  0.66930  1.0000 -0.5305556164
C   C27       1.0  0.68970  0.97210  0.16930  1.0000 -0.5305556164
C   C28       1.0  0.97210  0.68970  0.33070  1.0000 -0.5305556164
C   C29       1.0  0.75180  0.14400  0.39670  1.0000 -0.5305556164
C   C30       1.0  0.14400  0.75180  0.10330  1.0000 -0.5305556164
C   C31       1.0  0.24820  0.85600  0.60330  1.0000 -0.5305556164
C   C32       1.0  0.85600  0.24820  0.89670  1.0000 -0.5305556164
C   C33       1.0  0.80050  0.10850  0.50320  1.0000 0.3814020052
C   C34       1.0  0.10850  0.80050  0.99680  1.0000 0.3814020052
C   C35       1.0  0.19950  0.89150  0.49680  1.0000 0.3814020052
C   C36       1.0  0.89150  0.19950  0.00320  1.0000 0.3814020052
C   C37       1.0  0.82660  0.05140  0.65550  1.0000 0.3480920389
C   C38       1.0  0.05140  0.82660  0.84450  1.0000 0.3480920389
C   C39       1.0  0.17340  0.94860  0.34450  1.0000 0.3480920389
C   C40       1.0  0.94860  0.17340  0.15550  1.0000 0.3480920389
C   C41       1.0  0.81370  0.00470  0.75470  1.0000 -0.4089236265
C   C42       1.0  0.00470  0.81370  0.74530  1.0000 -0.4089236265
C   C43       1.0  0.18630  0.99530  0.24530  1.0000 -0.4089236265
C   C44       1.0  0.99530  0.18630  0.25470  1.0000 -0.4089236265
C   C45       1.0  0.72800  0.02340  0.77010  1.0000 0.3480920389
C   C46       1.0  0.02340  0.72800  0.72990  1.0000 0.3480920389
C   C47       1.0  0.27200  0.97660  0.22990  1.0000 0.3480920389
C   C48       1.0  0.97660  0.27200  0.27010  1.0000 0.3480920389
C   C49       1.0  0.63660  0.03120  0.84130  1.0000 0.3814020052
C   C50       1.0  0.03120  0.63660  0.65870  1.0000 0.3814020052
C   C51       1.0  0.36340  0.96880  0.15870  1.0000 0.3814020052
C   C52       1.0  0.96880  0.36340  0.34130  1.0000 0.3814020052
C   C53       1.0  0.60260  0.03060  0.91800  1.0000 -0.5170768902
C   C54       1.0  0.03060  0.60260  0.58200  1.0000 -0.5170768902
C   C55       1.0  0.39740  0.96940  0.08200  1.0000 -0.5170768902
C   C56       1.0  0.96940  0.39740  0.41800  1.0000 -0.5170768902
N   N1        1.0  0.35010  0.19630  0.36760  1.0000 -0.4357761547
N   N2        1.0  0.19630  0.35010  0.13240  1.0000 -0.4357761547
N   N3        1.0  0.64990  0.80370  0.63240  1.0000 -0.4357761547
N   N4        1.0  0.80370  0.64990  0.86760  1.0000 -0.4357761547
N   N5        1.0  0.48640  0.13180  0.47860  1.0000 -0.2591024444
N   N6        1.0  0.13180  0.48640  0.02140  1.0000 -0.2591024444
N   N7        1.0  0.51360  0.86820  0.52140  1.0000 -0.2591024444
N   N8        1.0  0.86820  0.51360  0.97860  1.0000 -0.2591024444
N   N9        1.0  0.41950  0.12330  0.52580  1.0000 -0.2424548596
N   N10       1.0  0.12330  0.41950  0.97420  1.0000 -0.2424548596
N   N11       1.0  0.58050  0.87670  0.47420  1.0000 -0.2424548596
N   N12       1.0  0.87670  0.58050  0.02580  1.0000 -0.2424548596
N   N13       1.0  0.31180  0.09580  0.65790  1.0000 -0.4089236265
N   N14       1.0  0.09580  0.31180  0.84210  1.0000 -0.4089236265
N   N15       1.0  0.68820  0.90420  0.34210  1.0000 -0.4089236265
N   N16       1.0  0.90420  0.68820  0.15790  1.0000 -0.4089236265
N   N17       1.0  0.15130  0.12550  0.58350  1.0000 -0.2496605862
N   N18       1.0  0.12550  0.15130  0.91650  1.0000 -0.2496605862
N   N19       1.0  0.84870  0.87450  0.41650  1.0000 -0.2496605862
N   N20       1.0  0.87450  0.84870  0.08350  1.0000 -0.2496605862
N   N21       1.0  0.16740  0.08800  0.68300  1.0000 -0.2424548596
N   N22       1.0  0.08800  0.16740  0.81700  1.0000 -0.2424548596
N   N23       1.0  0.83260  0.91200  0.31700  1.0000 -0.2424548596
N   N24       1.0  0.91200  0.83260  0.18300  1.0000 -0.2424548596
N   N25       1.0  0.91680  0.06440  0.64480  1.0000 -0.2591024444
N   N26       1.0  0.06440  0.91680  0.85520  1.0000 -0.2591024444
N   N27       1.0  0.08320  0.93560  0.35520  1.0000 -0.2591024444
N   N28       1.0  0.93560  0.08320  0.14480  1.0000 -0.2591024444
N   N29       1.0  0.90140  0.10260  0.54470  1.0000 -0.2496605862
N   N30       1.0  0.10260  0.90140  0.95530  1.0000 -0.2496605862
N   N31       1.0  0.09860  0.89740  0.45530  1.0000 -0.2496605862
N   N32       1.0  0.89740  0.09860  0.04470  1.0000 -0.2496605862
N   N33       1.0  0.75040  0.07780  0.56890  1.0000 -0.4001860723
N   N34       1.0  0.07780  0.75040  0.93110  1.0000 -0.4001860723
N   N35       1.0  0.24960  0.92220  0.43110  1.0000 -0.4001860723
N   N36       1.0  0.92220  0.24960  0.06890  1.0000 -0.4001860723
N   N37       1.0  0.72800  0.01040  0.86000  1.0000 -0.4089236265
N   N38       1.0  0.01040  0.72800  0.64000  1.0000 -0.4089236265
N   N39       1.0  0.27200  0.98960  0.14000  1.0000 -0.4089236265
N   N40       1.0  0.98960  0.27200  0.36000  1.0000 -0.4089236265
N   N41       1.0  0.58350  0.05570  0.74760  1.0000 -0.2424548596
N   N42       1.0  0.05570  0.58350  0.75240  1.0000 -0.2424548596
N   N43       1.0  0.41650  0.94430  0.25240  1.0000 -0.2424548596
N   N44       1.0  0.94430  0.41650  0.24760  1.0000 -0.2424548596
N   N45       1.0  0.64320  0.05180  0.70030  1.0000 -0.2424548596
N   N46       1.0  0.05180  0.64320  0.79970  1.0000 -0.2424548596
N   N47       1.0  0.35680  0.94820  0.29970  1.0000 -0.2424548596
N   N48       1.0  0.94820  0.35680  0.20030  1.0000 -0.2424548596
