# DDEC6 charges by PACMAN v1.1 (https://github.com/mtap-research/PACMAN-charge/)
data_2015[Cu][nbo]3[FSR]1
_chemical_formula_sum              "Cu6 H24 C18 N24 O18"
_cell_length_a       12.7817
_cell_length_b       12.7817
_cell_length_c       12.7817
_cell_angle_alpha    114.812
_cell_angle_beta     114.812
_cell_angle_gamma    114.812

_symmetry_space_group_name_H-M    "P 1"
_symmetry_Int_Tables_number       1

loop_
  _symmetry_equiv_pos_as_xyz
  'x, y, z'

loop_
  _atom_site_type_symbol
  _atom_site_label
  _atom_site_symmetry_multiplicity
  _atom_site_fract_x
  _atom_site_fract_y
  _atom_site_fract_z
  _atom_site_occupancy
  _atom_site_charge
Cu  Cu1       1.0  0.34212  0.76127  0.29002  1.0000 0.7278406361
Cu  Cu2       1.0  0.76127  0.29002  0.34212  1.0000 0.7278406361
Cu  Cu3       1.0  0.29002  0.34212  0.76127  1.0000 0.7278406361
Cu  Cu4       1.0  0.65788  0.23873  0.70998  1.0000 0.7278406361
Cu  Cu5       1.0  0.23873  0.70998  0.65788  1.0000 0.7278406361
Cu  Cu6       1.0  0.70998  0.65788  0.23873  1.0000 0.7278406361
H   H1        1.0  0.03700  0.61100  0.98800  1.0000 0.3573561598
H   H2        1.0  0.61100  0.98800  0.03700  1.0000 0.3573561598
H   H3        1.0  0.98800  0.03700  0.61100  1.0000 0.3573561598
H   H4        1.0  0.96300  0.38900  0.01200  1.0000 0.3573561598
H   H5        1.0  0.38900  0.01200  0.96300  1.0000 0.3573561598
H   H6        1.0  0.01200  0.96300  0.38900  1.0000 0.3573561598
H   H7        1.0  0.14310  0.77890  0.13100  1.0000 0.3667510738
H   H8        1.0  0.77890  0.13100  0.14310  1.0000 0.3667510738
H   H9        1.0  0.13100  0.14310  0.77890  1.0000 0.3667510738
H   H10       1.0  0.85690  0.22110  0.86900  1.0000 0.3667510738
H   H11       1.0  0.22110  0.86900  0.85690  1.0000 0.3667510738
H   H12       1.0  0.86900  0.85690  0.22110  1.0000 0.3667510738
H   H13       1.0  0.66120  0.24480  0.95510  1.0000 0.3004292985
H   H14       1.0  0.24480  0.95510  0.66120  1.0000 0.3004292985
H   H15       1.0  0.95510  0.66120  0.24480  1.0000 0.3004292985
H   H16       1.0  0.33880  0.75520  0.04490  1.0000 0.3004292985
H   H17       1.0  0.75520  0.04490  0.33880  1.0000 0.3004292985
H   H18       1.0  0.04490  0.33880  0.75520  1.0000 0.3004292985
H   H19       1.0  0.56960  0.12220  0.95270  1.0000 0.3063119392
H   H20       1.0  0.12220  0.95270  0.56960  1.0000 0.3063119392
H   H21       1.0  0.95270  0.56960  0.12220  1.0000 0.3063119392
H   H22       1.0  0.43040  0.87780  0.04730  1.0000 0.3063119392
H   H23       1.0  0.87780  0.04730  0.43040  1.0000 0.3063119392
H   H24       1.0  0.04730  0.43040  0.87780  1.0000 0.3063119392
C   C1        1.0  0.49400  0.01583  0.74017  1.0000 0.5054214636
C   C2        1.0  0.01583  0.74017  0.49400  1.0000 0.5054214636
C   C3        1.0  0.74017  0.49400  0.01583  1.0000 0.5054214636
C   C4        1.0  0.50600  0.98417  0.25983  1.0000 0.5054214636
C   C5        1.0  0.98417  0.25983  0.50600  1.0000 0.5054214636
C   C6        1.0  0.25983  0.50600  0.98417  1.0000 0.5054214636
C   C7        1.0  0.31662  0.77667  0.49791  1.0000 0.1728400529
C   C8        1.0  0.77667  0.49791  0.31662  1.0000 0.1728400529
C   C9        1.0  0.49791  0.31662  0.77667  1.0000 0.1728400529
C   C10       1.0  0.68338  0.22333  0.50209  1.0000 0.1728400529
C   C11       1.0  0.22333  0.50209  0.68338  1.0000 0.1728400529
C   C12       1.0  0.50209  0.68338  0.22333  1.0000 0.1728400529
C   C13       1.0  0.19434  0.59555  0.34891  1.0000 0.5277442972
C   C14       1.0  0.59555  0.34891  0.19434  1.0000 0.5277442972
C   C15       1.0  0.34891  0.19434  0.59555  1.0000 0.5277442972
C   C16       1.0  0.80566  0.40445  0.65109  1.0000 0.5277442972
C   C17       1.0  0.40445  0.65109  0.80566  1.0000 0.5277442972
C   C18       1.0  0.65109  0.80566  0.40445  1.0000 0.5277442972
N   N1        1.0  0.51198  0.03785  0.65307  1.0000 -0.3068547805
N   N2        1.0  0.03785  0.65307  0.51198  1.0000 -0.3068547805
N   N3        1.0  0.65307  0.51198  0.03785  1.0000 -0.3068547805
N   N4        1.0  0.48802  0.96215  0.34693  1.0000 -0.3068547805
N   N5        1.0  0.96215  0.34693  0.48802  1.0000 -0.3068547805
N   N6        1.0  0.34693  0.48802  0.96215  1.0000 -0.3068547805
N   N7        1.0  0.58624  0.14317  0.90249  1.0000 -0.6446498593
N   N8        1.0  0.14317  0.90249  0.58624  1.0000 -0.645631667
N   N9        1.0  0.90249  0.58624  0.14317  1.0000 -0.6446498593
N   N10       1.0  0.41376  0.85683  0.09751  1.0000 -0.645631667
N   N11       1.0  0.85683  0.09751  0.41376  1.0000 -0.6446498593
N   N12       1.0  0.09751  0.41376  0.85683  1.0000 -0.645631667
N   N13       1.0  0.39468  0.88019  0.49543  1.0000 -0.202724721
N   N14       1.0  0.88019  0.49543  0.39468  1.0000 -0.202724721
N   N15       1.0  0.49543  0.39468  0.88019  1.0000 -0.202724721
N   N16       1.0  0.60532  0.11981  0.50457  1.0000 -0.202724721
N   N17       1.0  0.11981  0.50457  0.60532  1.0000 -0.202724721
N   N18       1.0  0.50457  0.60532  0.11981  1.0000 -0.202724721
N   N19       1.0  0.37037  0.85366  0.64647  1.0000 -0.4272445202
N   N20       1.0  0.85366  0.64647  0.37037  1.0000 -0.4272445202
N   N21       1.0  0.64647  0.37037  0.85366  1.0000 -0.4272445202
N   N22       1.0  0.62963  0.14634  0.35353  1.0000 -0.4272445202
N   N23       1.0  0.14634  0.35353  0.62963  1.0000 -0.4272445202
N   N24       1.0  0.35353  0.62963  0.14634  1.0000 -0.4272445202
O   O1        1.0  0.18037  0.56307  0.23186  1.0000 -0.5259473185
O   O2        1.0  0.56307  0.23186  0.18037  1.0000 -0.5259473185
O   O3        1.0  0.23186  0.18037  0.56307  1.0000 -0.5259473185
O   O4        1.0  0.81963  0.43693  0.76814  1.0000 -0.5259473185
O   O5        1.0  0.43693  0.76814  0.81963  1.0000 -0.5259473185
O   O6        1.0  0.76814  0.81963  0.43693  1.0000 -0.5259473185
O   O7        1.0  0.12204  0.49525  0.34901  1.0000 -0.4904068072
O   O8        1.0  0.49525  0.34901  0.12204  1.0000 -0.4904068072
O   O9        1.0  0.34901  0.12204  0.49525  1.0000 -0.4904068072
O   O10       1.0  0.87796  0.50475  0.65099  1.0000 -0.4904068072
O   O11       1.0  0.50475  0.65099  0.87796  1.0000 -0.4904068072
O   O12       1.0  0.65099  0.87796  0.50475  1.0000 -0.4904068072
O   O13       1.0  0.12218  0.69562  0.08910  1.0000 -0.6663760106
O   O14       1.0  0.69562  0.08910  0.12218  1.0000 -0.6663760106
O   O15       1.0  0.08910  0.12218  0.69562  1.0000 -0.6663760106
O   O16       1.0  0.87782  0.30438  0.91090  1.0000 -0.6663760106
O   O17       1.0  0.30438  0.91090  0.87782  1.0000 -0.6663760106
O   O18       1.0  0.91090  0.87782  0.30438  1.0000 -0.6663760106
