# DDEC6 charges by PACMAN v1.1 (https://github.com/mtap-research/PACMAN-charge/)
data_2015[Mn][ths]3[FSR]1
_chemical_formula_sum              "Mn8 H120 C200 S4 N24 O32"
_cell_length_a       14.424
_cell_length_b       17.195
_cell_length_c       17.798
_cell_angle_alpha    90
_cell_angle_beta     90
_cell_angle_gamma    90

_symmetry_space_group_name_H-M    "P 1"
_symmetry_Int_Tables_number       1

loop_
  _symmetry_equiv_pos_as_xyz
  'x, y, z'

loop_
  _atom_site_type_symbol
  _atom_site_label
  _atom_site_symmetry_multiplicity
  _atom_site_fract_x
  _atom_site_fract_y
  _atom_site_fract_z
  _atom_site_occupancy
  _atom_site_charge
Mn  Mn1       1.0  0.00201  0.25170  0.16360  1.0000 0.7796585852
Mn  Mn2       1.0  0.50201  0.25170  0.83640  1.0000 0.7796585852
Mn  Mn3       1.0  0.49224  0.66425  0.67364  1.0000 0.792524054
Mn  Mn4       1.0  0.99224  0.66425  0.32636  1.0000 0.792524054
Mn  Mn5       1.0  0.99799  0.75170  0.83640  1.0000 0.7796585852
Mn  Mn6       1.0  0.49799  0.75170  0.16360  1.0000 0.7796585852
Mn  Mn7       1.0  0.50776  0.16425  0.32636  1.0000 0.792524054
Mn  Mn8       1.0  0.00776  0.16425  0.67364  1.0000 0.792524054
H   H1        1.0  0.28980  0.36270  0.29740  1.0000 0.1312926495
H   H2        1.0  0.78980  0.36270  0.70260  1.0000 0.1312926495
H   H3        1.0  0.04880  0.44510  0.37800  1.0000 0.1381967327
H   H4        1.0  0.54880  0.44510  0.62200  1.0000 0.1381967327
H   H5        1.0  0.35340  0.29210  0.20470  1.0000 0.1312926495
H   H6        1.0  0.85340  0.29210  0.79530  1.0000 0.1312926495
H   H7        1.0  0.40870  0.21230  0.11020  1.0000 0.1312926495
H   H8        1.0  0.90870  0.21230  0.88980  1.0000 0.1312926495
H   H9        1.0  0.30210  0.14610  0.03450  1.0000 0.1312926495
H   H10       1.0  0.80210  0.14610  0.96550  1.0000 0.1312926495
H   H11       1.0  0.14510  0.15850  0.05940  1.0000 0.1198278622
H   H12       1.0  0.64510  0.15850  0.94060  1.0000 0.1198278622
H   H13       1.0  0.90280  0.45830  0.35690  1.0000 0.1198278622
H   H14       1.0  0.40280  0.45830  0.64310  1.0000 0.1198278622
H   H15       1.0  0.74560  0.45950  0.33410  1.0000 0.1198278622
H   H16       1.0  0.24560  0.45950  0.66590  1.0000 0.1198278622
H   H17       1.0  0.68490  0.38040  0.23900  1.0000 0.1198278622
H   H18       1.0  0.18490  0.38040  0.76100  1.0000 0.1198278622
H   H19       1.0  0.78370  0.29960  0.17430  1.0000 0.1108806774
H   H20       1.0  0.28370  0.29960  0.82570  1.0000 0.1108806774
H   H21       1.0  0.35290  0.40200  0.40250  1.0000 0.1108806774
H   H22       1.0  0.85290  0.40200  0.59750  1.0000 0.1108806774
H   H23       1.0  0.42870  0.47500  0.49120  1.0000 0.1198278622
H   H24       1.0  0.92870  0.47500  0.50880  1.0000 0.1198278622
H   H25       1.0  0.19650  0.59530  0.53120  1.0000 0.1198278622
H   H26       1.0  0.69650  0.59530  0.46880  1.0000 0.1198278622
H   H27       1.0  0.12090  0.52350  0.44100  1.0000 0.1198278622
H   H28       1.0  0.62090  0.52350  0.55900  1.0000 0.1198278622
H   H29       1.0  0.79410  0.54130  0.77970  1.0000 0.1312926495
H   H30       1.0  0.29410  0.54130  0.22030  1.0000 0.1312926495
H   H31       1.0  0.56510  0.48330  0.89770  1.0000 0.1381967327
H   H32       1.0  0.06510  0.48330  0.10230  1.0000 0.1381967327
H   H33       1.0  0.84950  0.61460  0.69280  1.0000 0.1312926495
H   H34       1.0  0.34950  0.61460  0.30720  1.0000 0.1312926495
H   H35       1.0  0.89930  0.69750  0.59750  1.0000 0.1312926495
H   H36       1.0  0.39930  0.69750  0.40250  1.0000 0.1312926495
H   H37       1.0  0.78990  0.76500  0.52730  1.0000 0.1381967327
H   H38       1.0  0.28990  0.76500  0.47270  1.0000 0.1381967327
H   H39       1.0  0.63620  0.75150  0.55590  1.0000 0.1198278622
H   H40       1.0  0.13620  0.75150  0.44410  1.0000 0.1198278622
H   H41       1.0  0.41870  0.49660  0.90760  1.0000 0.1312926495
H   H42       1.0  0.91870  0.49660  0.09240  1.0000 0.1312926495
H   H43       1.0  0.26360  0.52970  0.92310  1.0000 0.1198278622
H   H44       1.0  0.76360  0.52970  0.07690  1.0000 0.1198278622
H   H45       1.0  0.19580  0.61840  0.84130  1.0000 0.1489470296
H   H46       1.0  0.69580  0.61840  0.15870  1.0000 0.1489470296
H   H47       1.0  0.28420  0.66750  0.74430  1.0000 0.1198278622
H   H48       1.0  0.78420  0.66750  0.25570  1.0000 0.1198278622
H   H49       1.0  0.87080  0.51020  0.87910  1.0000 0.1108806774
H   H50       1.0  0.37080  0.51020  0.12090  1.0000 0.1108806774
H   H51       1.0  0.96320  0.43710  0.95870  1.0000 0.1198278622
H   H52       1.0  0.46320  0.43710  0.04130  1.0000 0.1198278622
H   H53       1.0  0.73800  0.31790  0.02550  1.0000 0.1198278622
H   H54       1.0  0.23800  0.31790  0.97450  1.0000 0.1198278622
H   H55       1.0  0.64670  0.39180  0.94750  1.0000 0.1312926495
H   H56       1.0  0.14670  0.39180  0.05250  1.0000 0.1312926495
H   H57       1.0  0.93100  0.07230  0.38160  1.0000 0.1381967327
H   H58       1.0  0.43100  0.07230  0.61840  1.0000 0.1381967327
H   H59       1.0  0.92770  0.93620  0.42070  1.0000 0.1381967327
H   H60       1.0  0.42770  0.93620  0.57930  1.0000 0.1381967327
H   H61       1.0  0.71020  0.86270  0.70260  1.0000 0.1312926495
H   H62       1.0  0.21020  0.86270  0.29740  1.0000 0.1312926495
H   H63       1.0  0.95120  0.94510  0.62200  1.0000 0.1381967327
H   H64       1.0  0.45120  0.94510  0.37800  1.0000 0.1381967327
H   H65       1.0  0.64660  0.79210  0.79530  1.0000 0.1312926495
H   H66       1.0  0.14660  0.79210  0.20470  1.0000 0.1312926495
H   H67       1.0  0.59130  0.71230  0.88980  1.0000 0.1312926495
H   H68       1.0  0.09130  0.71230  0.11020  1.0000 0.1312926495
H   H69       1.0  0.69790  0.64610  0.96550  1.0000 0.1312926495
H   H70       1.0  0.19790  0.64610  0.03450  1.0000 0.1312926495
H   H71       1.0  0.85490  0.65850  0.94060  1.0000 0.1198278622
H   H72       1.0  0.35490  0.65850  0.05940  1.0000 0.1198278622
H   H73       1.0  0.09720  0.95830  0.64310  1.0000 0.1198278622
H   H74       1.0  0.59720  0.95830  0.35690  1.0000 0.1198278622
H   H75       1.0  0.25440  0.95950  0.66590  1.0000 0.1198278622
H   H76       1.0  0.75440  0.95950  0.33410  1.0000 0.1198278622
H   H77       1.0  0.31510  0.88040  0.76100  1.0000 0.1198278622
H   H78       1.0  0.81510  0.88040  0.23900  1.0000 0.1198278622
H   H79       1.0  0.21630  0.79960  0.82570  1.0000 0.1108806774
H   H80       1.0  0.71630  0.79960  0.17430  1.0000 0.1108806774
H   H81       1.0  0.64710  0.90200  0.59750  1.0000 0.1108806774
H   H82       1.0  0.14710  0.90200  0.40250  1.0000 0.1108806774
H   H83       1.0  0.57130  0.97500  0.50880  1.0000 0.1198278622
H   H84       1.0  0.07130  0.97500  0.49120  1.0000 0.1198278622
H   H85       1.0  0.80350  0.09530  0.46880  1.0000 0.1198278622
H   H86       1.0  0.30350  0.09530  0.53120  1.0000 0.1198278622
H   H87       1.0  0.87910  0.02350  0.55900  1.0000 0.1198278622
H   H88       1.0  0.37910  0.02350  0.44100  1.0000 0.1198278622
H   H89       1.0  0.20590  0.04130  0.22030  1.0000 0.1312926495
H   H90       1.0  0.70590  0.04130  0.77970  1.0000 0.1312926495
H   H91       1.0  0.43490  0.98330  0.10230  1.0000 0.1381967327
H   H92       1.0  0.93490  0.98330  0.89770  1.0000 0.1381967327
H   H93       1.0  0.15050  0.11460  0.30720  1.0000 0.1312926495
H   H94       1.0  0.65050  0.11460  0.69280  1.0000 0.1312926495
H   H95       1.0  0.10070  0.19750  0.40250  1.0000 0.1312926495
H   H96       1.0  0.60070  0.19750  0.59750  1.0000 0.1312926495
H   H97       1.0  0.21010  0.26500  0.47270  1.0000 0.1381967327
H   H98       1.0  0.71010  0.26500  0.52730  1.0000 0.1381967327
H   H99       1.0  0.36380  0.25150  0.44410  1.0000 0.1198278622
H   H100      1.0  0.86380  0.25150  0.55590  1.0000 0.1198278622
H   H101      1.0  0.58130  0.99660  0.09240  1.0000 0.1312926495
H   H102      1.0  0.08130  0.99660  0.90760  1.0000 0.1312926495
H   H103      1.0  0.73640  0.02970  0.07690  1.0000 0.1198278622
H   H104      1.0  0.23640  0.02970  0.92310  1.0000 0.1198278622
H   H105      1.0  0.80420  0.11840  0.15870  1.0000 0.1489470296
H   H106      1.0  0.30420  0.11840  0.84130  1.0000 0.1489470296
H   H107      1.0  0.71580  0.16750  0.25570  1.0000 0.1198278622
H   H108      1.0  0.21580  0.16750  0.74430  1.0000 0.1198278622
H   H109      1.0  0.12920  0.01020  0.12090  1.0000 0.1108806774
H   H110      1.0  0.62920  0.01020  0.87910  1.0000 0.1108806774
H   H111      1.0  0.03680  0.93710  0.04130  1.0000 0.1198278622
H   H112      1.0  0.53680  0.93710  0.95870  1.0000 0.1198278622
H   H113      1.0  0.26200  0.81790  0.97450  1.0000 0.1198278622
H   H114      1.0  0.76200  0.81790  0.02550  1.0000 0.1198278622
H   H115      1.0  0.35330  0.89180  0.05250  1.0000 0.1312926495
H   H116      1.0  0.85330  0.89180  0.94750  1.0000 0.1312926495
H   H117      1.0  0.06900  0.57230  0.61840  1.0000 0.1381967327
H   H118      1.0  0.56900  0.57230  0.38160  1.0000 0.1381967327
H   H119      1.0  0.07230  0.43620  0.57930  1.0000 0.1381967327
H   H120      1.0  0.57230  0.43620  0.42070  1.0000 0.1381967327
C   C1        1.0  0.17550  0.32420  0.24300  1.0000 0.1837743998
C   C2        1.0  0.67550  0.32420  0.75700  1.0000 0.1837743998
C   C3        1.0  0.22540  0.36570  0.29670  1.0000 -0.223360066
C   C4        1.0  0.72540  0.36570  0.70330  1.0000 -0.223360066
C   C5        1.0  0.17980  0.41160  0.34930  1.0000 0.1312926495
C   C6        1.0  0.67980  0.41160  0.65070  1.0000 0.1312926495
C   C7        1.0  0.08220  0.41520  0.34400  1.0000 -0.223360066
C   C8        1.0  0.58220  0.41520  0.65600  1.0000 -0.223360066
C   C9        1.0  0.03620  0.37430  0.28840  1.0000 0.1884292221
C   C10       1.0  0.53620  0.37430  0.71160  1.0000 0.1884292221
C   C11       1.0  0.21660  0.27270  0.18500  1.0000 0.1605369666
C   C12       1.0  0.71660  0.27270  0.81500  1.0000 0.1605369666
C   C13       1.0  0.31230  0.26510  0.17410  1.0000 -0.1615875258
C   C14       1.0  0.81230  0.26510  0.82590  1.0000 -0.1615875258
C   C15       1.0  0.34530  0.21770  0.11820  1.0000 -0.0215569964
C   C16       1.0  0.84530  0.21770  0.88180  1.0000 -0.0215569964
C   C17       1.0  0.28190  0.17780  0.07350  1.0000 -0.1409151672
C   C18       1.0  0.78190  0.17780  0.92650  1.0000 -0.1409151672
C   C19       1.0  0.18730  0.18630  0.08840  1.0000 0.0983067372
C   C20       1.0  0.68730  0.18630  0.91160  1.0000 0.0983067372
C   C21       1.0  0.93460  0.37800  0.27780  1.0000 0.1719749117
C   C22       1.0  0.43460  0.37800  0.72220  1.0000 0.1719749117
C   C23       1.0  0.87760  0.42660  0.31980  1.0000 -0.1615875258
C   C24       1.0  0.37760  0.42660  0.68020  1.0000 -0.1615875258
C   C25       1.0  0.78440  0.42750  0.30610  1.0000 -0.0279346096
C   C26       1.0  0.28440  0.42750  0.69390  1.0000 -0.0279346096
C   C27       1.0  0.74790  0.38000  0.24990  1.0000 -0.1303350807
C   C28       1.0  0.24790  0.38000  0.75010  1.0000 -0.1303350807
C   C29       1.0  0.80770  0.33250  0.21100  1.0000 0.0802558394
C   C30       1.0  0.30770  0.33250  0.78900  1.0000 0.0802558394
C   C31       1.0  0.22930  0.45590  0.41020  1.0000 0.0580291071
C   C32       1.0  0.72930  0.45590  0.58980  1.0000 0.0580291071
C   C33       1.0  0.32130  0.44150  0.42730  1.0000 -0.1484380073
C   C34       1.0  0.82130  0.44150  0.57270  1.0000 -0.1484380073
C   C35       1.0  0.36670  0.48540  0.48100  1.0000 -0.1001637286
C   C36       1.0  0.86670  0.48540  0.51900  1.0000 -0.1001637286
C   C37       1.0  0.32200  0.54490  0.52020  1.0000 -0.0391984663
C   C38       1.0  0.82200  0.54490  0.47980  1.0000 -0.0391984663
C   C39       1.0  0.22880  0.55740  0.50480  1.0000 -0.1001637286
C   C40       1.0  0.72880  0.55740  0.49520  1.0000 -0.1001637286
C   C41       1.0  0.18320  0.51390  0.45070  1.0000 -0.1409151672
C   C42       1.0  0.68320  0.51390  0.54930  1.0000 -0.1409151672
C   C43       1.0  0.37150  0.59560  0.57520  1.0000 0.5399346942
C   C44       1.0  0.87150  0.59560  0.42480  1.0000 0.5399346942
C   C45       1.0  0.67390  0.58920  0.74230  1.0000 0.1884292221
C   C46       1.0  0.17390  0.58920  0.25770  1.0000 0.1884292221
C   C47       1.0  0.73070  0.54440  0.78880  1.0000 -0.238860686
C   C48       1.0  0.23070  0.54440  0.21120  1.0000 -0.238860686
C   C49       1.0  0.69070  0.50370  0.84990  1.0000 0.1312926495
C   C50       1.0  0.19070  0.50370  0.15010  1.0000 0.1312926495
C   C51       1.0  0.59450  0.50980  0.85880  1.0000 -0.2323300547
C   C52       1.0  0.09450  0.50980  0.14120  1.0000 -0.2323300547
C   C53       1.0  0.54280  0.55560  0.80940  1.0000 0.1884292221
C   C54       1.0  0.04280  0.55560  0.19060  1.0000 0.1884292221
C   C55       1.0  0.71270  0.63820  0.68040  1.0000 0.1605369666
C   C56       1.0  0.21270  0.63820  0.31960  1.0000 0.1605369666
C   C57       1.0  0.80690  0.64330  0.66510  1.0000 -0.1615875258
C   C58       1.0  0.30690  0.64330  0.33490  1.0000 -0.1615875258
C   C59       1.0  0.83640  0.69220  0.60790  1.0000 -0.0279346096
C   C60       1.0  0.33640  0.69220  0.39210  1.0000 -0.0279346096
C   C61       1.0  0.77160  0.73260  0.56650  1.0000 -0.1303350807
C   C62       1.0  0.27160  0.73260  0.43350  1.0000 -0.1303350807
C   C63       1.0  0.67950  0.72420  0.58430  1.0000 0.0802558394
C   C64       1.0  0.17950  0.72420  0.41570  1.0000 0.0802558394
C   C65       1.0  0.44080  0.56700  0.81890  1.0000 0.1489470296
C   C66       1.0  0.94080  0.56700  0.18110  1.0000 0.1489470296
C   C67       1.0  0.39080  0.53240  0.87570  1.0000 -0.1615875258
C   C68       1.0  0.89080  0.53240  0.12430  1.0000 -0.1615875258
C   C69       1.0  0.29820  0.55180  0.88450  1.0000 -0.0391984663
C   C70       1.0  0.79820  0.55180  0.11550  1.0000 -0.0391984663
C   C71       1.0  0.25750  0.60380  0.83580  1.0000 -0.1303350807
C   C72       1.0  0.75750  0.60380  0.16420  1.0000 -0.1303350807
C   C73       1.0  0.31170  0.63360  0.77830  1.0000 0.1108806774
C   C74       1.0  0.81170  0.63360  0.22170  1.0000 0.1108806774
C   C75       1.0  0.74900  0.45810  0.90270  1.0000 0.0503865288
C   C76       1.0  0.24900  0.45810  0.09730  1.0000 0.0503865288
C   C77       1.0  0.84400  0.47110  0.90790  1.0000 -0.1615875258
C   C78       1.0  0.34400  0.47110  0.09210  1.0000 -0.1615875258
C   C79       1.0  0.90000  0.42690  0.95550  1.0000 -0.1160917847
C   C80       1.0  0.40000  0.42690  0.04450  1.0000 -0.1160917847
C   C81       1.0  0.86100  0.36730  0.99820  1.0000 -0.0279346096
C   C82       1.0  0.36100  0.36730  0.00180  1.0000 -0.0279346096
C   C83       1.0  0.76510  0.35590  0.99550  1.0000 -0.1148997775
C   C84       1.0  0.26510  0.35590  0.00450  1.0000 -0.1148997775
C   C85       1.0  0.71040  0.40030  0.94860  1.0000 -0.1303350807
C   C86       1.0  0.21040  0.40030  0.05140  1.0000 -0.1303350807
C   C87       1.0  0.92160  0.31880  0.04850  1.0000 0.5336244994
C   C88       1.0  0.42160  0.31880  0.95150  1.0000 0.5336244994
C   C89       1.0  0.97220  0.03920  0.27570  1.0000 -0.1303350807
C   C90       1.0  0.47220  0.03920  0.72430  1.0000 -0.1303350807
C   C91       1.0  0.94600  0.03090  0.35030  1.0000 -0.1303350807
C   C92       1.0  0.44600  0.03090  0.64970  1.0000 -0.1303350807
C   C93       1.0  0.94500  0.95250  0.37290  1.0000 -0.1409151672
C   C94       1.0  0.44500  0.95250  0.62710  1.0000 -0.1409151672
C   C95       1.0  0.97200  0.90280  0.31740  1.0000 -0.1160917847
C   C96       1.0  0.47200  0.90280  0.68260  1.0000 -0.1160917847
C   C97       1.0  0.98050  0.11180  0.23160  1.0000 0.5399346942
C   C98       1.0  0.48050  0.11180  0.76840  1.0000 0.5399346942
C   C99       1.0  0.97960  0.81600  0.31940  1.0000 0.5399346942
C   C100      1.0  0.47960  0.81600  0.68060  1.0000 0.5399346942
C   C101      1.0  0.82450  0.82420  0.75700  1.0000 0.1837743998
C   C102      1.0  0.32450  0.82420  0.24300  1.0000 0.1837743998
C   C103      1.0  0.77460  0.86570  0.70330  1.0000 -0.223360066
C   C104      1.0  0.27460  0.86570  0.29670  1.0000 -0.223360066
C   C105      1.0  0.82020  0.91160  0.65070  1.0000 0.1312926495
C   C106      1.0  0.32020  0.91160  0.34930  1.0000 0.1312926495
C   C107      1.0  0.91780  0.91520  0.65600  1.0000 -0.223360066
C   C108      1.0  0.41780  0.91520  0.34400  1.0000 -0.223360066
C   C109      1.0  0.96380  0.87430  0.71160  1.0000 0.1884292221
C   C110      1.0  0.46380  0.87430  0.28840  1.0000 0.1884292221
C   C111      1.0  0.78340  0.77270  0.81500  1.0000 0.1605369666
C   C112      1.0  0.28340  0.77270  0.18500  1.0000 0.1605369666
C   C113      1.0  0.68770  0.76510  0.82590  1.0000 -0.1615875258
C   C114      1.0  0.18770  0.76510  0.17410  1.0000 -0.1615875258
C   C115      1.0  0.65470  0.71770  0.88180  1.0000 -0.0215569964
C   C116      1.0  0.15470  0.71770  0.11820  1.0000 -0.0215569964
C   C117      1.0  0.71810  0.67780  0.92650  1.0000 -0.1409151672
C   C118      1.0  0.21810  0.67780  0.07350  1.0000 -0.1409151672
C   C119      1.0  0.81270  0.68630  0.91160  1.0000 0.0983067372
C   C120      1.0  0.31270  0.68630  0.08840  1.0000 0.0983067372
C   C121      1.0  0.06540  0.87800  0.72220  1.0000 0.1719749117
C   C122      1.0  0.56540  0.87800  0.27780  1.0000 0.1719749117
C   C123      1.0  0.12240  0.92660  0.68020  1.0000 -0.1615875258
C   C124      1.0  0.62240  0.92660  0.31980  1.0000 -0.1615875258
C   C125      1.0  0.21560  0.92750  0.69390  1.0000 -0.0279346096
C   C126      1.0  0.71560  0.92750  0.30610  1.0000 -0.0279346096
C   C127      1.0  0.25210  0.88000  0.75010  1.0000 -0.1303350807
C   C128      1.0  0.75210  0.88000  0.24990  1.0000 -0.1303350807
C   C129      1.0  0.19230  0.83250  0.78900  1.0000 0.0802558394
C   C130      1.0  0.69230  0.83250  0.21100  1.0000 0.0802558394
C   C131      1.0  0.77070  0.95590  0.58980  1.0000 0.0580291071
C   C132      1.0  0.27070  0.95590  0.41020  1.0000 0.0580291071
C   C133      1.0  0.67870  0.94150  0.57270  1.0000 -0.1484380073
C   C134      1.0  0.17870  0.94150  0.42730  1.0000 -0.1484380073
C   C135      1.0  0.63330  0.98540  0.51900  1.0000 -0.1001637286
C   C136      1.0  0.13330  0.98540  0.48100  1.0000 -0.1001637286
C   C137      1.0  0.67800  0.04490  0.47980  1.0000 -0.0391984663
C   C138      1.0  0.17800  0.04490  0.52020  1.0000 -0.0391984663
C   C139      1.0  0.77120  0.05740  0.49520  1.0000 -0.1001637286
C   C140      1.0  0.27120  0.05740  0.50480  1.0000 -0.1001637286
C   C141      1.0  0.81680  0.01390  0.54930  1.0000 -0.1409151672
C   C142      1.0  0.31680  0.01390  0.45070  1.0000 -0.1409151672
C   C143      1.0  0.62850  0.09560  0.42480  1.0000 0.5399346942
C   C144      1.0  0.12850  0.09560  0.57520  1.0000 0.5399346942
C   C145      1.0  0.32610  0.08920  0.25770  1.0000 0.1884292221
C   C146      1.0  0.82610  0.08920  0.74230  1.0000 0.1884292221
C   C147      1.0  0.26930  0.04440  0.21120  1.0000 -0.238860686
C   C148      1.0  0.76930  0.04440  0.78880  1.0000 -0.238860686
C   C149      1.0  0.30930  0.00370  0.15010  1.0000 0.1312926495
C   C150      1.0  0.80930  0.00370  0.84990  1.0000 0.1312926495
C   C151      1.0  0.40550  0.00980  0.14120  1.0000 -0.2323300547
C   C152      1.0  0.90550  0.00980  0.85880  1.0000 -0.2323300547
C   C153      1.0  0.45720  0.05560  0.19060  1.0000 0.1884292221
C   C154      1.0  0.95720  0.05560  0.80940  1.0000 0.1884292221
C   C155      1.0  0.28730  0.13820  0.31960  1.0000 0.1605369666
C   C156      1.0  0.78730  0.13820  0.68040  1.0000 0.1605369666
C   C157      1.0  0.19310  0.14330  0.33490  1.0000 -0.1615875258
C   C158      1.0  0.69310  0.14330  0.66510  1.0000 -0.1615875258
C   C159      1.0  0.16360  0.19220  0.39210  1.0000 -0.0279346096
C   C160      1.0  0.66360  0.19220  0.60790  1.0000 -0.0279346096
C   C161      1.0  0.22840  0.23260  0.43350  1.0000 -0.1303350807
C   C162      1.0  0.72840  0.23260  0.56650  1.0000 -0.1303350807
C   C163      1.0  0.32050  0.22420  0.41570  1.0000 0.0802558394
C   C164      1.0  0.82050  0.22420  0.58430  1.0000 0.0802558394
C   C165      1.0  0.55920  0.06700  0.18110  1.0000 0.1489470296
C   C166      1.0  0.05920  0.06700  0.81890  1.0000 0.1489470296
C   C167      1.0  0.60920  0.03240  0.12430  1.0000 -0.1615875258
C   C168      1.0  0.10920  0.03240  0.87570  1.0000 -0.1615875258
C   C169      1.0  0.70180  0.05180  0.11550  1.0000 -0.0391984663
C   C170      1.0  0.20180  0.05180  0.88450  1.0000 -0.0391984663
C   C171      1.0  0.74250  0.10380  0.16420  1.0000 -0.1303350807
C   C172      1.0  0.24250  0.10380  0.83580  1.0000 -0.1303350807
C   C173      1.0  0.68830  0.13360  0.22170  1.0000 0.1108806774
C   C174      1.0  0.18830  0.13360  0.77830  1.0000 0.1108806774
C   C175      1.0  0.25100  0.95810  0.09730  1.0000 0.0503865288
C   C176      1.0  0.75100  0.95810  0.90270  1.0000 0.0503865288
C   C177      1.0  0.15600  0.97110  0.09210  1.0000 -0.1615875258
C   C178      1.0  0.65600  0.97110  0.90790  1.0000 -0.1615875258
C   C179      1.0  0.10000  0.92690  0.04450  1.0000 -0.1160917847
C   C180      1.0  0.60000  0.92690  0.95550  1.0000 -0.1160917847
C   C181      1.0  0.13900  0.86730  0.00180  1.0000 -0.0279346096
C   C182      1.0  0.63900  0.86730  0.99820  1.0000 -0.0279346096
C   C183      1.0  0.23490  0.85590  0.00450  1.0000 -0.1148997775
C   C184      1.0  0.73490  0.85590  0.99550  1.0000 -0.1148997775
C   C185      1.0  0.28960  0.90030  0.05140  1.0000 -0.1303350807
C   C186      1.0  0.78960  0.90030  0.94860  1.0000 -0.1303350807
C   C187      1.0  0.07840  0.81880  0.95150  1.0000 0.5336244994
C   C188      1.0  0.57840  0.81880  0.04850  1.0000 0.5336244994
C   C189      1.0  0.02780  0.53920  0.72430  1.0000 -0.1303350807
C   C190      1.0  0.52780  0.53920  0.27570  1.0000 -0.1303350807
C   C191      1.0  0.05400  0.53090  0.64970  1.0000 -0.1303350807
C   C192      1.0  0.55400  0.53090  0.35030  1.0000 -0.1303350807
C   C193      1.0  0.05500  0.45250  0.62710  1.0000 -0.1409151672
C   C194      1.0  0.55500  0.45250  0.37290  1.0000 -0.1409151672
C   C195      1.0  0.02800  0.40280  0.68260  1.0000 -0.1160917847
C   C196      1.0  0.52800  0.40280  0.31740  1.0000 -0.1160917847
C   C197      1.0  0.01950  0.61180  0.76840  1.0000 0.5399346942
C   C198      1.0  0.51950  0.61180  0.23160  1.0000 0.5399346942
C   C199      1.0  0.02040  0.31600  0.68060  1.0000 0.5399346942
C   C200      1.0  0.52040  0.31600  0.31940  1.0000 0.5399346942
S   S1        1.0  0.99740  0.95091  0.23563  1.0000 0.1381967327
S   S2        1.0  0.49740  0.95091  0.76437  1.0000 0.1381967327
S   S3        1.0  0.00260  0.45091  0.76437  1.0000 0.1312926495
S   S4        1.0  0.50260  0.45091  0.23563  1.0000 0.1381967327
N   N1        1.0  0.08230  0.32830  0.23970  1.0000 -0.2978361851
N   N2        1.0  0.58230  0.32830  0.76030  1.0000 -0.2978361851
N   N3        1.0  0.15510  0.23270  0.14240  1.0000 -0.2592084116
N   N4        1.0  0.65510  0.23270  0.85760  1.0000 -0.2592084116
N   N5        1.0  0.89990  0.33170  0.22380  1.0000 -0.238860686
N   N6        1.0  0.39990  0.33170  0.77620  1.0000 -0.238860686
N   N7        1.0  0.58240  0.59390  0.75200  1.0000 -0.3056638545
N   N8        1.0  0.08240  0.59390  0.24800  1.0000 -0.2978361851
N   N9        1.0  0.64850  0.67860  0.64060  1.0000 -0.268156693
N   N10       1.0  0.14850  0.67860  0.35940  1.0000 -0.268156693
N   N11       1.0  0.40050  0.61660  0.76920  1.0000 -0.2479620135
N   N12       1.0  0.90050  0.61660  0.23080  1.0000 -0.2479620135
N   N13       1.0  0.91770  0.82830  0.76030  1.0000 -0.2978361851
N   N14       1.0  0.41770  0.82830  0.23970  1.0000 -0.2978361851
N   N15       1.0  0.84490  0.73270  0.85760  1.0000 -0.2592084116
N   N16       1.0  0.34490  0.73270  0.14240  1.0000 -0.2592084116
N   N17       1.0  0.10010  0.83170  0.77620  1.0000 -0.238860686
N   N18       1.0  0.60010  0.83170  0.22380  1.0000 -0.238860686
N   N19       1.0  0.41760  0.09390  0.24800  1.0000 -0.3056638545
N   N20       1.0  0.91760  0.09390  0.75200  1.0000 -0.3056638545
N   N21       1.0  0.35150  0.17860  0.35940  1.0000 -0.268156693
N   N22       1.0  0.85150  0.17860  0.64060  1.0000 -0.268156693
N   N23       1.0  0.59950  0.11660  0.23080  1.0000 -0.2479620135
N   N24       1.0  0.09950  0.11660  0.76920  1.0000 -0.2479620135
O   O1        1.0  0.45830  0.58160  0.58768  1.0000 -0.5768144435
O   O2        1.0  0.95830  0.58160  0.41232  1.0000 -0.5768144435
O   O3        1.0  0.32900  0.64890  0.60849  1.0000 -0.5287925086
O   O4        1.0  0.82900  0.64890  0.39151  1.0000 -0.5287925086
O   O5        1.0  0.89340  0.25370  0.07291  1.0000 -0.5408649153
O   O6        1.0  0.39340  0.25370  0.92709  1.0000 -0.5408649153
O   O7        1.0  0.99880  0.34560  0.06790  1.0000 -0.5479698485
O   O8        1.0  0.49880  0.34560  0.93210  1.0000 -0.5479698485
O   O9        1.0  0.96210  0.17600  0.26340  1.0000 -0.5408649153
O   O10       1.0  0.46210  0.17600  0.73660  1.0000 -0.5408649153
O   O11       1.0  0.00620  0.10850  0.16460  1.0000 -0.5479698485
O   O12       1.0  0.50620  0.10850  0.83540  1.0000 -0.5479698485
O   O13       1.0  0.99190  0.78030  0.25920  1.0000 -0.5479698485
O   O14       1.0  0.49190  0.78030  0.74080  1.0000 -0.5479698485
O   O15       1.0  0.97250  0.78180  0.38220  1.0000 -0.5287925086
O   O16       1.0  0.47250  0.78180  0.61780  1.0000 -0.5287925086
O   O17       1.0  0.54170  0.08160  0.41232  1.0000 -0.5768144435
O   O18       1.0  0.04170  0.08160  0.58768  1.0000 -0.5768144435
O   O19       1.0  0.67100  0.14890  0.39151  1.0000 -0.5287925086
O   O20       1.0  0.17100  0.14890  0.60849  1.0000 -0.5287925086
O   O21       1.0  0.10660  0.75370  0.92709  1.0000 -0.5408649153
O   O22       1.0  0.60660  0.75370  0.07291  1.0000 -0.5408649153
O   O23       1.0  0.00120  0.84560  0.93210  1.0000 -0.5479698485
O   O24       1.0  0.50120  0.84560  0.06790  1.0000 -0.5479698485
O   O25       1.0  0.03790  0.67600  0.73660  1.0000 -0.5408649153
O   O26       1.0  0.53790  0.67600  0.26340  1.0000 -0.5408649153
O   O27       1.0  0.99380  0.60850  0.83540  1.0000 -0.5479698485
O   O28       1.0  0.49380  0.60850  0.16460  1.0000 -0.5479698485
O   O29       1.0  0.00810  0.28030  0.74080  1.0000 -0.5479698485
O   O30       1.0  0.50810  0.28030  0.25920  1.0000 -0.5479698485
O   O31       1.0  0.02750  0.28180  0.61780  1.0000 -0.5287925086
O   O32       1.0  0.52750  0.28180  0.38220  1.0000 -0.5287925086
