# DDEC6 charges by PACMAN v1.1 (https://github.com/mtap-research/PACMAN-charge/)
data_2015[Mn][nan]3[FSR]2
_chemical_formula_sum              "Mn3 H72 C120 N24"
_cell_length_a       19.4814
_cell_length_b       19.4814
_cell_length_c       19.4814
_cell_angle_alpha    117.501
_cell_angle_beta     117.501
_cell_angle_gamma    117.501

_symmetry_space_group_name_H-M    "P 1"
_symmetry_Int_Tables_number       1

loop_
  _symmetry_equiv_pos_as_xyz
  'x, y, z'

loop_
  _atom_site_type_symbol
  _atom_site_label
  _atom_site_symmetry_multiplicity
  _atom_site_fract_x
  _atom_site_fract_y
  _atom_site_fract_z
  _atom_site_occupancy
  _atom_site_charge
Mn  Mn1       1.0  0.00000  0.50000  0.00000  1.0000 0.6427658672
Mn  Mn2       1.0  0.50000  0.00000  0.00000  1.0000 0.6427658672
Mn  Mn3       1.0  0.00000  0.00000  0.50000  1.0000 0.6427658672
H   H1        1.0  0.47572  0.89630  0.25250  1.0000 0.1282483065
H   H2        1.0  0.89630  0.25250  0.47572  1.0000 0.1282483065
H   H3        1.0  0.25250  0.47572  0.89630  1.0000 0.1282483065
H   H4        1.0  0.52428  0.10370  0.74750  1.0000 0.1282483065
H   H5        1.0  0.10370  0.74750  0.52428  1.0000 0.1282483065
H   H6        1.0  0.74750  0.52428  0.10370  1.0000 0.1282483065
H   H7        1.0  0.56412  0.92240  0.41640  1.0000 0.1226143489
H   H8        1.0  0.92240  0.41640  0.56412  1.0000 0.1226143489
H   H9        1.0  0.41640  0.56412  0.92240  1.0000 0.1226143489
H   H10       1.0  0.43588  0.07760  0.58360  1.0000 0.1226143489
H   H11       1.0  0.07760  0.58360  0.43588  1.0000 0.1226143489
H   H12       1.0  0.58360  0.43588  0.07760  1.0000 0.1226143489
H   H13       1.0  0.69652  0.34330  0.57980  1.0000 0.1226143489
H   H14       1.0  0.34330  0.57980  0.69652  1.0000 0.1226143489
H   H15       1.0  0.57980  0.69652  0.34330  1.0000 0.1226143489
H   H16       1.0  0.30348  0.65670  0.42020  1.0000 0.1226143489
H   H17       1.0  0.65670  0.42020  0.30348  1.0000 0.1226143489
H   H18       1.0  0.42020  0.30348  0.65670  1.0000 0.1226143489
H   H19       1.0  0.95592  0.55280  0.75290  1.0000 0.1226143489
H   H20       1.0  0.55280  0.75290  0.95592  1.0000 0.1226143489
H   H21       1.0  0.75290  0.95592  0.55280  1.0000 0.1226143489
H   H22       1.0  0.04408  0.44720  0.24710  1.0000 0.1226143489
H   H23       1.0  0.44720  0.24710  0.04408  1.0000 0.1226143489
H   H24       1.0  0.24710  0.04408  0.44720  1.0000 0.1226143489
H   H25       1.0  0.39082  0.97150  0.38190  1.0000 0.13956098
H   H26       1.0  0.97150  0.38190  0.39082  1.0000 0.13956098
H   H27       1.0  0.38190  0.39082  0.97150  1.0000 0.13956098
H   H28       1.0  0.60918  0.02850  0.61810  1.0000 0.13956098
H   H29       1.0  0.02850  0.61810  0.60918  1.0000 0.13956098
H   H30       1.0  0.61810  0.60918  0.02850  1.0000 0.13956098
H   H31       1.0  0.17742  0.83670  0.17360  1.0000 0.1062707279
H   H32       1.0  0.83670  0.17360  0.17742  1.0000 0.1062707279
H   H33       1.0  0.17360  0.17742  0.83670  1.0000 0.1062707279
H   H34       1.0  0.82258  0.16330  0.82640  1.0000 0.1062707279
H   H35       1.0  0.16330  0.82640  0.82258  1.0000 0.1062707279
H   H36       1.0  0.82640  0.82258  0.16330  1.0000 0.1062707279
H   H37       1.0  0.34822  0.18630  0.39930  1.0000 0.1013593284
H   H38       1.0  0.18630  0.39930  0.34822  1.0000 0.1013593284
H   H39       1.0  0.39930  0.34822  0.18630  1.0000 0.1013593284
H   H40       1.0  0.65178  0.81370  0.60070  1.0000 0.1013593284
H   H41       1.0  0.81370  0.60070  0.65178  1.0000 0.1013593284
H   H42       1.0  0.60070  0.65178  0.81370  1.0000 0.1013593284
H   H43       1.0  0.57462  0.33960  0.61990  1.0000 0.1282483065
H   H44       1.0  0.33960  0.61990  0.57462  1.0000 0.1282483065
H   H45       1.0  0.61990  0.57462  0.33960  1.0000 0.1282483065
H   H46       1.0  0.42538  0.66040  0.38010  1.0000 0.1282483065
H   H47       1.0  0.66040  0.38010  0.42538  1.0000 0.1282483065
H   H48       1.0  0.38010  0.42538  0.66040  1.0000 0.1282483065
H   H49       1.0  0.16272  0.58630  0.85040  1.0000 0.13956098
H   H50       1.0  0.58630  0.85040  0.16272  1.0000 0.13956098
H   H51       1.0  0.85040  0.16272  0.58630  1.0000 0.13956098
H   H52       1.0  0.83728  0.41370  0.14960  1.0000 0.13956098
H   H53       1.0  0.41370  0.14960  0.83728  1.0000 0.13956098
H   H54       1.0  0.14960  0.83728  0.41370  1.0000 0.13956098
H   H55       1.0  0.26552  0.69100  0.83940  1.0000 0.1013593284
H   H56       1.0  0.69100  0.83940  0.26552  1.0000 0.1013593284
H   H57       1.0  0.83940  0.26552  0.69100  1.0000 0.1013593284
H   H58       1.0  0.73448  0.30900  0.16060  1.0000 0.1013593284
H   H59       1.0  0.30900  0.16060  0.73448  1.0000 0.1013593284
H   H60       1.0  0.16060  0.73448  0.30900  1.0000 0.1013593284
H   H61       1.0  0.44182  0.03800  0.13540  1.0000 0.1013593284
H   H62       1.0  0.03800  0.13540  0.44182  1.0000 0.1013593284
H   H63       1.0  0.13540  0.44182  0.03800  1.0000 0.1013593284
H   H64       1.0  0.55818  0.96200  0.86460  1.0000 0.1013593284
H   H65       1.0  0.96200  0.86460  0.55818  1.0000 0.1013593284
H   H66       1.0  0.86460  0.55818  0.96200  1.0000 0.1013593284
H   H67       1.0  0.34522  0.94460  0.15620  1.0000 0.13956098
H   H68       1.0  0.94460  0.15620  0.34522  1.0000 0.13956098
H   H69       1.0  0.15620  0.34522  0.94460  1.0000 0.13956098
H   H70       1.0  0.65478  0.05540  0.84380  1.0000 0.13956098
H   H71       1.0  0.05540  0.84380  0.65478  1.0000 0.13956098
H   H72       1.0  0.84380  0.65478  0.05540  1.0000 0.13956098
C   C1        1.0  0.73357  0.26187  0.86838  1.0000 0.1684040513
C   C2        1.0  0.26187  0.86838  0.73357  1.0000 0.1684040513
C   C3        1.0  0.86838  0.73357  0.26187  1.0000 0.1684040513
C   C4        1.0  0.26643  0.73813  0.13162  1.0000 0.1684040513
C   C5        1.0  0.73813  0.13162  0.26643  1.0000 0.1684040513
C   C6        1.0  0.13162  0.26643  0.73813  1.0000 0.1684040513
C   C7        1.0  0.41982  0.84560  0.24360  1.0000 -0.2002170707
C   C8        1.0  0.84560  0.24360  0.41982  1.0000 -0.2002170707
C   C9        1.0  0.24360  0.41982  0.84560  1.0000 -0.2002170707
C   C10       1.0  0.58018  0.15440  0.75640  1.0000 -0.2002170707
C   C11       1.0  0.15440  0.75640  0.58018  1.0000 -0.2002170707
C   C12       1.0  0.75640  0.58018  0.15440  1.0000 -0.2002170707
C   C13       1.0  0.46872  0.86000  0.33390  1.0000 -0.2058352307
C   C14       1.0  0.86000  0.33390  0.46872  1.0000 -0.2058352307
C   C15       1.0  0.33390  0.46872  0.86000  1.0000 -0.2058352307
C   C16       1.0  0.53128  0.14000  0.66610  1.0000 -0.2058352307
C   C17       1.0  0.14000  0.66610  0.53128  1.0000 -0.2058352307
C   C18       1.0  0.66610  0.53128  0.14000  1.0000 -0.2058352307
C   C19       1.0  0.34448  0.75999  0.27795  1.0000 0.1684040513
C   C20       1.0  0.75999  0.27795  0.34448  1.0000 0.1684040513
C   C21       1.0  0.27795  0.34448  0.75999  1.0000 0.1684040513
C   C22       1.0  0.65552  0.24001  0.72205  1.0000 0.1684040513
C   C23       1.0  0.24001  0.72205  0.65552  1.0000 0.1684040513
C   C24       1.0  0.72205  0.65552  0.24001  1.0000 0.1684040513
C   C25       1.0  0.34304  0.73151  0.33277  1.0000 -0.0910976375
C   C26       1.0  0.73151  0.33277  0.34304  1.0000 -0.0910976375
C   C27       1.0  0.33277  0.34304  0.73151  1.0000 -0.0910976375
C   C28       1.0  0.65696  0.26849  0.66723  1.0000 -0.0910976375
C   C29       1.0  0.26849  0.66723  0.65696  1.0000 -0.0910976375
C   C30       1.0  0.66723  0.65696  0.26849  1.0000 -0.0910976375
C   C31       1.0  0.21679  0.61897  0.26616  1.0000 0.1684040513
C   C32       1.0  0.61897  0.26616  0.21679  1.0000 0.1684040513
C   C33       1.0  0.26616  0.21679  0.61897  1.0000 0.1684040513
C   C34       1.0  0.78321  0.38103  0.73384  1.0000 0.1684040513
C   C35       1.0  0.38103  0.73384  0.78321  1.0000 0.1684040513
C   C36       1.0  0.73384  0.78321  0.38103  1.0000 0.1684040513
C   C37       1.0  0.78042  0.39970  0.66960  1.0000 -0.2058352307
C   C38       1.0  0.39970  0.66960  0.78042  1.0000 -0.2058352307
C   C39       1.0  0.66960  0.78042  0.39970  1.0000 -0.2058352307
C   C40       1.0  0.21958  0.60030  0.33040  1.0000 -0.2058352307
C   C41       1.0  0.60030  0.33040  0.21958  1.0000 -0.2058352307
C   C42       1.0  0.33040  0.21958  0.60030  1.0000 -0.2058352307
C   C43       1.0  0.92362  0.51530  0.76510  1.0000 -0.2002170707
C   C44       1.0  0.51530  0.76510  0.92362  1.0000 -0.2002170707
C   C45       1.0  0.76510  0.92362  0.51530  1.0000 -0.2002170707
C   C46       1.0  0.07638  0.48470  0.23490  1.0000 -0.2002170707
C   C47       1.0  0.48470  0.23490  0.07638  1.0000 -0.2002170707
C   C48       1.0  0.23490  0.07638  0.48470  1.0000 -0.2002170707
C   C49       1.0  0.01604  0.56898  0.88900  1.0000 0.1684040513
C   C50       1.0  0.56898  0.88900  0.01604  1.0000 0.1684040513
C   C51       1.0  0.88900  0.01604  0.56898  1.0000 0.1684040513
C   C52       1.0  0.98396  0.43102  0.11100  1.0000 0.1684040513
C   C53       1.0  0.43102  0.11100  0.98396  1.0000 0.1684040513
C   C54       1.0  0.11100  0.98396  0.43102  1.0000 0.1684040513
C   C55       1.0  0.82885  0.31574  0.98953  1.0000 -0.0910976375
C   C56       1.0  0.31574  0.98953  0.82885  1.0000 -0.0910976375
C   C57       1.0  0.98953  0.82885  0.31574  1.0000 -0.0910976375
C   C58       1.0  0.17115  0.68426  0.01047  1.0000 -0.0910976375
C   C59       1.0  0.68426  0.01047  0.17115  1.0000 -0.0910976375
C   C60       1.0  0.01047  0.17115  0.68426  1.0000 -0.0910976375
C   C61       1.0  0.51079  0.17318  0.52735  1.0000 0.1282483065
C   C62       1.0  0.17318  0.52735  0.51079  1.0000 0.1282483065
C   C63       1.0  0.52735  0.51079  0.17318  1.0000 0.1282483065
C   C64       1.0  0.48921  0.82682  0.47265  1.0000 0.1282483065
C   C65       1.0  0.82682  0.47265  0.48921  1.0000 0.1282483065
C   C66       1.0  0.47265  0.48921  0.82682  1.0000 0.1282483065
C   C67       1.0  0.38692  0.02000  0.38980  1.0000 -0.2002170707
C   C68       1.0  0.02000  0.38980  0.38692  1.0000 -0.2002170707
C   C69       1.0  0.38980  0.38692  0.02000  1.0000 -0.2002170707
C   C70       1.0  0.61308  0.98000  0.61020  1.0000 -0.2002170707
C   C71       1.0  0.98000  0.61020  0.61308  1.0000 -0.2002170707
C   C72       1.0  0.61020  0.61308  0.98000  1.0000 -0.2002170707
C   C73       1.0  0.25832  0.93940  0.26510  1.0000 0.0709929987
C   C74       1.0  0.93940  0.26510  0.25832  1.0000 0.0709929987
C   C75       1.0  0.26510  0.25832  0.93940  1.0000 0.0709929987
C   C76       1.0  0.74168  0.06060  0.73490  1.0000 0.0709929987
C   C77       1.0  0.06060  0.73490  0.74168  1.0000 0.0709929987
C   C78       1.0  0.73490  0.74168  0.06060  1.0000 0.0709929987
C   C79       1.0  0.35802  0.14290  0.39630  1.0000 0.0810488288
C   C80       1.0  0.14290  0.39630  0.35802  1.0000 0.0810488288
C   C81       1.0  0.39630  0.35802  0.14290  1.0000 0.0810488288
C   C82       1.0  0.64198  0.85710  0.60370  1.0000 0.0810488288
C   C83       1.0  0.85710  0.60370  0.64198  1.0000 0.0810488288
C   C84       1.0  0.60370  0.64198  0.85710  1.0000 0.0810488288
C   C85       1.0  0.49542  0.23690  0.53060  1.0000 -0.2058352307
C   C86       1.0  0.23690  0.53060  0.49542  1.0000 -0.2058352307
C   C87       1.0  0.53060  0.49542  0.23690  1.0000 -0.2058352307
C   C88       1.0  0.50458  0.76310  0.46940  1.0000 -0.2058352307
C   C89       1.0  0.76310  0.46940  0.50458  1.0000 -0.2058352307
C   C90       1.0  0.46940  0.50458  0.76310  1.0000 -0.2058352307
C   C91       1.0  0.75970  0.24774  0.99588  1.0000 0.1282483065
C   C92       1.0  0.24774  0.99588  0.75970  1.0000 0.1282483065
C   C93       1.0  0.99588  0.75970  0.24774  1.0000 0.1282483065
C   C94       1.0  0.24030  0.75226  0.00412  1.0000 0.1282483065
C   C95       1.0  0.75226  0.00412  0.24030  1.0000 0.1282483065
C   C96       1.0  0.00412  0.24030  0.75226  1.0000 0.1282483065
C   C97       1.0  0.78102  0.32130  0.09030  1.0000 -0.2002170707
C   C98       1.0  0.32130  0.09030  0.78102  1.0000 -0.2002170707
C   C99       1.0  0.09030  0.78102  0.32130  1.0000 -0.2002170707
C   C100      1.0  0.21898  0.67870  0.90970  1.0000 -0.2002170707
C   C101      1.0  0.67870  0.90970  0.21898  1.0000 -0.2002170707
C   C102      1.0  0.90970  0.21898  0.67870  1.0000 -0.2002170707
C   C103      1.0  0.71852  0.25740  0.09640  1.0000 0.0709929987
C   C104      1.0  0.25740  0.09640  0.71852  1.0000 0.0709929987
C   C105      1.0  0.09640  0.71852  0.25740  1.0000 0.0709929987
C   C106      1.0  0.28148  0.74260  0.90360  1.0000 0.0709929987
C   C107      1.0  0.74260  0.90360  0.28148  1.0000 0.0709929987
C   C108      1.0  0.90360  0.28148  0.74260  1.0000 0.0709929987
C   C109      1.0  0.38442  0.94540  0.07690  1.0000 0.0810488288
C   C110      1.0  0.94540  0.07690  0.38442  1.0000 0.0810488288
C   C111      1.0  0.07690  0.38442  0.94540  1.0000 0.0810488288
C   C112      1.0  0.61558  0.05460  0.92310  1.0000 0.0810488288
C   C113      1.0  0.05460  0.92310  0.61558  1.0000 0.0810488288
C   C114      1.0  0.92310  0.61558  0.05460  1.0000 0.0810488288
C   C115      1.0  0.32642  0.88990  0.09020  1.0000 -0.1922741956
C   C116      1.0  0.88990  0.09020  0.32642  1.0000 -0.1922741956
C   C117      1.0  0.09020  0.32642  0.88990  1.0000 -0.1922741956
C   C118      1.0  0.67358  0.11010  0.90980  1.0000 -0.1922741956
C   C119      1.0  0.11010  0.90980  0.67358  1.0000 -0.1922741956
C   C120      1.0  0.90980  0.67358  0.11010  1.0000 -0.1922741956
N   N1        1.0  0.77566  0.31012  0.84284  1.0000 -0.3764587368
N   N2        1.0  0.31012  0.84284  0.77566  1.0000 -0.3764587368
N   N3        1.0  0.84284  0.77566  0.31012  1.0000 -0.3764587368
N   N4        1.0  0.22434  0.68988  0.15716  1.0000 -0.3764587368
N   N5        1.0  0.68988  0.15716  0.22434  1.0000 -0.3764587368
N   N6        1.0  0.15716  0.22434  0.68988  1.0000 -0.3764587368
N   N7        1.0  0.07242  0.51346  0.13234  1.0000 -0.3708573903
N   N8        1.0  0.51346  0.13234  0.07242  1.0000 -0.3708573903
N   N9        1.0  0.13234  0.07242  0.51346  1.0000 -0.3708573903
N   N10       1.0  0.92758  0.48654  0.86766  1.0000 -0.3708573903
N   N11       1.0  0.48654  0.86766  0.92758  1.0000 -0.3708573903
N   N12       1.0  0.86766  0.92758  0.48654  1.0000 -0.3708573903
N   N13       1.0  0.24172  0.99780  0.26620  1.0000 -0.2531598385
N   N14       1.0  0.99780  0.26620  0.24172  1.0000 -0.2531598385
N   N15       1.0  0.26620  0.24172  0.99780  1.0000 -0.2531598385
N   N16       1.0  0.75828  0.00220  0.73380  1.0000 -0.2531598385
N   N17       1.0  0.00220  0.73380  0.75828  1.0000 -0.2531598385
N   N18       1.0  0.73380  0.75828  0.00220  1.0000 -0.2531598385
N   N19       1.0  0.63675  0.12522  0.01425  1.0000 -0.2156313087
N   N20       1.0  0.12522  0.01425  0.63675  1.0000 -0.2156313087
N   N21       1.0  0.01425  0.63675  0.12522  1.0000 -0.2156313087
N   N22       1.0  0.36325  0.87478  0.98575  1.0000 -0.2156313087
N   N23       1.0  0.87478  0.98575  0.36325  1.0000 -0.2156313087
N   N24       1.0  0.98575  0.36325  0.87478  1.0000 -0.2156313087
