# DDEC6 charges by PACMAN v1.1 (https://github.com/mtap-research/PACMAN-charge/)
data_2015[La][sra]3[FSR]1
_chemical_formula_sum              "La8 H88 C40 N16 O76"
_cell_length_a       12.7623
_cell_length_b       8.3831
_cell_length_c       24.0727
_cell_angle_alpha    90
_cell_angle_beta     105.891
_cell_angle_gamma    90

_symmetry_space_group_name_H-M    "P 1"
_symmetry_Int_Tables_number       1

loop_
  _symmetry_equiv_pos_as_xyz
  'x, y, z'

loop_
  _atom_site_type_symbol
  _atom_site_label
  _atom_site_symmetry_multiplicity
  _atom_site_fract_x
  _atom_site_fract_y
  _atom_site_fract_z
  _atom_site_occupancy
  _atom_site_charge
La  La1       1.0  0.78122  0.71699  0.87480  1.0000 1.5996018423
La  La2       1.0  0.21878  0.21699  0.62520  1.0000 1.5996018423
La  La3       1.0  0.21878  0.28301  0.12520  1.0000 1.5996018423
La  La4       1.0  0.78122  0.78301  0.37480  1.0000 1.5996018423
La  La5       1.0  0.71045  0.00943  0.61685  1.0000 1.9097394122
La  La6       1.0  0.28955  0.50943  0.88315  1.0000 1.9097394122
La  La7       1.0  0.28955  0.99057  0.38315  1.0000 1.9097394122
La  La8       1.0  0.71045  0.49057  0.11685  1.0000 1.9097394122
H   H1        1.0  0.77640  0.48280  0.73820  1.0000 0.1405527009
H   H2        1.0  0.22360  0.98280  0.76180  1.0000 0.1405527009
H   H3        1.0  0.22360  0.51720  0.26180  1.0000 0.1405527009
H   H4        1.0  0.77640  0.01720  0.23820  1.0000 0.1405527009
H   H5        1.0  0.65290  0.50680  0.70040  1.0000 0.1405527009
H   H6        1.0  0.34710  0.00680  0.79960  1.0000 0.1405527009
H   H7        1.0  0.34710  0.49320  0.29960  1.0000 0.1405527009
H   H8        1.0  0.65290  0.99320  0.20040  1.0000 0.1405527009
H   H9        1.0  0.54780  0.67510  0.75360  1.0000 0.1405527009
H   H10       1.0  0.45220  0.17510  0.74640  1.0000 0.1405527009
H   H11       1.0  0.45220  0.32490  0.24640  1.0000 0.1405527009
H   H12       1.0  0.54780  0.82490  0.25360  1.0000 0.1405527009
H   H13       1.0  0.50930  0.49250  0.74800  1.0000 0.1405527009
H   H14       1.0  0.49070  0.99250  0.75200  1.0000 0.1405527009
H   H15       1.0  0.49070  0.50750  0.25200  1.0000 0.1405527009
H   H16       1.0  0.50930  0.00750  0.24800  1.0000 0.1405527009
H   H17       1.0  0.97650  0.44060  0.95110  1.0000 0.1494323846
H   H18       1.0  0.02350  0.94060  0.54890  1.0000 0.1494323846
H   H19       1.0  0.02350  0.55940  0.04890  1.0000 0.1494323846
H   H20       1.0  0.97650  0.05940  0.45110  1.0000 0.1494323846
H   H21       1.0  0.97820  0.28770  0.91130  1.0000 0.1494323846
H   H22       1.0  0.02180  0.78770  0.58870  1.0000 0.1494323846
H   H23       1.0  0.02180  0.71230  0.08870  1.0000 0.1494323846
H   H24       1.0  0.97820  0.21230  0.41130  1.0000 0.1494323846
H   H25       1.0  0.71310  0.28500  0.91830  1.0000 0.1405527009
H   H26       1.0  0.28690  0.78500  0.58170  1.0000 0.1405527009
H   H27       1.0  0.28690  0.71500  0.08170  1.0000 0.1405527009
H   H28       1.0  0.71310  0.21500  0.41830  1.0000 0.1405527009
H   H29       1.0  0.83340  0.24770  0.95760  1.0000 0.1494323846
H   H30       1.0  0.16660  0.74770  0.54240  1.0000 0.1494323846
H   H31       1.0  0.16660  0.75230  0.04240  1.0000 0.1494323846
H   H32       1.0  0.83340  0.25230  0.45760  1.0000 0.1494323846
H   H33       1.0  0.62870  0.32650  0.82730  1.0000 0.1099269612
H   H34       1.0  0.37130  0.82650  0.67270  1.0000 0.1099269612
H   H35       1.0  0.37130  0.67350  0.17270  1.0000 0.1099269612
H   H36       1.0  0.62870  0.17350  0.32730  1.0000 0.1099269612
H   H37       1.0  0.65750  0.28150  0.76850  1.0000 0.1214693933
H   H38       1.0  0.34250  0.78150  0.73150  1.0000 0.1214693933
H   H39       1.0  0.34250  0.71850  0.23150  1.0000 0.1214693933
H   H40       1.0  0.65750  0.21850  0.26850  1.0000 0.1214693933
H   H41       1.0  0.84490  0.32550  0.81370  1.0000 0.1012704893
H   H42       1.0  0.15510  0.82550  0.68630  1.0000 0.1012704893
H   H43       1.0  0.15510  0.67450  0.18630  1.0000 0.1012704893
H   H44       1.0  0.84490  0.17450  0.31370  1.0000 0.1012704893
H   H45       1.0  0.79780  0.19050  0.84730  1.0000 0.1214693933
H   H46       1.0  0.20220  0.69050  0.65270  1.0000 0.1214693933
H   H47       1.0  0.20220  0.80950  0.15270  1.0000 0.1214693933
H   H48       1.0  0.79780  0.30950  0.34730  1.0000 0.1214693933
H   H49       1.0  0.79560  0.01350  0.74470  1.0000 0.3703882954
H   H50       1.0  0.20440  0.51350  0.75530  1.0000 0.3703882954
H   H51       1.0  0.20440  0.98650  0.25530  1.0000 0.3703882954
H   H52       1.0  0.79560  0.48650  0.24470  1.0000 0.3703882954
H   H53       1.0  0.56140  0.28320  0.55240  1.0000 0.2921234442
H   H54       1.0  0.43860  0.78320  0.94760  1.0000 0.2921234442
H   H55       1.0  0.43860  0.71680  0.44760  1.0000 0.2921234442
H   H56       1.0  0.56140  0.21680  0.05240  1.0000 0.2921234442
H   H57       1.0  0.50220  0.18290  0.57440  1.0000 0.3208924009
H   H58       1.0  0.49780  0.68290  0.92560  1.0000 0.3208924009
H   H59       1.0  0.49780  0.81710  0.42560  1.0000 0.3208924009
H   H60       1.0  0.50220  0.31710  0.07440  1.0000 0.3208924009
H   H61       1.0  0.79250  0.72560  0.58960  1.0000 0.3273829891
H   H62       1.0  0.20750  0.22560  0.91040  1.0000 0.3273829891
H   H63       1.0  0.20750  0.27440  0.41040  1.0000 0.3273829891
H   H64       1.0  0.79250  0.77440  0.08960  1.0000 0.3273829891
H   H65       1.0  0.77190  0.78080  0.53260  1.0000 0.3703882954
H   H66       1.0  0.22810  0.28080  0.96740  1.0000 0.3703882954
H   H67       1.0  0.22810  0.21920  0.46740  1.0000 0.3703882954
H   H68       1.0  0.77190  0.71920  0.03260  1.0000 0.3703882954
H   H69       1.0  0.74380  0.34630  0.58820  1.0000 0.3467420115
H   H70       1.0  0.25620  0.84630  0.91180  1.0000 0.3467420115
H   H71       1.0  0.25620  0.65370  0.41180  1.0000 0.3467420115
H   H72       1.0  0.74380  0.15370  0.08820  1.0000 0.3467420115
H   H73       1.0  0.53560  0.75540  0.57900  1.0000 0.3879554941
H   H74       1.0  0.46440  0.25540  0.92100  1.0000 0.3879554941
H   H75       1.0  0.46440  0.24460  0.42100  1.0000 0.3879554941
H   H76       1.0  0.53560  0.74460  0.07900  1.0000 0.3879554941
H   H77       1.0  0.52400  0.85090  0.52760  1.0000 0.3778949155
H   H78       1.0  0.47600  0.35090  0.97240  1.0000 0.3778949155
H   H79       1.0  0.47600  0.14910  0.47240  1.0000 0.3778949155
H   H80       1.0  0.52400  0.64910  0.02760  1.0000 0.3778949155
H   H81       1.0  0.86120  0.13500  0.73420  1.0000 0.3467420115
H   H82       1.0  0.13880  0.63500  0.76580  1.0000 0.3467420115
H   H83       1.0  0.13880  0.86500  0.26580  1.0000 0.3467420115
H   H84       1.0  0.86120  0.36500  0.23420  1.0000 0.3467420115
H   H85       1.0  0.82220  0.35900  0.64120  1.0000 0.3596304356
H   H86       1.0  0.17780  0.85900  0.85880  1.0000 0.3596304356
H   H87       1.0  0.17780  0.64100  0.35880  1.0000 0.3596304356
H   H88       1.0  0.82220  0.14100  0.14120  1.0000 0.3596304356
C   C1        1.0  0.70908  0.54520  0.73488  1.0000 -0.2808700727
C   C2        1.0  0.29092  0.04520  0.76512  1.0000 -0.2808700727
C   C3        1.0  0.29092  0.45480  0.26512  1.0000 -0.2808700727
C   C4        1.0  0.70908  0.95480  0.23488  1.0000 -0.2808700727
C   C5        1.0  0.73171  0.72060  0.72721  1.0000 0.6500412522
C   C6        1.0  0.26829  0.22060  0.77279  1.0000 0.6500412522
C   C7        1.0  0.26829  0.27940  0.27279  1.0000 0.6500412522
C   C8        1.0  0.73171  0.77940  0.22721  1.0000 0.6500412522
C   C9        1.0  0.55638  0.57120  0.77388  1.0000 -0.2921991349
C   C10       1.0  0.44362  0.07120  0.72612  1.0000 -0.2921991349
C   C11       1.0  0.44362  0.42880  0.22612  1.0000 -0.2921991349
C   C12       1.0  0.55638  0.92880  0.27388  1.0000 -0.2921991349
C   C13       1.0  0.52047  0.58750  0.82877  1.0000 0.6358774676
C   C14       1.0  0.47953  0.08750  0.67123  1.0000 0.6358774676
C   C15       1.0  0.47953  0.41250  0.17123  1.0000 0.6358774676
C   C16       1.0  0.52047  0.91250  0.32877  1.0000 0.6358774676
C   C17       1.0  0.95140  0.39860  0.91120  1.0000 -0.2921991349
C   C18       1.0  0.04860  0.89860  0.58880  1.0000 -0.2921991349
C   C19       1.0  0.04860  0.60140  0.08880  1.0000 -0.2921991349
C   C20       1.0  0.95140  0.10140  0.41120  1.0000 -0.2921991349
C   C21       1.0  0.99769  0.50070  0.87109  1.0000 0.6500412522
C   C22       1.0  0.00231  0.00070  0.62891  1.0000 0.6500412522
C   C23       1.0  0.00231  0.49930  0.12891  1.0000 0.6500412522
C   C24       1.0  0.99769  0.99930  0.37109  1.0000 0.6500412522
C   C25       1.0  0.78475  0.33350  0.93695  1.0000 -0.2808700727
C   C26       1.0  0.21525  0.83350  0.56305  1.0000 -0.2808700727
C   C27       1.0  0.21525  0.66650  0.06305  1.0000 -0.2808700727
C   C28       1.0  0.78475  0.16650  0.43695  1.0000 -0.2808700727
C   C29       1.0  0.77055  0.45720  0.98095  1.0000 0.6557966693
C   C30       1.0  0.22945  0.95720  0.51905  1.0000 0.6557966693
C   C31       1.0  0.22945  0.54280  0.01905  1.0000 0.6557966693
C   C32       1.0  0.77055  0.04280  0.48095  1.0000 0.6557966693
C   C33       1.0  0.67940  0.34860  0.80360  1.0000 -0.1374657584
C   C34       1.0  0.32060  0.84860  0.69640  1.0000 -0.1374657584
C   C35       1.0  0.32060  0.65140  0.19640  1.0000 -0.1374657584
C   C36       1.0  0.67940  0.15140  0.30360  1.0000 -0.1374657584
C   C37       1.0  0.79454  0.30550  0.83774  1.0000 -0.1374657584
C   C38       1.0  0.20546  0.80550  0.66226  1.0000 -0.1374657584
C   C39       1.0  0.20546  0.69450  0.16226  1.0000 -0.1374657584
C   C40       1.0  0.79454  0.19450  0.33774  1.0000 -0.1374657584
N   N1        1.0  0.67137  0.51940  0.78667  1.0000 -0.0859778599
N   N2        1.0  0.32863  0.01940  0.71333  1.0000 -0.0859778599
N   N3        1.0  0.32863  0.48060  0.21333  1.0000 -0.0859778599
N   N4        1.0  0.67137  0.98060  0.28667  1.0000 -0.0859778599
N   N5        1.0  0.83046  0.39960  0.89186  1.0000 -0.0723825769
N   N6        1.0  0.16954  0.89960  0.60814  1.0000 -0.0723825769
N   N7        1.0  0.16954  0.60040  0.10814  1.0000 -0.0723825769
N   N8        1.0  0.83046  0.10040  0.39186  1.0000 -0.0723825769
N   N9        1.0  0.62921  0.99090  0.88681  1.0000 0.6872863544
N   N10       1.0  0.37079  0.49090  0.61319  1.0000 0.6872863544
N   N11       1.0  0.37079  0.00910  0.11319  1.0000 0.6872863544
N   N12       1.0  0.62921  0.50910  0.38681  1.0000 0.6872863544
N   N13       1.0  0.99094  0.90020  0.93454  1.0000 0.6984543128
N   N14       1.0  0.00906  0.40020  0.56546  1.0000 0.6984543128
N   N15       1.0  0.00906  0.09980  0.06546  1.0000 0.6984543128
N   N16       1.0  0.99094  0.59980  0.43454  1.0000 0.6984543128
O   O1        1.0  0.76017  0.80700  0.77167  1.0000 -0.5626225174
O   O2        1.0  0.23983  0.30700  0.72833  1.0000 -0.5626225174
O   O3        1.0  0.23983  0.19300  0.22833  1.0000 -0.5626225174
O   O4        1.0  0.76017  0.69300  0.27167  1.0000 -0.5626225174
O   O5        1.0  0.72206  0.76680  0.67666  1.0000 -0.6456437336
O   O6        1.0  0.27794  0.26680  0.82334  1.0000 -0.6447338687
O   O7        1.0  0.27794  0.23320  0.32334  1.0000 -0.6447338687
O   O8        1.0  0.72206  0.73320  0.17666  1.0000 -0.6456437336
O   O9        1.0  0.59094  0.63190  0.87404  1.0000 -0.5839549528
O   O10       1.0  0.40906  0.13190  0.62596  1.0000 -0.5839549528
O   O11       1.0  0.40906  0.36810  0.12596  1.0000 -0.5839549528
O   O12       1.0  0.59094  0.86810  0.37404  1.0000 -0.5839549528
O   O13       1.0  0.42357  0.55920  0.82577  1.0000 -0.6003415511
O   O14       1.0  0.57643  0.05920  0.67423  1.0000 -0.6003415511
O   O15       1.0  0.57643  0.44080  0.17423  1.0000 -0.6003415511
O   O16       1.0  0.42357  0.94080  0.32577  1.0000 -0.6003415511
O   O17       1.0  0.93789  0.61100  0.84329  1.0000 -0.586089872
O   O18       1.0  0.06211  0.11100  0.65671  1.0000 -0.586089872
O   O19       1.0  0.06211  0.38900  0.15671  1.0000 -0.586089872
O   O20       1.0  0.93789  0.88900  0.34329  1.0000 -0.586089872
O   O21       1.0  0.09091  0.47040  0.86771  1.0000 -0.6447338687
O   O22       1.0  0.90909  0.97040  0.63229  1.0000 -0.6447338687
O   O23       1.0  0.90909  0.52960  0.13229  1.0000 -0.6447338687
O   O24       1.0  0.09091  0.02960  0.36771  1.0000 -0.6447338687
O   O25       1.0  0.79029  0.60110  0.97199  1.0000 -0.5626225174
O   O26       1.0  0.20971  0.10110  0.52801  1.0000 -0.5626225174
O   O27       1.0  0.20971  0.39890  0.02801  1.0000 -0.5626225174
O   O28       1.0  0.79029  0.89890  0.47199  1.0000 -0.5626225174
O   O29       1.0  0.73784  0.40740  0.02194  1.0000 -0.6295711549
O   O30       1.0  0.26216  0.90740  0.47806  1.0000 -0.6295711549
O   O31       1.0  0.26216  0.59260  0.97806  1.0000 -0.6295711549
O   O32       1.0  0.73784  0.09260  0.52194  1.0000 -0.6295711549
O   O33       1.0  0.69205  0.93270  0.93205  1.0000 -0.4413043808
O   O34       1.0  0.30795  0.43270  0.56795  1.0000 -0.4413043808
O   O35       1.0  0.30795  0.06730  0.06795  1.0000 -0.4413043808
O   O36       1.0  0.69205  0.56730  0.43205  1.0000 -0.4413043808
O   O37       1.0  0.64609  0.95800  0.83919  1.0000 -0.4413043808
O   O38       1.0  0.35391  0.45800  0.66081  1.0000 -0.4413043808
O   O39       1.0  0.35391  0.04200  0.16081  1.0000 -0.4413043808
O   O40       1.0  0.64609  0.54200  0.33919  1.0000 -0.4413043808
O   O41       1.0  0.55273  0.07890  0.88893  1.0000 -0.4122752399
O   O42       1.0  0.44727  0.57890  0.61107  1.0000 -0.4122752399
O   O43       1.0  0.44727  0.92110  0.11107  1.0000 -0.4122752399
O   O44       1.0  0.55273  0.42110  0.38893  1.0000 -0.4122752399
O   O45       1.0  0.92367  0.95240  0.88767  1.0000 -0.4970099629
O   O46       1.0  0.07633  0.45240  0.61233  1.0000 -0.4970099629
O   O47       1.0  0.07633  0.04760  0.11233  1.0000 -0.4970099629
O   O48       1.0  0.92367  0.54760  0.38767  1.0000 -0.4970099629
O   O49       1.0  0.96290  0.77630  0.95590  1.0000 -0.4413043808
O   O50       1.0  0.03710  0.27630  0.54410  1.0000 -0.4413043808
O   O51       1.0  0.03710  0.22370  0.04410  1.0000 -0.4413043808
O   O52       1.0  0.96290  0.72370  0.45590  1.0000 -0.4413043808
O   O53       1.0  0.07740  0.96810  0.95590  1.0000 -0.3984245137
O   O54       1.0  0.92260  0.46810  0.54410  1.0000 -0.3984245137
O   O55       1.0  0.92260  0.03190  0.04410  1.0000 -0.3984245137
O   O56       1.0  0.07740  0.53190  0.45590  1.0000 -0.3984245137
O   O57       1.0  0.79873  0.09250  0.72143  1.0000 -0.7341139392
O   O58       1.0  0.20127  0.59250  0.77857  1.0000 -0.7341139392
O   O59       1.0  0.20127  0.90750  0.27857  1.0000 -0.7341139392
O   O60       1.0  0.79873  0.40750  0.22143  1.0000 -0.7341139392
O   O61       1.0  0.54641  0.18880  0.55611  1.0000 -0.6979657636
O   O62       1.0  0.45359  0.68880  0.94389  1.0000 -0.6979657636
O   O63       1.0  0.45359  0.81120  0.44389  1.0000 -0.6979657636
O   O64       1.0  0.54641  0.31120  0.05611  1.0000 -0.6979657636
O   O65       1.0  0.75394  0.74960  0.56544  1.0000 -0.6295711549
O   O66       1.0  0.24606  0.24960  0.93456  1.0000 -0.6295711549
O   O67       1.0  0.24606  0.25040  0.43456  1.0000 -0.6295711549
O   O68       1.0  0.75394  0.75040  0.06544  1.0000 -0.6295711549
O   O69       1.0  0.77320  0.29930  0.62170  1.0000 -0.7408159749
O   O70       1.0  0.22680  0.79930  0.87830  1.0000 -0.7408159749
O   O71       1.0  0.22680  0.70070  0.37830  1.0000 -0.7408159749
O   O72       1.0  0.77320  0.20070  0.12170  1.0000 -0.7408159749
O   O73       1.0  0.53238  0.85480  0.56558  1.0000 -0.7635304557
O   O74       1.0  0.46762  0.35480  0.93442  1.0000 -0.7635304557
O   O75       1.0  0.46762  0.14520  0.43442  1.0000 -0.7635304557
O   O76       1.0  0.53238  0.64520  0.06558  1.0000 -0.7635304557
