# DDEC6 charges by PACMAN v1.1 (https://github.com/mtap-research/PACMAN-charge/)
data_2015[Cd][pcu]3[FSR]6
_chemical_formula_sum              "Cd8 H120 C108 N24 O40"
_cell_length_a       14.877
_cell_length_b       16.998
_cell_length_c       17.2373
_cell_angle_alpha    90
_cell_angle_beta     120.383
_cell_angle_gamma    90

_symmetry_space_group_name_H-M    "P 1"
_symmetry_Int_Tables_number       1

loop_
  _symmetry_equiv_pos_as_xyz
  'x, y, z'

loop_
  _atom_site_type_symbol
  _atom_site_label
  _atom_site_symmetry_multiplicity
  _atom_site_fract_x
  _atom_site_fract_y
  _atom_site_fract_z
  _atom_site_occupancy
  _atom_site_charge
Cd  Cd1       1.0  0.68318  0.80398  0.30127  1.0000 0.904357253
Cd  Cd2       1.0  0.31682  0.30398  0.19873  1.0000 0.904357253
Cd  Cd3       1.0  0.85373  0.77705  0.18731  1.0000 0.8456760183
Cd  Cd4       1.0  0.14627  0.27705  0.31269  1.0000 0.8456760183
Cd  Cd5       1.0  0.31682  0.19602  0.69873  1.0000 0.904357253
Cd  Cd6       1.0  0.68318  0.69602  0.80127  1.0000 0.904357253
Cd  Cd7       1.0  0.14627  0.22295  0.81269  1.0000 0.8456760183
Cd  Cd8       1.0  0.85373  0.72295  0.68731  1.0000 0.8456760183
H   H1        1.0  0.80300  0.89600  0.40300  1.0000 0.330724316
H   H2        1.0  0.19700  0.39600  0.09700  1.0000 0.330724316
H   H3        1.0  0.80200  0.86600  0.48000  1.0000 0.3727481648
H   H4        1.0  0.19800  0.36600  0.02000  1.0000 0.3727481648
H   H5        1.0  0.73980  0.83800  0.00480  1.0000 0.354342027
H   H6        1.0  0.26020  0.33800  0.49520  1.0000 0.354342027
H   H7        1.0  0.74620  0.88100  0.07620  1.0000 0.330724316
H   H8        1.0  0.25380  0.38100  0.42380  1.0000 0.330724316
H   H9        1.0  0.28360  0.42490  0.74510  1.0000 0.1296960829
H   H10       1.0  0.71640  0.92490  0.75490  1.0000 0.1296960829
H   H11       1.0  0.20480  0.43470  0.77960  1.0000 0.1296960829
H   H12       1.0  0.79520  0.93470  0.72040  1.0000 0.1296960829
H   H13       1.0  0.24080  0.48320  0.60340  1.0000 0.1296960829
H   H14       1.0  0.75920  0.98320  0.89660  1.0000 0.1296960829
H   H15       1.0  0.13600  0.56400  0.48130  1.0000 0.1296960829
H   H16       1.0  0.86400  0.06400  0.01870  1.0000 0.1296960829
H   H17       1.0  0.98100  0.63080  0.60340  1.0000 0.1296960829
H   H18       1.0  0.01900  0.13080  0.89660  1.0000 0.1296960829
H   H19       1.0  0.08580  0.55110  0.72450  1.0000 0.139111685
H   H20       1.0  0.91420  0.05110  0.77550  1.0000 0.139111685
H   H21       1.0  0.39530  0.55600  0.77250  1.0000 0.1296960829
H   H22       1.0  0.60470  0.05600  0.72750  1.0000 0.1296960829
H   H23       1.0  0.51290  0.63870  0.88530  1.0000 0.1296960829
H   H24       1.0  0.48710  0.13870  0.61470  1.0000 0.1296960829
H   H25       1.0  0.39760  0.56960  0.04110  1.0000 0.139111685
H   H26       1.0  0.60240  0.06960  0.45890  1.0000 0.139111685
H   H27       1.0  0.27740  0.49180  0.92440  1.0000 0.1296960829
H   H28       1.0  0.72260  0.99180  0.57560  1.0000 0.1296960829
H   H29       1.0  0.85820  0.67830  0.47400  1.0000 0.120422643
H   H30       1.0  0.14180  0.17830  0.02600  1.0000 0.120422643
H   H31       1.0  0.04200  0.66060  0.37380  1.0000 0.1296960829
H   H32       1.0  0.95800  0.16060  0.12620  1.0000 0.1296960829
H   H33       1.0  0.47870  0.69500  0.12140  1.0000 0.1453993007
H   H34       1.0  0.52130  0.19500  0.37860  1.0000 0.1453993007
H   H35       1.0  0.66400  0.66260  0.02330  1.0000 0.1296960829
H   H36       1.0  0.33600  0.16260  0.47670  1.0000 0.1296960829
H   H37       1.0  0.46170  0.70340  0.39750  1.0000 0.1296960829
H   H38       1.0  0.53830  0.20340  0.10250  1.0000 0.1296960829
H   H39       1.0  0.55050  0.64040  0.44220  1.0000 0.1091960641
H   H40       1.0  0.44950  0.14040  0.05780  1.0000 0.1091960641
H   H41       1.0  0.39240  0.57790  0.34310  1.0000 0.0989932142
H   H42       1.0  0.60760  0.07790  0.15690  1.0000 0.0989932142
H   H43       1.0  0.37970  0.63050  0.26340  1.0000 0.0989932142
H   H44       1.0  0.62030  0.13050  0.23660  1.0000 0.0989932142
H   H45       1.0  0.54020  0.51840  0.35100  1.0000 0.120422643
H   H46       1.0  0.45980  0.01840  0.14900  1.0000 0.120422643
H   H47       1.0  0.52280  0.56920  0.26850  1.0000 0.120422643
H   H48       1.0  0.47720  0.06920  0.23150  1.0000 0.120422643
H   H49       1.0  0.99750  0.60830  0.05860  1.0000 0.120422643
H   H50       1.0  0.00250  0.10830  0.44140  1.0000 0.120422643
H   H51       1.0  0.09760  0.64340  0.14190  1.0000 0.139111685
H   H52       1.0  0.90240  0.14340  0.35810  1.0000 0.139111685
H   H53       1.0  0.97630  0.52080  0.15100  1.0000 0.0989932142
H   H54       1.0  0.02370  0.02080  0.34900  1.0000 0.0989932142
H   H55       1.0  0.07140  0.55790  0.23620  1.0000 0.0949491992
H   H56       1.0  0.92860  0.05790  0.26380  1.0000 0.0949491992
H   H57       1.0  0.18260  0.51190  0.18790  1.0000 0.1453993007
H   H58       1.0  0.81740  0.01190  0.31210  1.0000 0.1453993007
H   H59       1.0  0.08740  0.47410  0.10340  1.0000 0.1296960829
H   H60       1.0  0.91260  0.97410  0.39660  1.0000 0.1296960829
H   H61       1.0  0.19700  0.10400  0.59700  1.0000 0.330724316
H   H62       1.0  0.80300  0.60400  0.90300  1.0000 0.330724316
H   H63       1.0  0.19800  0.13400  0.52000  1.0000 0.3727481648
H   H64       1.0  0.80200  0.63400  0.98000  1.0000 0.3727481648
H   H65       1.0  0.26020  0.16200  0.99520  1.0000 0.354342027
H   H66       1.0  0.73980  0.66200  0.50480  1.0000 0.354342027
H   H67       1.0  0.25380  0.11900  0.92380  1.0000 0.330724316
H   H68       1.0  0.74620  0.61900  0.57620  1.0000 0.330724316
H   H69       1.0  0.71640  0.57510  0.25490  1.0000 0.1296960829
H   H70       1.0  0.28360  0.07510  0.24510  1.0000 0.1296960829
H   H71       1.0  0.79520  0.56530  0.22040  1.0000 0.1296960829
H   H72       1.0  0.20480  0.06530  0.27960  1.0000 0.1296960829
H   H73       1.0  0.75920  0.51680  0.39660  1.0000 0.1296960829
H   H74       1.0  0.24080  0.01680  0.10340  1.0000 0.1296960829
H   H75       1.0  0.86400  0.43600  0.51870  1.0000 0.1296960829
H   H76       1.0  0.13600  0.93600  0.98130  1.0000 0.1296960829
H   H77       1.0  0.01900  0.36920  0.39660  1.0000 0.1296960829
H   H78       1.0  0.98100  0.86920  0.10340  1.0000 0.1296960829
H   H79       1.0  0.91420  0.44890  0.27550  1.0000 0.139111685
H   H80       1.0  0.08580  0.94890  0.22450  1.0000 0.139111685
H   H81       1.0  0.60470  0.44400  0.22750  1.0000 0.1296960829
H   H82       1.0  0.39530  0.94400  0.27250  1.0000 0.1296960829
H   H83       1.0  0.48710  0.36130  0.11470  1.0000 0.1296960829
H   H84       1.0  0.51290  0.86130  0.38530  1.0000 0.1296960829
H   H85       1.0  0.60240  0.43040  0.95890  1.0000 0.139111685
H   H86       1.0  0.39760  0.93040  0.54110  1.0000 0.139111685
H   H87       1.0  0.72260  0.50820  0.07560  1.0000 0.1296960829
H   H88       1.0  0.27740  0.00820  0.42440  1.0000 0.1296960829
H   H89       1.0  0.14180  0.32170  0.52600  1.0000 0.120422643
H   H90       1.0  0.85820  0.82170  0.97400  1.0000 0.120422643
H   H91       1.0  0.95800  0.33940  0.62620  1.0000 0.1296960829
H   H92       1.0  0.04200  0.83940  0.87380  1.0000 0.1296960829
H   H93       1.0  0.52130  0.30500  0.87860  1.0000 0.1453993007
H   H94       1.0  0.47870  0.80500  0.62140  1.0000 0.1453993007
H   H95       1.0  0.33600  0.33740  0.97670  1.0000 0.1296960829
H   H96       1.0  0.66400  0.83740  0.52330  1.0000 0.1296960829
H   H97       1.0  0.53830  0.29660  0.60250  1.0000 0.1296960829
H   H98       1.0  0.46170  0.79660  0.89750  1.0000 0.1296960829
H   H99       1.0  0.44950  0.35960  0.55780  1.0000 0.1091960641
H   H100      1.0  0.55050  0.85960  0.94220  1.0000 0.1091960641
H   H101      1.0  0.60760  0.42210  0.65690  1.0000 0.0989932142
H   H102      1.0  0.39240  0.92210  0.84310  1.0000 0.0989932142
H   H103      1.0  0.62030  0.36950  0.73660  1.0000 0.0989932142
H   H104      1.0  0.37970  0.86950  0.76340  1.0000 0.0989932142
H   H105      1.0  0.45980  0.48160  0.64900  1.0000 0.120422643
H   H106      1.0  0.54020  0.98160  0.85100  1.0000 0.120422643
H   H107      1.0  0.47720  0.43080  0.73150  1.0000 0.120422643
H   H108      1.0  0.52280  0.93080  0.76850  1.0000 0.120422643
H   H109      1.0  0.00250  0.39170  0.94140  1.0000 0.120422643
H   H110      1.0  0.99750  0.89170  0.55860  1.0000 0.120422643
H   H111      1.0  0.90240  0.35660  0.85810  1.0000 0.139111685
H   H112      1.0  0.09760  0.85660  0.64190  1.0000 0.139111685
H   H113      1.0  0.02370  0.47920  0.84900  1.0000 0.0989932142
H   H114      1.0  0.97630  0.97920  0.65100  1.0000 0.0989932142
H   H115      1.0  0.92860  0.44210  0.76380  1.0000 0.0949491992
H   H116      1.0  0.07140  0.94210  0.73620  1.0000 0.0949491992
H   H117      1.0  0.81740  0.48810  0.81210  1.0000 0.1453993007
H   H118      1.0  0.18260  0.98810  0.68790  1.0000 0.1453993007
H   H119      1.0  0.91260  0.52590  0.89660  1.0000 0.1296960829
H   H120      1.0  0.08740  0.02590  0.60340  1.0000 0.1296960829
C   C1        1.0  0.24640  0.46310  0.76000  1.0000 -0.3232448861
C   C2        1.0  0.75360  0.96310  0.74000  1.0000 -0.3232448861
C   C3        1.0  0.17550  0.51080  0.67750  1.0000 0.1296960829
C   C4        1.0  0.82450  0.01080  0.82250  1.0000 0.1296960829
C   C5        1.0  0.18910  0.51340  0.60390  1.0000 -0.1516031266
C   C6        1.0  0.81090  0.01340  0.89610  1.0000 -0.1516031266
C   C7        1.0  0.12540  0.56120  0.53000  1.0000 -0.1805582043
C   C8        1.0  0.87460  0.06120  0.97000  1.0000 -0.1805582043
C   C9        1.0  0.04750  0.60380  0.53020  1.0000 0.139111685
C   C10       1.0  0.95250  0.10380  0.96980  1.0000 0.139111685
C   C11       1.0  0.03320  0.60100  0.60310  1.0000 -0.1557304427
C   C12       1.0  0.96680  0.10100  0.89690  1.0000 -0.1557304427
C   C13       1.0  0.09670  0.55380  0.67600  1.0000 -0.1266535033
C   C14       1.0  0.90330  0.05380  0.82400  1.0000 -0.1266535033
C   C15       1.0  0.32430  0.51530  0.83620  1.0000 0.1296960829
C   C16       1.0  0.67570  0.01530  0.66380  1.0000 0.1296960829
C   C17       1.0  0.39490  0.55930  0.82620  1.0000 -0.1266535033
C   C18       1.0  0.60510  0.05930  0.67380  1.0000 -0.1266535033
C   C19       1.0  0.46620  0.60870  0.89360  1.0000 -0.1516031266
C   C20       1.0  0.53380  0.10870  0.60640  1.0000 -0.1516031266
C   C21       1.0  0.46550  0.61190  0.97410  1.0000 0.139111685
C   C22       1.0  0.53450  0.11190  0.52590  1.0000 0.139111685
C   C23       1.0  0.39670  0.56790  0.98680  1.0000 -0.1680999972
C   C24       1.0  0.60330  0.06790  0.51320  1.0000 -0.1680999972
C   C25       1.0  0.32550  0.52070  0.91680  1.0000 -0.1516031266
C   C26       1.0  0.67450  0.02070  0.58320  1.0000 -0.1516031266
C   C27       1.0  0.88600  0.68330  0.43660  1.0000 0.0989932142
C   C28       1.0  0.11400  0.18330  0.06340  1.0000 0.0989932142
C   C29       1.0  0.98650  0.67360  0.38180  1.0000 0.1091960641
C   C30       1.0  0.01350  0.17360  0.11820  1.0000 0.1091960641
C   C31       1.0  0.53580  0.69740  0.11310  1.0000 0.1091960641
C   C32       1.0  0.46420  0.19740  0.38690  1.0000 0.1091960641
C   C33       1.0  0.63760  0.67940  0.05920  1.0000 0.0989932142
C   C34       1.0  0.36240  0.17940  0.44080  1.0000 0.0989932142
C   C35       1.0  0.56510  0.71040  0.35310  1.0000 0.5928262904
C   C36       1.0  0.43490  0.21040  0.14690  1.0000 0.5928262904
C   C37       1.0  0.50300  0.66630  0.38590  1.0000 -0.3393164441
C   C38       1.0  0.49700  0.16630  0.11410  1.0000 -0.3393164441
C   C39       1.0  0.43020  0.60430  0.31830  1.0000 -0.0985184867
C   C40       1.0  0.56980  0.10430  0.18170  1.0000 -0.0985184867
C   C41       1.0  0.48770  0.54350  0.29600  1.0000 -0.3393164441
C   C42       1.0  0.51230  0.04350  0.20400  1.0000 -0.3393164441
C   C43       1.0  0.41400  0.48110  0.23220  1.0000 0.6238108709
C   C44       1.0  0.58600  0.98110  0.26780  1.0000 0.6238108709
C   C45       1.0  0.96200  0.67680  0.13910  1.0000 0.5983179047
C   C46       1.0  0.03800  0.17680  0.36090  1.0000 0.5983179047
C   C47       1.0  0.03020  0.61970  0.12240  1.0000 -0.3324400947
C   C48       1.0  0.96980  0.11970  0.37760  1.0000 -0.3324400947
C   C49       1.0  0.04390  0.54520  0.17330  1.0000 -0.0985184867
C   C50       1.0  0.95610  0.04520  0.32670  1.0000 -0.0985184867
C   C51       1.0  0.11530  0.48720  0.16630  1.0000 -0.3393164441
C   C52       1.0  0.88470  0.98720  0.33370  1.0000 -0.3393164441
C   C53       1.0  0.13080  0.41150  0.21870  1.0000 0.614369212
C   C54       1.0  0.86920  0.91150  0.28130  1.0000 0.614369212
C   C55       1.0  0.75360  0.53690  0.24000  1.0000 -0.3232448861
C   C56       1.0  0.24640  0.03690  0.26000  1.0000 -0.3232448861
C   C57       1.0  0.82450  0.48920  0.32250  1.0000 0.1296960829
C   C58       1.0  0.17550  0.98920  0.17750  1.0000 0.1296960829
C   C59       1.0  0.81090  0.48660  0.39610  1.0000 -0.1516031266
C   C60       1.0  0.18910  0.98660  0.10390  1.0000 -0.1516031266
C   C61       1.0  0.87460  0.43880  0.47000  1.0000 -0.1805582043
C   C62       1.0  0.12540  0.93880  0.03000  1.0000 -0.1805582043
C   C63       1.0  0.95250  0.39620  0.46980  1.0000 0.139111685
C   C64       1.0  0.04750  0.89620  0.03020  1.0000 0.139111685
C   C65       1.0  0.96680  0.39900  0.39690  1.0000 -0.1557304427
C   C66       1.0  0.03320  0.89900  0.10310  1.0000 -0.1557304427
C   C67       1.0  0.90330  0.44620  0.32400  1.0000 -0.1266535033
C   C68       1.0  0.09670  0.94620  0.17600  1.0000 -0.1266535033
C   C69       1.0  0.67570  0.48470  0.16380  1.0000 0.1296960829
C   C70       1.0  0.32430  0.98470  0.33620  1.0000 0.1296960829
C   C71       1.0  0.60510  0.44070  0.17380  1.0000 -0.1266535033
C   C72       1.0  0.39490  0.94070  0.32620  1.0000 -0.1266535033
C   C73       1.0  0.53380  0.39130  0.10640  1.0000 -0.1516031266
C   C74       1.0  0.46620  0.89130  0.39360  1.0000 -0.1516031266
C   C75       1.0  0.53450  0.38810  0.02590  1.0000 0.139111685
C   C76       1.0  0.46550  0.88810  0.47410  1.0000 0.139111685
C   C77       1.0  0.60330  0.43210  0.01320  1.0000 -0.1680999972
C   C78       1.0  0.39670  0.93210  0.48680  1.0000 -0.1680999972
C   C79       1.0  0.67450  0.47930  0.08320  1.0000 -0.1516031266
C   C80       1.0  0.32550  0.97930  0.41680  1.0000 -0.1516031266
C   C81       1.0  0.11400  0.31670  0.56340  1.0000 0.0989932142
C   C82       1.0  0.88600  0.81670  0.93660  1.0000 0.0989932142
C   C83       1.0  0.01350  0.32640  0.61820  1.0000 0.1091960641
C   C84       1.0  0.98650  0.82640  0.88180  1.0000 0.1091960641
C   C85       1.0  0.46420  0.30260  0.88690  1.0000 0.1091960641
C   C86       1.0  0.53580  0.80260  0.61310  1.0000 0.1091960641
C   C87       1.0  0.36240  0.32060  0.94080  1.0000 0.0989932142
C   C88       1.0  0.63760  0.82060  0.55920  1.0000 0.0989932142
C   C89       1.0  0.43490  0.28960  0.64690  1.0000 0.5928262904
C   C90       1.0  0.56510  0.78960  0.85310  1.0000 0.5928262904
C   C91       1.0  0.49700  0.33370  0.61410  1.0000 -0.3393164441
C   C92       1.0  0.50300  0.83370  0.88590  1.0000 -0.3393164441
C   C93       1.0  0.56980  0.39570  0.68170  1.0000 -0.0985184867
C   C94       1.0  0.43020  0.89570  0.81830  1.0000 -0.0985184867
C   C95       1.0  0.51230  0.45650  0.70400  1.0000 -0.3393164441
C   C96       1.0  0.48770  0.95650  0.79600  1.0000 -0.3393164441
C   C97       1.0  0.58600  0.51890  0.76780  1.0000 0.6238108709
C   C98       1.0  0.41400  0.01890  0.73220  1.0000 0.6238108709
C   C99       1.0  0.03800  0.32320  0.86090  1.0000 0.5983179047
C   C100      1.0  0.96200  0.82320  0.63910  1.0000 0.5983179047
C   C101      1.0  0.96980  0.38030  0.87760  1.0000 -0.3324400947
C   C102      1.0  0.03020  0.88030  0.62240  1.0000 -0.3324400947
C   C103      1.0  0.95610  0.45480  0.82670  1.0000 -0.0985184867
C   C104      1.0  0.04390  0.95480  0.67330  1.0000 -0.0985184867
C   C105      1.0  0.88470  0.51280  0.83370  1.0000 -0.3393164441
C   C106      1.0  0.11530  0.01280  0.66630  1.0000 -0.3393164441
C   C107      1.0  0.86920  0.58850  0.78130  1.0000 0.614369212
C   C108      1.0  0.13080  0.08850  0.71870  1.0000 0.614369212
N   N1        1.0  0.84170  0.72110  0.36040  1.0000 -0.2080234286
N   N2        1.0  0.15830  0.22110  0.13960  1.0000 -0.2080234286
N   N3        1.0  0.90580  0.71460  0.32550  1.0000 -0.1805582043
N   N4        1.0  0.09420  0.21460  0.17450  1.0000 -0.1805582043
N   N5        1.0  0.97850  0.65230  0.45390  1.0000 -0.0174378754
N   N6        1.0  0.02150  0.15230  0.04610  1.0000 -0.0174378754
N   N7        1.0  0.62250  0.73590  0.16540  1.0000 -0.1870751247
N   N8        1.0  0.37750  0.23590  0.33460  1.0000 -0.1870751247
N   N9        1.0  0.68780  0.72380  0.13050  1.0000 -0.2080234286
N   N10       1.0  0.31220  0.22380  0.36950  1.0000 -0.2080234286
N   N11       1.0  0.54120  0.66140  0.04480  1.0000 -0.0174378754
N   N12       1.0  0.45880  0.16140  0.45520  1.0000 -0.0174378754
N   N13       1.0  0.15830  0.27890  0.63960  1.0000 -0.2080234286
N   N14       1.0  0.84170  0.77890  0.86040  1.0000 -0.2080234286
N   N15       1.0  0.09420  0.28540  0.67450  1.0000 -0.1805582043
N   N16       1.0  0.90580  0.78540  0.82550  1.0000 -0.1805582043
N   N17       1.0  0.02150  0.34770  0.54610  1.0000 -0.0174378754
N   N18       1.0  0.97850  0.84770  0.95390  1.0000 -0.0174378754
N   N19       1.0  0.37750  0.26410  0.83460  1.0000 -0.1870751247
N   N20       1.0  0.62250  0.76410  0.66540  1.0000 -0.1870751247
N   N21       1.0  0.31220  0.27620  0.86950  1.0000 -0.2080234286
N   N22       1.0  0.68780  0.77620  0.63050  1.0000 -0.2080234286
N   N23       1.0  0.45880  0.33860  0.95520  1.0000 -0.0174378754
N   N24       1.0  0.54120  0.83860  0.54480  1.0000 -0.0174378754
O   O1        1.0  0.66060  0.71280  0.39960  1.0000 -0.5465633735
O   O2        1.0  0.33940  0.21280  0.10040  1.0000 -0.5465633735
O   O3        1.0  0.51890  0.74600  0.28000  1.0000 -0.5292184443
O   O4        1.0  0.48110  0.24600  0.22000  1.0000 -0.5292184443
O   O5        1.0  0.34750  0.50220  0.15430  1.0000 -0.5849569008
O   O6        1.0  0.65250  0.00220  0.34570  1.0000 -0.5849569008
O   O7        1.0  0.42470  0.41080  0.26170  1.0000 -0.6019039318
O   O8        1.0  0.57530  0.91080  0.23830  1.0000 -0.6019039318
O   O9        1.0  0.00590  0.72840  0.19860  1.0000 -0.5465633735
O   O10       1.0  0.99410  0.22840  0.30140  1.0000 -0.5465633735
O   O11       1.0  0.86630  0.66840  0.09850  1.0000 -0.5634202526
O   O12       1.0  0.13370  0.16840  0.40150  1.0000 -0.5634202526
O   O13       1.0  0.06170  0.38920  0.23470  1.0000 -0.5292184443
O   O14       1.0  0.93830  0.88920  0.26530  1.0000 -0.5292184443
O   O15       1.0  0.21380  0.37286  0.24670  1.0000 -0.6019039318
O   O16       1.0  0.78620  0.87286  0.25330  1.0000 -0.6019039318
O   O17       1.0  0.75290  0.87710  0.42730  1.0000 -0.681855844
O   O18       1.0  0.24710  0.37710  0.07270  1.0000 -0.681855844
O   O19       1.0  0.78550  0.85340  0.05960  1.0000 -0.681855844
O   O20       1.0  0.21450  0.35340  0.44040  1.0000 -0.681855844
O   O21       1.0  0.33940  0.28720  0.60040  1.0000 -0.5465633735
O   O22       1.0  0.66060  0.78720  0.89960  1.0000 -0.5465633735
O   O23       1.0  0.48110  0.25400  0.72000  1.0000 -0.5292184443
O   O24       1.0  0.51890  0.75400  0.78000  1.0000 -0.5292184443
O   O25       1.0  0.65250  0.49780  0.84570  1.0000 -0.5849569008
O   O26       1.0  0.34750  0.99780  0.65430  1.0000 -0.5849569008
O   O27       1.0  0.57530  0.58920  0.73830  1.0000 -0.6019039318
O   O28       1.0  0.42470  0.08920  0.76170  1.0000 -0.6019039318
O   O29       1.0  0.99410  0.27160  0.80140  1.0000 -0.5465633735
O   O30       1.0  0.00590  0.77160  0.69860  1.0000 -0.5465633735
O   O31       1.0  0.13370  0.33160  0.90150  1.0000 -0.5634202526
O   O32       1.0  0.86630  0.83160  0.59850  1.0000 -0.5634202526
O   O33       1.0  0.93830  0.61080  0.76530  1.0000 -0.5292184443
O   O34       1.0  0.06170  0.11080  0.73470  1.0000 -0.5292184443
O   O35       1.0  0.78620  0.62714  0.75330  1.0000 -0.6019039318
O   O36       1.0  0.21380  0.12714  0.74670  1.0000 -0.6019039318
O   O37       1.0  0.24710  0.12290  0.57270  1.0000 -0.681855844
O   O38       1.0  0.75290  0.62290  0.92730  1.0000 -0.681855844
O   O39       1.0  0.21450  0.14660  0.94040  1.0000 -0.681855844
O   O40       1.0  0.78550  0.64660  0.55960  1.0000 -0.681855844
