# DDEC6 charges by PACMAN v1.1 (https://github.com/mtap-research/PACMAN-charge/)
data_2015[Cd][nan]3[FSR]15
_chemical_formula_sum              "Cd4 H72 C108 N24 O16"
_cell_length_a       11.328
_cell_length_b       24.951
_cell_length_c       13.7125
_cell_angle_alpha    90
_cell_angle_beta     114.888
_cell_angle_gamma    90

_symmetry_space_group_name_H-M    "P 1"
_symmetry_Int_Tables_number       1

loop_
  _symmetry_equiv_pos_as_xyz
  'x, y, z'

loop_
  _atom_site_type_symbol
  _atom_site_label
  _atom_site_symmetry_multiplicity
  _atom_site_fract_x
  _atom_site_fract_y
  _atom_site_fract_z
  _atom_site_occupancy
  _atom_site_charge
Cd  Cd1       1.0  0.82227  0.15977  0.17473  1.0000 0.8172166326
Cd  Cd2       1.0  0.17773  0.65977  0.32527  1.0000 0.8172166326
Cd  Cd3       1.0  0.17773  0.84023  0.82527  1.0000 0.8172166326
Cd  Cd4       1.0  0.82227  0.34023  0.67473  1.0000 0.8172166326
H   H1        1.0  0.00980  0.06300  0.87530  1.0000 0.1383543675
H   H2        1.0  0.99020  0.56300  0.62470  1.0000 0.1383543675
H   H3        1.0  0.99020  0.93700  0.12470  1.0000 0.1383543675
H   H4        1.0  0.00980  0.43700  0.37530  1.0000 0.1383543675
H   H5        1.0  0.79180  0.17570  0.66700  1.0000 0.1664294727
H   H6        1.0  0.20820  0.67570  0.83300  1.0000 0.1664294727
H   H7        1.0  0.20820  0.82430  0.33300  1.0000 0.1664294727
H   H8        1.0  0.79180  0.32430  0.16700  1.0000 0.1664294727
H   H9        1.0  0.96350  0.06010  0.56750  1.0000 0.1383543675
H   H10       1.0  0.03650  0.56010  0.93250  1.0000 0.1383543675
H   H11       1.0  0.03650  0.93990  0.43250  1.0000 0.1383543675
H   H12       1.0  0.96350  0.43990  0.06750  1.0000 0.1383543675
H   H13       1.0  0.21960  0.03130  0.68710  1.0000 0.1322814577
H   H14       1.0  0.78040  0.53130  0.81290  1.0000 0.1322814577
H   H15       1.0  0.78040  0.96870  0.31290  1.0000 0.1322814577
H   H16       1.0  0.21960  0.46870  0.18710  1.0000 0.1322814577
H   H17       1.0  0.31890  0.94480  0.75640  1.0000 0.1322814577
H   H18       1.0  0.68110  0.44480  0.74360  1.0000 0.1322814577
H   H19       1.0  0.68110  0.05520  0.24360  1.0000 0.1322814577
H   H20       1.0  0.31890  0.55520  0.25640  1.0000 0.1322814577
H   H21       1.0  0.02120  0.95910  0.82720  1.0000 0.1219665982
H   H22       1.0  0.97880  0.45910  0.67280  1.0000 0.1219665982
H   H23       1.0  0.97880  0.04090  0.17280  1.0000 0.1219665982
H   H24       1.0  0.02120  0.54090  0.32720  1.0000 0.1219665982
H   H25       1.0  0.88980  0.22960  0.84160  1.0000 0.1383543675
H   H26       1.0  0.11020  0.72960  0.65840  1.0000 0.1383543675
H   H27       1.0  0.11020  0.77040  0.15840  1.0000 0.1383543675
H   H28       1.0  0.88980  0.27040  0.34160  1.0000 0.1383543675
H   H29       1.0  0.86650  0.24210  0.00940  1.0000 0.1219665982
H   H30       1.0  0.13350  0.74210  0.49060  1.0000 0.1219665982
H   H31       1.0  0.13350  0.75790  0.99060  1.0000 0.1219665982
H   H32       1.0  0.86650  0.25790  0.50940  1.0000 0.1219665982
H   H33       1.0  0.85280  0.08810  0.95790  1.0000 0.1111073339
H   H34       1.0  0.14720  0.58810  0.54210  1.0000 0.1111073339
H   H35       1.0  0.14720  0.91190  0.04210  1.0000 0.1111073339
H   H36       1.0  0.85280  0.41190  0.45790  1.0000 0.1111073339
H   H37       1.0  0.63640  0.17600  0.47470  1.0000 0.1322814577
H   H38       1.0  0.36360  0.67600  0.02530  1.0000 0.1322814577
H   H39       1.0  0.36360  0.82400  0.52530  1.0000 0.1322814577
H   H40       1.0  0.63640  0.32400  0.97470  1.0000 0.1322814577
H   H41       1.0  0.60900  0.19730  0.29150  1.0000 0.1322814577
H   H42       1.0  0.39100  0.69730  0.20850  1.0000 0.1322814577
H   H43       1.0  0.39100  0.80270  0.70850  1.0000 0.1322814577
H   H44       1.0  0.60900  0.30270  0.79150  1.0000 0.1322814577
H   H45       1.0  0.94520  0.12560  0.43600  1.0000 0.1111073339
H   H46       1.0  0.05480  0.62560  0.06400  1.0000 0.1111073339
H   H47       1.0  0.05480  0.87440  0.56400  1.0000 0.1111073339
H   H48       1.0  0.94520  0.37440  0.93600  1.0000 0.1111073339
H   H49       1.0  0.47060  0.29670  0.08060  1.0000 0.1111073339
H   H50       1.0  0.52940  0.79670  0.41940  1.0000 0.1111073339
H   H51       1.0  0.52940  0.70330  0.91940  1.0000 0.1111073339
H   H52       1.0  0.47060  0.20330  0.58060  1.0000 0.1111073339
H   H53       1.0  0.27230  0.33530  0.97240  1.0000 0.1111073339
H   H54       1.0  0.72770  0.83530  0.52760  1.0000 0.1111073339
H   H55       1.0  0.72770  0.66470  0.02760  1.0000 0.1111073339
H   H56       1.0  0.27230  0.16470  0.47240  1.0000 0.1111073339
H   H57       1.0  0.09840  0.22250  0.67500  1.0000 0.1111073339
H   H58       1.0  0.90160  0.72250  0.82500  1.0000 0.1111073339
H   H59       1.0  0.90160  0.77750  0.32500  1.0000 0.1111073339
H   H60       1.0  0.09840  0.27750  0.17500  1.0000 0.1111073339
H   H61       1.0  0.17600  0.15180  0.61470  1.0000 0.1004457973
H   H62       1.0  0.82400  0.65180  0.88530  1.0000 0.1004457973
H   H63       1.0  0.82400  0.84820  0.38530  1.0000 0.1004457973
H   H64       1.0  0.17600  0.34820  0.11470  1.0000 0.1004457973
H   H65       1.0  0.38220  0.11980  0.71250  1.0000 0.1111073339
H   H66       1.0  0.61780  0.61980  0.78750  1.0000 0.1111073339
H   H67       1.0  0.61780  0.88020  0.28750  1.0000 0.1111073339
H   H68       1.0  0.38220  0.38020  0.21250  1.0000 0.1111073339
H   H69       1.0  0.51040  0.15480  0.87670  1.0000 0.1111073339
H   H70       1.0  0.48960  0.65480  0.62330  1.0000 0.1111073339
H   H71       1.0  0.48960  0.84520  0.12330  1.0000 0.1111073339
H   H72       1.0  0.51040  0.34520  0.37670  1.0000 0.1111073339
C   C1        1.0  0.00040  0.05539  0.72530  1.0000 0.2030125685
C   C2        1.0  0.99960  0.55539  0.77470  1.0000 0.2030125685
C   C3        1.0  0.99960  0.94461  0.27470  1.0000 0.2030125685
C   C4        1.0  0.00040  0.44461  0.22530  1.0000 0.2030125685
C   C5        1.0  0.97460  0.07762  0.80650  1.0000 -0.2876340843
C   C6        1.0  0.02540  0.57762  0.69350  1.0000 -0.2876340843
C   C7        1.0  0.02540  0.92238  0.19350  1.0000 -0.2876340843
C   C8        1.0  0.97460  0.42238  0.30650  1.0000 -0.2876340843
C   C9        1.0  0.89420  0.12253  0.78230  1.0000 0.2139202521
C   C10       1.0  0.10580  0.62253  0.71770  1.0000 0.2139202521
C   C11       1.0  0.10580  0.87747  0.21770  1.0000 0.2139202521
C   C12       1.0  0.89420  0.37747  0.28230  1.0000 0.2139202521
C   C13       1.0  0.84310  0.14499  0.68130  1.0000 -0.2439522988
C   C14       1.0  0.15690  0.64499  0.81870  1.0000 -0.2439522988
C   C15       1.0  0.15690  0.85501  0.31870  1.0000 -0.2439522988
C   C16       1.0  0.84310  0.35501  0.18130  1.0000 -0.2439522988
C   C17       1.0  0.86920  0.12108  0.60080  1.0000 0.2139202521
C   C18       1.0  0.13080  0.62108  0.89920  1.0000 0.2139202521
C   C19       1.0  0.13080  0.87892  0.39920  1.0000 0.2139202521
C   C20       1.0  0.86920  0.37892  0.10080  1.0000 0.2139202521
C   C21       1.0  0.94710  0.07613  0.62170  1.0000 -0.2813419051
C   C22       1.0  0.05290  0.57613  0.87830  1.0000 -0.2813419051
C   C23       1.0  0.05290  0.92387  0.37830  1.0000 -0.2813419051
C   C24       1.0  0.94710  0.42387  0.12170  1.0000 -0.2813419051
C   C25       1.0  0.19200  0.00640  0.72370  1.0000 -0.1194236273
C   C26       1.0  0.80800  0.50640  0.77630  1.0000 -0.1194236273
C   C27       1.0  0.80800  0.99360  0.27630  1.0000 -0.1194236273
C   C28       1.0  0.19200  0.49360  0.22370  1.0000 -0.1194236273
C   C29       1.0  0.24550  0.95860  0.76170  1.0000 -0.0362789541
C   C30       1.0  0.75450  0.45860  0.73830  1.0000 -0.0362789541
C   C31       1.0  0.75450  0.04140  0.23830  1.0000 -0.0362789541
C   C32       1.0  0.24550  0.54140  0.26170  1.0000 -0.0362789541
C   C33       1.0  0.08330  0.96596  0.80100  1.0000 0.0880579126
C   C34       1.0  0.91670  0.46596  0.69900  1.0000 0.0880579126
C   C35       1.0  0.91670  0.03404  0.19900  1.0000 0.0880579126
C   C36       1.0  0.08330  0.53404  0.30100  1.0000 0.0880579126
C   C37       1.0  0.87960  0.20280  0.88460  1.0000 -0.0881734056
C   C38       1.0  0.12040  0.70280  0.61540  1.0000 -0.0881734056
C   C39       1.0  0.12040  0.79720  0.11540  1.0000 -0.0881734056
C   C40       1.0  0.87960  0.29720  0.38460  1.0000 -0.0881734056
C   C41       1.0  0.86620  0.20920  0.97730  1.0000 -0.0262158935
C   C42       1.0  0.13380  0.70920  0.52270  1.0000 -0.0262158935
C   C43       1.0  0.13380  0.79080  0.02270  1.0000 -0.0262158935
C   C44       1.0  0.86620  0.29080  0.47730  1.0000 -0.0262158935
C   C45       1.0  0.85860  0.12489  0.95000  1.0000 0.0880579126
C   C46       1.0  0.14140  0.62489  0.55000  1.0000 0.0880579126
C   C47       1.0  0.14140  0.87511  0.05000  1.0000 0.0880579126
C   C48       1.0  0.85860  0.37511  0.45000  1.0000 0.0880579126
C   C49       1.0  0.69480  0.16830  0.44510  1.0000 -0.0881734056
C   C50       1.0  0.30520  0.66830  0.05490  1.0000 -0.0881734056
C   C51       1.0  0.30520  0.83170  0.55490  1.0000 -0.0881734056
C   C52       1.0  0.69480  0.33170  0.94510  1.0000 -0.0881734056
C   C53       1.0  0.68060  0.18020  0.34390  1.0000 -0.0262158935
C   C54       1.0  0.31940  0.68020  0.15610  1.0000 -0.0262158935
C   C55       1.0  0.31940  0.81980  0.65610  1.0000 -0.0262158935
C   C56       1.0  0.68060  0.31980  0.84390  1.0000 -0.0262158935
C   C57       1.0  0.86490  0.14080  0.42240  1.0000 0.0880579126
C   C58       1.0  0.13510  0.64080  0.07760  1.0000 0.0880579126
C   C59       1.0  0.13510  0.85920  0.57760  1.0000 0.0880579126
C   C60       1.0  0.86490  0.35920  0.92240  1.0000 0.0880579126
C   C61       1.0  0.46170  0.23585  0.98210  1.0000 -0.0614077769
C   C62       1.0  0.53830  0.73585  0.51790  1.0000 -0.0614077769
C   C63       1.0  0.53830  0.76415  0.01790  1.0000 -0.0614077769
C   C64       1.0  0.46170  0.26415  0.48210  1.0000 -0.0614077769
C   C65       1.0  0.41870  0.28110  0.01470  1.0000 -0.1381086242
C   C66       1.0  0.58130  0.78110  0.48530  1.0000 -0.1381086242
C   C67       1.0  0.58130  0.71890  0.98530  1.0000 -0.1381086242
C   C68       1.0  0.41870  0.21890  0.51470  1.0000 -0.1381086242
C   C69       1.0  0.29780  0.30400  0.94980  1.0000 -0.1273153893
C   C70       1.0  0.70220  0.80400  0.55020  1.0000 -0.1273153893
C   C71       1.0  0.70220  0.69600  0.05020  1.0000 -0.1273153893
C   C72       1.0  0.29780  0.19600  0.44980  1.0000 -0.1273153893
C   C73       1.0  0.21640  0.28130  0.85370  1.0000 -0.051844884
C   C74       1.0  0.78360  0.78130  0.64630  1.0000 -0.051844884
C   C75       1.0  0.78360  0.71870  0.14630  1.0000 -0.051844884
C   C76       1.0  0.21640  0.21870  0.35370  1.0000 -0.051844884
C   C77       1.0  0.18200  0.20990  0.71640  1.0000 -0.1381086242
C   C78       1.0  0.81800  0.70990  0.78360  1.0000 -0.1381086242
C   C79       1.0  0.81800  0.79010  0.28360  1.0000 -0.1381086242
C   C80       1.0  0.18200  0.29010  0.21640  1.0000 -0.1381086242
C   C81       1.0  0.22810  0.16760  0.68020  1.0000 -0.1194236273
C   C82       1.0  0.77190  0.66760  0.81980  1.0000 -0.1194236273
C   C83       1.0  0.77190  0.83240  0.31980  1.0000 -0.1194236273
C   C84       1.0  0.22810  0.33240  0.18020  1.0000 -0.1194236273
C   C85       1.0  0.35120  0.14800  0.73960  1.0000 -0.1104766972
C   C86       1.0  0.64880  0.64800  0.76040  1.0000 -0.1104766972
C   C87       1.0  0.64880  0.85200  0.26040  1.0000 -0.1104766972
C   C88       1.0  0.35120  0.35200  0.23960  1.0000 -0.1104766972
C   C89       1.0  0.42810  0.16910  0.83720  1.0000 -0.1381086242
C   C90       1.0  0.57190  0.66910  0.66280  1.0000 -0.1381086242
C   C91       1.0  0.57190  0.83090  0.16280  1.0000 -0.1381086242
C   C92       1.0  0.42810  0.33090  0.33720  1.0000 -0.1273153893
C   C93       1.0  0.38380  0.21305  0.87980  1.0000 0.0574055516
C   C94       1.0  0.61620  0.71305  0.62020  1.0000 0.0574055516
C   C95       1.0  0.61620  0.78695  0.12020  1.0000 0.0574055516
C   C96       1.0  0.38380  0.28695  0.37980  1.0000 0.0574055516
C   C97       1.0  0.25810  0.23480  0.81530  1.0000 0.0574055516
C   C98       1.0  0.74190  0.73480  0.68470  1.0000 0.0574055516
C   C99       1.0  0.74190  0.76520  0.18470  1.0000 0.0574055516
C   C100      1.0  0.25810  0.26520  0.31530  1.0000 0.0574055516
C   C101      1.0  0.58920  0.21116  0.05940  1.0000 0.5354967542
C   C102      1.0  0.41080  0.71116  0.44060  1.0000 0.5354967542
C   C103      1.0  0.41080  0.78884  0.94060  1.0000 0.5354967542
C   C104      1.0  0.58920  0.28884  0.55940  1.0000 0.5354967542
C   C105      1.0  0.08430  0.30720  0.79310  1.0000 0.5460401751
C   C106      1.0  0.91570  0.80720  0.70690  1.0000 0.5460401751
C   C107      1.0  0.91570  0.69280  0.20690  1.0000 0.5460401751
C   C108      1.0  0.08430  0.19280  0.29310  1.0000 0.5460401751
N   N1        1.0  0.17680  0.93276  0.80950  1.0000 -0.2813419051
N   N2        1.0  0.82320  0.43276  0.69050  1.0000 -0.2813419051
N   N3        1.0  0.82320  0.06724  0.19050  1.0000 -0.2813419051
N   N4        1.0  0.17680  0.56724  0.30950  1.0000 -0.2813419051
N   N5        1.0  0.08870  0.01123  0.74960  1.0000 0.0020980286
N   N6        1.0  0.91130  0.51123  0.75040  1.0000 0.0020980286
N   N7        1.0  0.91130  0.98877  0.25040  1.0000 0.0020980286
N   N8        1.0  0.08870  0.48877  0.24960  1.0000 0.0020980286
N   N9        1.0  0.85230  0.16080  0.01720  1.0000 -0.2696393676
N   N10       1.0  0.14770  0.66080  0.48280  1.0000 -0.2696393676
N   N11       1.0  0.14770  0.83920  0.98280  1.0000 -0.2696393676
N   N12       1.0  0.85230  0.33920  0.51720  1.0000 -0.2696393676
N   N13       1.0  0.87490  0.14856  0.86710  1.0000 0.0020980286
N   N14       1.0  0.12510  0.64856  0.63290  1.0000 0.0020980286
N   N15       1.0  0.12510  0.85144  0.13290  1.0000 0.0020980286
N   N16       1.0  0.87490  0.35144  0.36710  1.0000 0.0020980286
N   N17       1.0  0.78870  0.16298  0.33110  1.0000 -0.2813419051
N   N18       1.0  0.21130  0.66298  0.16890  1.0000 -0.2813419051
N   N19       1.0  0.21130  0.83702  0.66890  1.0000 -0.2813419051
N   N20       1.0  0.78870  0.33702  0.83110  1.0000 -0.2813419051
N   N21       1.0  0.81240  0.14270  0.49470  1.0000 -0.005092055
N   N22       1.0  0.18760  0.64270  0.00530  1.0000 -0.0046653383
N   N23       1.0  0.18760  0.85730  0.50530  1.0000 -0.0046653383
N   N24       1.0  0.81240  0.35730  0.99470  1.0000 -0.0046653383
O   O1        1.0  0.59470  0.16096  0.06980  1.0000 -0.5467765949
O   O2        1.0  0.40530  0.66096  0.43020  1.0000 -0.5467765949
O   O3        1.0  0.40530  0.83904  0.93020  1.0000 -0.5467765949
O   O4        1.0  0.59470  0.33904  0.56980  1.0000 -0.5467765949
O   O5        1.0  0.68270  0.24045  0.11020  1.0000 -0.5417137764
O   O6        1.0  0.31730  0.74045  0.38980  1.0000 -0.5417137764
O   O7        1.0  0.31730  0.75955  0.88980  1.0000 -0.5417137764
O   O8        1.0  0.68270  0.25955  0.61020  1.0000 -0.5417137764
O   O9        1.0  0.07590  0.35687  0.79650  1.0000 -0.5842965267
O   O10       1.0  0.92410  0.85687  0.70350  1.0000 -0.5842965267
O   O11       1.0  0.92410  0.64313  0.20350  1.0000 -0.5842965267
O   O12       1.0  0.07590  0.14313  0.29650  1.0000 -0.5842965267
O   O13       1.0  0.98820  0.27759  0.74230  1.0000 -0.5561487697
O   O14       1.0  0.01180  0.77759  0.75770  1.0000 -0.5561487697
O   O15       1.0  0.01180  0.72241  0.25770  1.0000 -0.5561487697
O   O16       1.0  0.98820  0.22241  0.24230  1.0000 -0.5561487697
