# DDEC6 charges by PACMAN v1.1 (https://github.com/mtap-research/PACMAN-charge/)
data_2015[Cd][pcu]3[FSR]4
_chemical_formula_sum              "Cd4 H88 C160 N16 O32"
_cell_length_a       12.8478
_cell_length_b       12.8478
_cell_length_c       29.307
_cell_angle_alpha    90
_cell_angle_beta     90
_cell_angle_gamma    103.182

_symmetry_space_group_name_H-M    "P 1"
_symmetry_Int_Tables_number       1

loop_
  _symmetry_equiv_pos_as_xyz
  'x, y, z'

loop_
  _atom_site_type_symbol
  _atom_site_label
  _atom_site_symmetry_multiplicity
  _atom_site_fract_x
  _atom_site_fract_y
  _atom_site_fract_z
  _atom_site_occupancy
  _atom_site_charge
Cd  Cd1       1.0  0.59257  0.59257  0.04360  1.0000 0.8318808431
Cd  Cd2       1.0  0.90743  0.90743  0.54360  1.0000 0.8318808431
Cd  Cd3       1.0  0.40743  0.40743  0.95640  1.0000 0.8318808431
Cd  Cd4       1.0  0.09257  0.09257  0.45640  1.0000 0.8318808431
H   H1        1.0  0.82540  0.82540  0.15810  1.0000 0.1198586122
H   H2        1.0  0.67460  0.67460  0.65810  1.0000 0.1198586122
H   H3        1.0  0.17460  0.17460  0.84190  1.0000 0.1198586122
H   H4        1.0  0.32540  0.32540  0.34190  1.0000 0.1198586122
H   H5        1.0  0.87620  0.87620  0.23100  1.0000 0.1198586122
H   H6        1.0  0.62380  0.62380  0.73100  1.0000 0.1198586122
H   H7        1.0  0.12380  0.12380  0.76900  1.0000 0.1198586122
H   H8        1.0  0.37620  0.37620  0.26900  1.0000 0.1198586122
H   H9        1.0  0.64250  0.64250  0.27880  1.0000 0.1088888311
H   H10       1.0  0.85750  0.85750  0.77880  1.0000 0.1088888311
H   H11       1.0  0.35750  0.35750  0.72120  1.0000 0.1088888311
H   H12       1.0  0.14250  0.14250  0.22120  1.0000 0.1088888311
H   H13       1.0  0.59150  0.59150  0.20530  1.0000 0.1198586122
H   H14       1.0  0.90850  0.90850  0.70530  1.0000 0.1198586122
H   H15       1.0  0.40850  0.40850  0.79470  1.0000 0.1198586122
H   H16       1.0  0.09150  0.09150  0.29470  1.0000 0.1198586122
H   H17       1.0  0.91210  0.91210  0.30000  1.0000 0.1198586122
H   H18       1.0  0.58790  0.58790  0.80000  1.0000 0.1198586122
H   H19       1.0  0.08790  0.08790  0.70000  1.0000 0.1198586122
H   H20       1.0  0.41210  0.41210  0.20000  1.0000 0.1198586122
H   H21       1.0  0.95600  0.95600  0.37430  1.0000 0.1319169953
H   H22       1.0  0.54400  0.54400  0.87430  1.0000 0.1319169953
H   H23       1.0  0.04400  0.04400  0.62570  1.0000 0.1319169953
H   H24       1.0  0.45600  0.45600  0.12570  1.0000 0.1319169953
H   H25       1.0  0.79770  0.67790  0.41350  1.0000 0.0896082221
H   H26       1.0  0.70230  0.82210  0.91350  1.0000 0.0896082221
H   H27       1.0  0.32210  0.20230  0.58650  1.0000 0.0896082221
H   H28       1.0  0.17790  0.29770  0.08650  1.0000 0.0896082221
H   H29       1.0  0.20230  0.32210  0.58650  1.0000 0.0896082221
H   H30       1.0  0.29770  0.17790  0.08650  1.0000 0.0896082221
H   H31       1.0  0.67790  0.79770  0.41350  1.0000 0.0896082221
H   H32       1.0  0.82210  0.70230  0.91350  1.0000 0.0896082221
H   H33       1.0  0.77010  0.63190  0.33620  1.0000 0.096772557
H   H34       1.0  0.72990  0.86810  0.83620  1.0000 0.096772557
H   H35       1.0  0.36810  0.22990  0.66380  1.0000 0.096772557
H   H36       1.0  0.13190  0.27010  0.16380  1.0000 0.096772557
H   H37       1.0  0.22990  0.36810  0.66380  1.0000 0.096772557
H   H38       1.0  0.27010  0.13190  0.16380  1.0000 0.096772557
H   H39       1.0  0.63190  0.77010  0.33620  1.0000 0.096772557
H   H40       1.0  0.86810  0.72990  0.83620  1.0000 0.096772557
H   H41       1.0  0.59140  0.34100  0.06120  1.0000 0.1088888311
H   H42       1.0  0.90860  0.15900  0.56120  1.0000 0.1088888311
H   H43       1.0  0.65900  0.40860  0.93880  1.0000 0.1088888311
H   H44       1.0  0.84100  0.09140  0.43880  1.0000 0.1088888311
H   H45       1.0  0.40860  0.65900  0.93880  1.0000 0.1088888311
H   H46       1.0  0.09140  0.84100  0.43880  1.0000 0.1088888311
H   H47       1.0  0.34100  0.59140  0.06120  1.0000 0.1088888311
H   H48       1.0  0.15900  0.90860  0.56120  1.0000 0.1088888311
H   H49       1.0  0.69980  0.22060  0.06270  1.0000 0.1509425248
H   H50       1.0  0.80020  0.27940  0.56270  1.0000 0.1509425248
H   H51       1.0  0.77940  0.30020  0.93730  1.0000 0.1509425248
H   H52       1.0  0.72060  0.19980  0.43730  1.0000 0.1509425248
H   H53       1.0  0.30020  0.77940  0.93730  1.0000 0.1509425248
H   H54       1.0  0.19980  0.72060  0.43730  1.0000 0.1509425248
H   H55       1.0  0.22060  0.69980  0.06270  1.0000 0.1509425248
H   H56       1.0  0.27940  0.80020  0.56270  1.0000 0.1509425248
H   H57       1.0  0.95060  0.46340  0.04000  1.0000 0.1509425248
H   H58       1.0  0.54940  0.03660  0.54000  1.0000 0.1509425248
H   H59       1.0  0.53660  0.04940  0.96000  1.0000 0.1509425248
H   H60       1.0  0.96340  0.45060  0.46000  1.0000 0.1509425248
H   H61       1.0  0.04940  0.53660  0.96000  1.0000 0.1509425248
H   H62       1.0  0.45060  0.96340  0.46000  1.0000 0.1509425248
H   H63       1.0  0.46340  0.95060  0.04000  1.0000 0.1509425248
H   H64       1.0  0.03660  0.54940  0.54000  1.0000 0.1509425248
H   H65       1.0  0.83340  0.57660  0.03820  1.0000 0.1088888311
H   H66       1.0  0.66667  0.92340  0.53820  1.0000 0.1088888311
H   H67       1.0  0.42340  0.16660  0.96180  1.0000 0.1088888311
H   H68       1.0  0.07660  0.33340  0.46180  1.0000 0.1088888311
H   H69       1.0  0.16660  0.42340  0.96180  1.0000 0.1088888311
H   H70       1.0  0.33340  0.07660  0.46180  1.0000 0.1088888311
H   H71       1.0  0.57660  0.83340  0.03820  1.0000 0.1088888311
H   H72       1.0  0.92340  0.66667  0.53820  1.0000 0.1088888311
H   H73       1.0  0.93300  0.06300  0.14900  1.0000 0.1319169953
H   H74       1.0  0.56700  0.43700  0.64900  1.0000 0.1319169953
H   H75       1.0  0.93700  0.06700  0.85100  1.0000 0.1319169953
H   H76       1.0  0.56300  0.43300  0.35100  1.0000 0.1319169953
H   H77       1.0  0.06700  0.93700  0.85100  1.0000 0.1319169953
H   H78       1.0  0.43300  0.56300  0.35100  1.0000 0.1319169953
H   H79       1.0  0.06300  0.93300  0.14900  1.0000 0.1319169953
H   H80       1.0  0.43700  0.56700  0.64900  1.0000 0.1319169953
H   H81       1.0  0.09500  0.21500  0.94400  1.0000 0.1198586122
H   H82       1.0  0.40500  0.28500  0.44400  1.0000 0.1198586122
H   H83       1.0  0.78500  0.90500  0.05600  1.0000 0.1198586122
H   H84       1.0  0.71500  0.59500  0.55600  1.0000 0.1198586122
H   H85       1.0  0.90500  0.78500  0.05600  1.0000 0.1198586122
H   H86       1.0  0.59500  0.71500  0.55600  1.0000 0.1198586122
H   H87       1.0  0.21500  0.09500  0.94400  1.0000 0.1198586122
H   H88       1.0  0.28500  0.40500  0.44400  1.0000 0.1198586122
C   C1        1.0  0.67010  0.67010  0.12610  1.0000 0.5437546278
C   C2        1.0  0.82990  0.82990  0.62610  1.0000 0.5437546278
C   C3        1.0  0.32990  0.32990  0.87390  1.0000 0.5437546278
C   C4        1.0  0.17010  0.17010  0.37390  1.0000 0.5437546278
C   C5        1.0  0.70410  0.70410  0.17370  1.0000 -0.023568594
C   C6        1.0  0.79590  0.79590  0.67370  1.0000 -0.023568594
C   C7        1.0  0.29590  0.29590  0.82630  1.0000 -0.023568594
C   C8        1.0  0.20410  0.20410  0.32630  1.0000 -0.023568594
C   C9        1.0  0.78800  0.78800  0.18240  1.0000 -0.0994093768
C   C10       1.0  0.71200  0.71200  0.68240  1.0000 -0.0994093768
C   C11       1.0  0.21200  0.21200  0.81760  1.0000 -0.0994093768
C   C12       1.0  0.28800  0.28800  0.31760  1.0000 -0.0994093768
C   C13       1.0  0.81860  0.81860  0.22620  1.0000 -0.1548220758
C   C14       1.0  0.68140  0.68140  0.72620  1.0000 -0.1548220758
C   C15       1.0  0.18140  0.18140  0.77380  1.0000 -0.1548220758
C   C16       1.0  0.31860  0.31860  0.27380  1.0000 -0.1548220758
C   C17       1.0  0.67990  0.67990  0.25440  1.0000 -0.1574775559
C   C18       1.0  0.82010  0.82010  0.75440  1.0000 -0.1574775559
C   C19       1.0  0.32010  0.32010  0.74560  1.0000 -0.1574775559
C   C20       1.0  0.17990  0.17990  0.24560  1.0000 -0.1574775559
C   C21       1.0  0.64900  0.64900  0.21040  1.0000 -0.0994093768
C   C22       1.0  0.85100  0.85100  0.71040  1.0000 -0.0994093768
C   C23       1.0  0.35100  0.35100  0.78960  1.0000 -0.0994093768
C   C24       1.0  0.14900  0.14900  0.28960  1.0000 -0.0994093768
C   C25       1.0  0.76470  0.76470  0.26330  1.0000 0.0764644946
C   C26       1.0  0.73530  0.73530  0.76330  1.0000 0.0764644946
C   C27       1.0  0.23530  0.23530  0.73670  1.0000 0.0764644946
C   C28       1.0  0.26470  0.26470  0.23670  1.0000 0.0764644946
C   C29       1.0  0.79550  0.79550  0.31050  1.0000 0.0896082221
C   C30       1.0  0.70450  0.70450  0.81050  1.0000 0.0896082221
C   C31       1.0  0.20450  0.20450  0.68950  1.0000 0.0896082221
C   C32       1.0  0.29550  0.29550  0.18950  1.0000 0.0896082221
C   C33       1.0  0.87150  0.87150  0.32270  1.0000 -0.1718186011
C   C34       1.0  0.62850  0.62850  0.82270  1.0000 -0.1718186011
C   C35       1.0  0.12850  0.12850  0.67730  1.0000 -0.1718186011
C   C36       1.0  0.37150  0.37150  0.17730  1.0000 -0.1718186011
C   C37       1.0  0.89880  0.89880  0.36840  1.0000 -0.1574775559
C   C38       1.0  0.60120  0.60120  0.86840  1.0000 -0.1574775559
C   C39       1.0  0.10120  0.10120  0.63160  1.0000 -0.1574775559
C   C40       1.0  0.39880  0.39880  0.13160  1.0000 -0.1574775559
C   C41       1.0  0.84740  0.84740  0.40230  1.0000 0.0207637417
C   C42       1.0  0.65260  0.65260  0.90230  1.0000 0.0207637417
C   C43       1.0  0.15260  0.15260  0.59770  1.0000 0.0207637417
C   C44       1.0  0.34740  0.34740  0.09770  1.0000 0.0207637417
C   C45       1.0  0.81060  0.73160  0.39020  1.0000 -0.0781539245
C   C46       1.0  0.68940  0.76840  0.89020  1.0000 -0.0781539245
C   C47       1.0  0.26840  0.18940  0.60980  1.0000 -0.0781539245
C   C48       1.0  0.23160  0.31060  0.10980  1.0000 -0.0781539245
C   C49       1.0  0.18940  0.26840  0.60980  1.0000 -0.0781539245
C   C50       1.0  0.31060  0.23160  0.10980  1.0000 -0.0781539245
C   C51       1.0  0.73160  0.81060  0.39020  1.0000 -0.0781539245
C   C52       1.0  0.76840  0.68940  0.89020  1.0000 -0.0781539245
C   C53       1.0  0.78910  0.70570  0.34510  1.0000 -0.1159033702
C   C54       1.0  0.71090  0.79430  0.84510  1.0000 -0.1159033702
C   C55       1.0  0.29430  0.21090  0.65490  1.0000 -0.1159033702
C   C56       1.0  0.20570  0.28910  0.15490  1.0000 -0.1159033702
C   C57       1.0  0.21090  0.29430  0.65490  1.0000 -0.1159033702
C   C58       1.0  0.28910  0.20570  0.15490  1.0000 -0.1159033702
C   C59       1.0  0.70570  0.78910  0.34510  1.0000 -0.1159033702
C   C60       1.0  0.79430  0.71090  0.84510  1.0000 -0.1159033702
C   C61       1.0  0.87130  0.87130  0.45160  1.0000 0.520036986
C   C62       1.0  0.62870  0.62870  0.95160  1.0000 0.520036986
C   C63       1.0  0.12870  0.12870  0.54840  1.0000 0.520036986
C   C64       1.0  0.37130  0.37130  0.04840  1.0000 0.520036986
C   C65       1.0  0.66440  0.36560  0.05610  1.0000 0.0896082221
C   C66       1.0  0.83560  0.13440  0.55610  1.0000 0.0896082221
C   C67       1.0  0.63440  0.33560  0.94390  1.0000 0.0896082221
C   C68       1.0  0.86560  0.16440  0.44390  1.0000 0.0896082221
C   C69       1.0  0.33560  0.63440  0.94390  1.0000 0.0896082221
C   C70       1.0  0.16440  0.86560  0.44390  1.0000 0.0896082221
C   C71       1.0  0.36560  0.66440  0.05610  1.0000 0.0896082221
C   C72       1.0  0.13440  0.83560  0.55610  1.0000 0.0896082221
C   C73       1.0  0.72880  0.29280  0.05760  1.0000 -0.1987037902
C   C74       1.0  0.77120  0.20720  0.55760  1.0000 -0.1987037902
C   C75       1.0  0.70720  0.27120  0.94240  1.0000 -0.1987037902
C   C76       1.0  0.79280  0.22880  0.44240  1.0000 -0.1987037902
C   C77       1.0  0.27120  0.70720  0.94240  1.0000 -0.1987037902
C   C78       1.0  0.22880  0.79280  0.44240  1.0000 -0.1987037902
C   C79       1.0  0.29280  0.72880  0.05760  1.0000 -0.1987037902
C   C80       1.0  0.20720  0.77120  0.55760  1.0000 -0.1987037902
C   C81       1.0  0.83720  0.33040  0.05130  1.0000 0.2240293379
C   C82       1.0  0.66280  0.16960  0.55130  1.0000 0.2240293379
C   C83       1.0  0.66960  0.16280  0.94870  1.0000 0.2240293379
C   C84       1.0  0.83040  0.33720  0.44870  1.0000 0.2240293379
C   C85       1.0  0.16280  0.66960  0.94870  1.0000 0.2240293379
C   C86       1.0  0.33720  0.83040  0.44870  1.0000 0.2240293379
C   C87       1.0  0.33040  0.83720  0.05130  1.0000 0.2240293379
C   C88       1.0  0.16960  0.66280  0.55130  1.0000 0.2240293379
C   C89       1.0  0.87760  0.43640  0.04400  1.0000 -0.1987037902
C   C90       1.0  0.62240  0.06360  0.54400  1.0000 -0.1987037902
C   C91       1.0  0.56360  0.12240  0.95600  1.0000 -0.1987037902
C   C92       1.0  0.93640  0.37760  0.45600  1.0000 -0.1987037902
C   C93       1.0  0.12240  0.56360  0.95600  1.0000 -0.1987037902
C   C94       1.0  0.37760  0.93640  0.45600  1.0000 -0.1987037902
C   C95       1.0  0.43640  0.87760  0.04400  1.0000 -0.1987037902
C   C96       1.0  0.06360  0.62240  0.54400  1.0000 -0.1987037902
C   C97       1.0  0.80620  0.50380  0.04280  1.0000 0.1088888311
C   C98       1.0  0.69380  0.99620  0.54280  1.0000 0.1088888311
C   C99       1.0  0.49620  0.19380  0.95720  1.0000 0.1088888311
C   C100      1.0  0.00380  0.30620  0.45720  1.0000 0.1088888311
C   C101      1.0  0.19380  0.49620  0.95720  1.0000 0.1088888311
C   C102      1.0  0.30620  0.00380  0.45720  1.0000 0.1088888311
C   C103      1.0  0.50380  0.80620  0.04280  1.0000 0.1088888311
C   C104      1.0  0.99620  0.69380  0.54280  1.0000 0.1088888311
C   C105      1.0  0.90940  0.19300  0.09080  1.0000 0.4278234819
C   C106      1.0  0.59060  0.30700  0.59080  1.0000 0.4278234819
C   C107      1.0  0.80700  0.09060  0.90920  1.0000 0.4278234819
C   C108      1.0  0.69300  0.40940  0.40920  1.0000 0.4278234819
C   C109      1.0  0.09060  0.80700  0.90920  1.0000 0.4278234819
C   C110      1.0  0.40940  0.69300  0.40920  1.0000 0.4278234819
C   C111      1.0  0.19300  0.90940  0.09080  1.0000 0.4278234819
C   C112      1.0  0.30700  0.59060  0.59080  1.0000 0.4278234819
C   C113      1.0  0.98030  0.11930  0.09030  1.0000 -0.0781539245
C   C114      1.0  0.51970  0.38070  0.59030  1.0000 -0.0781539245
C   C115      1.0  0.88070  0.01970  0.90970  1.0000 -0.0781539245
C   C116      1.0  0.61930  0.48030  0.40970  1.0000 -0.0781539245
C   C117      1.0  0.01970  0.88070  0.90970  1.0000 -0.0781539245
C   C118      1.0  0.48030  0.61930  0.40970  1.0000 -0.0781539245
C   C119      1.0  0.11930  0.98030  0.09030  1.0000 -0.0781539245
C   C120      1.0  0.38070  0.51970  0.59030  1.0000 -0.0781539245
C   C121      1.0  0.98530  0.05610  0.12710  1.0000 -0.0994093768
C   C122      1.0  0.51470  0.44390  0.62710  1.0000 -0.0994093768
C   C123      1.0  0.94390  0.01470  0.87290  1.0000 -0.0994093768
C   C124      1.0  0.55610  0.48530  0.37290  1.0000 -0.0994093768
C   C125      1.0  0.01470  0.94390  0.87290  1.0000 -0.0994093768
C   C126      1.0  0.48530  0.55610  0.37290  1.0000 -0.0994093768
C   C127      1.0  0.05610  0.98530  0.12710  1.0000 -0.0994093768
C   C128      1.0  0.44390  0.51470  0.62710  1.0000 -0.0994093768
C   C129      1.0  0.04380  0.11340  0.05140  1.0000 0.0341439493
C   C130      1.0  0.45620  0.38660  0.55140  1.0000 0.0341439493
C   C131      1.0  0.88660  0.95620  0.94860  1.0000 0.0341439493
C   C132      1.0  0.61340  0.54380  0.44860  1.0000 0.0341439493
C   C133      1.0  0.95620  0.88660  0.94860  1.0000 0.0341439493
C   C134      1.0  0.54380  0.61340  0.44860  1.0000 0.0341439493
C   C135      1.0  0.11340  0.04380  0.05140  1.0000 0.0341439493
C   C136      1.0  0.38660  0.45620  0.55140  1.0000 0.0341439493
C   C137      1.0  0.03950  0.17810  0.01250  1.0000 -0.0781539245
C   C138      1.0  0.46050  0.32190  0.51250  1.0000 -0.0781539245
C   C139      1.0  0.82190  0.96050  0.98750  1.0000 -0.0781539245
C   C140      1.0  0.67810  0.53950  0.48750  1.0000 -0.0781539245
C   C141      1.0  0.96050  0.82190  0.98750  1.0000 -0.0781539245
C   C142      1.0  0.53950  0.67810  0.48750  1.0000 -0.0781539245
C   C143      1.0  0.17810  0.03950  0.01250  1.0000 -0.0781539245
C   C144      1.0  0.32190  0.46050  0.51250  1.0000 -0.0781539245
C   C145      1.0  0.10250  0.17250  0.97500  1.0000 -0.0566813463
C   C146      1.0  0.39750  0.32750  0.47500  1.0000 -0.0566813463
C   C147      1.0  0.82750  0.89750  0.02500  1.0000 -0.0566813463
C   C148      1.0  0.67250  0.60250  0.52500  1.0000 -0.0566813463
C   C149      1.0  0.89750  0.82750  0.02500  1.0000 -0.0566813463
C   C150      1.0  0.60250  0.67250  0.52500  1.0000 -0.0566813463
C   C151      1.0  0.17250  0.10250  0.97500  1.0000 -0.0566813463
C   C152      1.0  0.32750  0.39750  0.47500  1.0000 -0.0566813463
C   C153      1.0  0.96780  0.25280  0.01190  1.0000 0.4278234819
C   C154      1.0  0.53220  0.24720  0.51190  1.0000 0.4278234819
C   C155      1.0  0.74720  0.03220  0.98810  1.0000 0.4278234819
C   C156      1.0  0.75280  0.46780  0.48810  1.0000 0.4278234819
C   C157      1.0  0.03220  0.74720  0.98810  1.0000 0.4278234819
C   C158      1.0  0.46780  0.75280  0.48810  1.0000 0.4278234819
C   C159      1.0  0.25280  0.96780  0.01190  1.0000 0.4278234819
C   C160      1.0  0.24720  0.53220  0.51190  1.0000 0.4278234819
N   N1        1.0  0.70220  0.46920  0.04782  1.0000 -0.241068611
N   N2        1.0  0.79780  0.03080  0.54782  1.0000 -0.241068611
N   N3        1.0  0.53080  0.29780  0.95218  1.0000 -0.241068611
N   N4        1.0  0.96920  0.20220  0.45218  1.0000 -0.241068611
N   N5        1.0  0.29780  0.53080  0.95218  1.0000 -0.241068611
N   N6        1.0  0.20220  0.96920  0.45218  1.0000 -0.241068611
N   N7        1.0  0.46920  0.70220  0.04782  1.0000 -0.241068611
N   N8        1.0  0.03080  0.79780  0.54782  1.0000 -0.241068611
N   N9        1.0  0.90690  0.25670  0.05160  1.0000 -0.2316266784
N   N10       1.0  0.59310  0.24330  0.55160  1.0000 -0.2316266784
N   N11       1.0  0.74330  0.09310  0.94840  1.0000 -0.2316266784
N   N12       1.0  0.75670  0.40690  0.44840  1.0000 -0.2316266784
N   N13       1.0  0.09310  0.74330  0.94840  1.0000 -0.2316266784
N   N14       1.0  0.40690  0.75670  0.44840  1.0000 -0.2316266784
N   N15       1.0  0.25670  0.90690  0.05160  1.0000 -0.2316266784
N   N16       1.0  0.24330  0.59310  0.55160  1.0000 -0.2316266784
O   O1        1.0  0.81730  0.81730  0.48120  1.0000 -0.4710590338
O   O2        1.0  0.68270  0.68270  0.98120  1.0000 -0.4710590338
O   O3        1.0  0.18270  0.18270  0.51880  1.0000 -0.4710590338
O   O4        1.0  0.31730  0.31730  0.01880  1.0000 -0.4710590338
O   O5        1.0  0.94510  0.94510  0.46207  1.0000 -0.5039129352
O   O6        1.0  0.55490  0.55490  0.96207  1.0000 -0.5039129352
O   O7        1.0  0.05490  0.05490  0.53793  1.0000 -0.5039129352
O   O8        1.0  0.44510  0.44510  0.03793  1.0000 -0.5039129352
O   O9        1.0  0.71850  0.71850  0.09295  1.0000 -0.5378185903
O   O10       1.0  0.78150  0.78150  0.59295  1.0000 -0.5378185903
O   O11       1.0  0.28150  0.28150  0.90705  1.0000 -0.5378185903
O   O12       1.0  0.21850  0.21850  0.40705  1.0000 -0.5378185903
O   O13       1.0  0.59210  0.59210  0.12180  1.0000 -0.5378185903
O   O14       1.0  0.90790  0.90790  0.62180  1.0000 -0.5378185903
O   O15       1.0  0.40790  0.40790  0.87820  1.0000 -0.5378185903
O   O16       1.0  0.09210  0.09210  0.37820  1.0000 -0.5378185903
O   O17       1.0  0.85480  0.20360  0.12347  1.0000 -0.4075455946
O   O18       1.0  0.64520  0.29640  0.62347  1.0000 -0.4075455946
O   O19       1.0  0.79640  0.14520  0.87653  1.0000 -0.4075455946
O   O20       1.0  0.70360  0.35480  0.37653  1.0000 -0.4075455946
O   O21       1.0  0.14520  0.79640  0.87653  1.0000 -0.4075455946
O   O22       1.0  0.35480  0.70360  0.37653  1.0000 -0.4075455946
O   O23       1.0  0.20360  0.85480  0.12347  1.0000 -0.4075455946
O   O24       1.0  0.29640  0.64520  0.62347  1.0000 -0.4075455946
O   O25       1.0  0.95790  0.30690  0.97915  1.0000 -0.4301105236
O   O26       1.0  0.54210  0.19310  0.47915  1.0000 -0.4301105236
O   O27       1.0  0.69310  0.04210  0.02085  1.0000 -0.4301105236
O   O28       1.0  0.80690  0.45790  0.52085  1.0000 -0.4301105236
O   O29       1.0  0.04210  0.69310  0.02085  1.0000 -0.4301105236
O   O30       1.0  0.45790  0.80690  0.52085  1.0000 -0.4301105236
O   O31       1.0  0.30690  0.95790  0.97915  1.0000 -0.4301105236
O   O32       1.0  0.19310  0.54210  0.47915  1.0000 -0.4301105236
