# DDEC6 charges by PACMAN v1.1 (https://github.com/mtap-research/PACMAN-charge/)
data_2015[Eu][nan]3[FSR]6
_chemical_formula_sum              "Eu4 H56 C96 N8 O24"
_cell_length_a       12.608
_cell_length_b       14.2145
_cell_length_c       14.898
_cell_angle_alpha    69.321
_cell_angle_beta     67.503
_cell_angle_gamma    78.329

_symmetry_space_group_name_H-M    "P 1"
_symmetry_Int_Tables_number       1

loop_
  _symmetry_equiv_pos_as_xyz
  'x, y, z'

loop_
  _atom_site_type_symbol
  _atom_site_label
  _atom_site_symmetry_multiplicity
  _atom_site_fract_x
  _atom_site_fract_y
  _atom_site_fract_z
  _atom_site_occupancy
  _atom_site_charge
Eu  Eu1       1.0  0.43561  0.48158  0.40368  1.0000 1.9548750748
Eu  Eu2       1.0  0.56439  0.51842  0.59632  1.0000 1.9563465147
Eu  Eu3       1.0  0.94846  0.94614  0.90703  1.0000 1.9563465147
Eu  Eu4       1.0  0.05154  0.05386  0.09297  1.0000 1.9563465147
H   H1        1.0  0.69120  0.78990  0.19710  1.0000 0.128371423
H   H2        1.0  0.30880  0.21010  0.80290  1.0000 0.1219364467
H   H3        1.0  0.19330  0.70820  0.21550  1.0000 0.1219364467
H   H4        1.0  0.80670  0.29180  0.78450  1.0000 0.1219364467
H   H5        1.0  0.45640  0.79180  0.47050  1.0000 0.1219364467
H   H6        1.0  0.54360  0.20820  0.52950  1.0000 0.1219364467
H   H7        1.0  0.67480  0.01050  0.31360  1.0000 0.1219364467
H   H8        1.0  0.32520  0.98950  0.68640  1.0000 0.1219364467
H   H9        1.0  0.20280  0.71170  0.71530  1.0000 0.128371423
H   H10       1.0  0.79720  0.28830  0.28470  1.0000 0.128371423
H   H11       1.0  0.17170  0.72070  0.95010  1.0000 0.128371423
H   H12       1.0  0.82830  0.27930  0.04990  1.0000 0.128371423
H   H13       1.0  0.37920  0.50440  0.07360  1.0000 0.1219364467
H   H14       1.0  0.62080  0.49560  0.92640  1.0000 0.1219364467
H   H15       1.0  0.29770  0.57730  0.94780  1.0000 0.1109444158
H   H16       1.0  0.70230  0.42270  0.05220  1.0000 0.1109444158
H   H17       1.0  0.02740  0.93540  0.56230  1.0000 0.1109444158
H   H18       1.0  0.97260  0.06460  0.43770  1.0000 0.1109444158
H   H19       1.0  0.51400  0.94490  0.45020  1.0000 0.1109444158
H   H20       1.0  0.48600  0.05510  0.54980  1.0000 0.1109444158
H   H21       1.0  0.59120  0.33690  0.25130  1.0000 0.1109444158
H   H22       1.0  0.40880  0.66310  0.74870  1.0000 0.1109444158
H   H23       1.0  0.76660  0.11430  0.78800  1.0000 0.1109444158
H   H24       1.0  0.23340  0.88570  0.21200  1.0000 0.1109444158
H   H25       1.0  0.10590  0.87310  0.42400  1.0000 0.1219364467
H   H26       1.0  0.89410  0.12690  0.57600  1.0000 0.1219364467
H   H27       1.0  0.82720  0.55860  0.12440  1.0000 0.1366902818
H   H28       1.0  0.17280  0.44140  0.87560  1.0000 0.1366902818
H   H29       1.0  0.03370  0.32830  0.71680  1.0000 0.1219364467
H   H30       1.0  0.96630  0.67170  0.28320  1.0000 0.1219364467
H   H31       1.0  0.12560  0.07450  0.56660  1.0000 0.128371423
H   H32       1.0  0.87440  0.92550  0.43340  1.0000 0.128371423
H   H33       1.0  0.59880  0.20180  0.19620  1.0000 0.128371423
H   H34       1.0  0.40120  0.79820  0.80380  1.0000 0.128371423
H   H35       1.0  0.17620  0.43870  0.61130  1.0000 0.1109444158
H   H36       1.0  0.82380  0.56130  0.38870  1.0000 0.1109444158
H   H37       1.0  0.94110  0.69480  0.03440  1.0000 0.1109444158
H   H38       1.0  0.05890  0.30520  0.96560  1.0000 0.1109444158
H   H39       1.0  0.03020  0.18590  0.67770  1.0000 0.128371423
H   H40       1.0  0.96980  0.81410  0.32230  1.0000 0.128371423
H   H41       1.0  0.22030  0.72420  0.43610  1.0000 0.128371423
H   H42       1.0  0.77970  0.27580  0.56390  1.0000 0.128371423
H   H43       1.0  0.64220  0.57780  0.12110  1.0000 0.1366902818
H   H44       1.0  0.35780  0.42220  0.87890  1.0000 0.1366902818
H   H45       1.0  0.58310  0.14750  0.77970  1.0000 0.1366902818
H   H46       1.0  0.41690  0.85250  0.22030  1.0000 0.1366902818
H   H47       1.0  0.26830  0.04330  0.42880  1.0000 0.128371423
H   H48       1.0  0.73170  0.95670  0.57120  1.0000 0.128371423
H   H49       1.0  0.49100  0.68510  0.05650  1.0000 0.1219364467
H   H50       1.0  0.50900  0.31490  0.94350  1.0000 0.1219364467
H   H51       1.0  0.42330  0.83810  0.96960  1.0000 0.128371423
H   H52       1.0  0.57670  0.16190  0.03040  1.0000 0.128371423
H   H53       1.0  0.44690  0.09810  0.27790  1.0000 0.1109444158
H   H54       1.0  0.55310  0.90190  0.72210  1.0000 0.1109444158
H   H55       1.0  0.45940  0.02000  0.85820  1.0000 0.1219364467
H   H56       1.0  0.54060  0.98000  0.14180  1.0000 0.1219364467
C   C1        1.0  0.53540  0.67260  0.35490  1.0000 0.5946544637
C   C2        1.0  0.46460  0.32740  0.64510  1.0000 0.5946544637
C   C3        1.0  0.70140  0.90630  0.24130  1.0000 -0.0295844274
C   C4        1.0  0.29860  0.09370  0.75870  1.0000 -0.0295844274
C   C5        1.0  0.79930  0.95310  0.15020  1.0000 0.6377432276
C   C6        1.0  0.20070  0.04690  0.84980  1.0000 0.6377432276
C   C7        1.0  0.17210  0.73130  0.08150  1.0000 -0.038276806
C   C8        1.0  0.82790  0.26870  0.91850  1.0000 -0.038276806
C   C9        1.0  0.57000  0.77320  0.33750  1.0000 -0.0203907839
C   C10       1.0  0.43000  0.22680  0.66250  1.0000 -0.0203907839
C   C11       1.0  0.65940  0.81860  0.25000  1.0000 -0.1388040876
C   C12       1.0  0.34060  0.18140  0.75000  1.0000 -0.1388040876
C   C13       1.0  0.29420  0.59860  0.15830  1.0000 -0.0203907839
C   C14       1.0  0.70580  0.40140  0.84170  1.0000 -0.0203907839
C   C15       1.0  0.21630  0.68330  0.16040  1.0000 -0.1198551315
C   C16       1.0  0.78370  0.31670  0.83960  1.0000 -0.1198551315
C   C17       1.0  0.30290  0.60770  0.58040  1.0000 0.6377432276
C   C18       1.0  0.69710  0.39230  0.41960  1.0000 0.6377432276
C   C19       1.0  0.10520  0.82860  0.65300  1.0000 -0.0099639944
C   C20       1.0  0.89480  0.17140  0.34700  1.0000 -0.0099639944
C   C21       1.0  0.09640  0.82710  0.08050  1.0000 0.6322396327
C   C22       1.0  0.90360  0.17290  0.91950  1.0000 0.6322396327
C   C23       1.0  0.51660  0.82080  0.41260  1.0000 -0.1087190049
C   C24       1.0  0.48340  0.17920  0.58740  1.0000 -0.1087190049
C   C25       1.0  0.05200  0.86970  0.74230  1.0000 0.5637957979
C   C26       1.0  0.94800  0.13030  0.25770  1.0000 0.5637957979
C   C27       1.0  0.64740  0.95230  0.31820  1.0000 -0.1198551315
C   C28       1.0  0.35260  0.04770  0.68180  1.0000 -0.1198551315
C   C29       1.0  0.34400  0.55310  0.24180  1.0000 0.5651729931
C   C30       1.0  0.65600  0.44690  0.75820  1.0000 0.5651729931
C   C31       1.0  0.18110  0.74260  0.65790  1.0000 -0.1198551315
C   C32       1.0  0.81890  0.25740  0.34210  1.0000 -0.1198551315
C   C33       1.0  0.26440  0.27550  0.49670  1.0000 0.128371423
C   C34       1.0  0.73560  0.72450  0.50330  1.0000 0.128371423
C   C35       1.0  0.20230  0.69060  0.00230  1.0000 -0.1017240803
C   C36       1.0  0.79770  0.30940  0.99770  1.0000 -0.1017240803
C   C37       1.0  0.32610  0.56010  0.07670  1.0000 -0.1017240803
C   C38       1.0  0.67390  0.43990  0.92330  1.0000 -0.1017240803
C   C39       1.0  0.27860  0.60470  0.00070  1.0000 -0.1017240803
C   C40       1.0  0.72140  0.39530  0.99930  1.0000 -0.1087190049
C   C41       1.0  0.35690  0.25260  0.41300  1.0000 0.1219364467
C   C42       1.0  0.64310  0.74740  0.58700  1.0000 0.1219364467
C   C43       1.0  0.22460  0.70270  0.57670  1.0000 -0.0295844274
C   C44       1.0  0.77540  0.29730  0.42330  1.0000 -0.0295844274
C   C45       1.0  0.68070  0.90020  0.92310  1.0000 0.1219364467
C   C46       1.0  0.31930  0.09980  0.07690  1.0000 0.1219364467
C   C47       1.0  0.64760  0.72370  0.03030  1.0000 0.0497470179
C   C48       1.0  0.35240  0.27630  0.96970  1.0000 0.0497470179
C   C49       1.0  0.72310  0.80350  0.97850  1.0000 0.1366902818
C   C50       1.0  0.27690  0.19650  0.02150  1.0000 0.1366902818
C   C51       1.0  0.07710  0.87710  0.56580  1.0000 -0.1087190049
C   C52       1.0  0.92290  0.12290  0.43420  1.0000 -0.1087190049
C   C53       1.0  0.55280  0.91140  0.40170  1.0000 -0.1087190049
C   C54       1.0  0.44720  0.08860  0.59830  1.0000 -0.1087190049
C   C55       1.0  0.17730  0.20690  0.55510  1.0000 0.0497470179
C   C56       1.0  0.82270  0.79310  0.44490  1.0000 0.0497470179
C   C57       1.0  0.53130  0.29460  0.28560  1.0000 0.1219364467
C   C58       1.0  0.46870  0.70540  0.71440  1.0000 0.1219364467
C   C59       1.0  0.56860  0.91400  0.91970  1.0000 0.0399296493
C   C60       1.0  0.43140  0.08600  0.08030  1.0000 0.0399296493
C   C61       1.0  0.71640  0.06330  0.82280  1.0000 0.1109444158
C   C62       1.0  0.28360  0.93670  0.17720  1.0000 0.1109444158
C   C63       1.0  0.12290  0.83910  0.48340  1.0000 -0.1087190049
C   C64       1.0  0.87710  0.16090  0.51660  1.0000 -0.1087190049
C   C65       1.0  0.79850  0.61940  0.08800  1.0000 -0.1494599353
C   C66       1.0  0.20150  0.38060  0.91200  1.0000 -0.1494599353
C   C67       1.0  0.35600  0.16760  0.38530  1.0000 0.0497470179
C   C68       1.0  0.64400  0.83240  0.61470  1.0000 0.0497470179
C   C69       1.0  0.09050  0.31380  0.66030  1.0000 -0.1388040876
C   C70       1.0  0.90950  0.68620  0.33970  1.0000 -0.1388040876
C   C71       1.0  0.18230  0.11960  0.52740  1.0000 -0.1255882006
C   C72       1.0  0.81770  0.88040  0.47260  1.0000 -0.1255882006
C   C73       1.0  0.53660  0.21350  0.25110  1.0000 -0.1494599353
C   C74       1.0  0.46340  0.78650  0.74890  1.0000 -0.1494599353
C   C75       1.0  0.17890  0.37950  0.59710  1.0000 0.1109444158
C   C76       1.0  0.82110  0.62050  0.40290  1.0000 0.1109444158
C   C77       1.0  0.86660  0.70290  0.03320  1.0000 0.1109444158
C   C78       1.0  0.13340  0.29710  0.96680  1.0000 0.1109444158
C   C79       1.0  0.08920  0.22870  0.63800  1.0000 -0.0751641537
C   C80       1.0  0.91080  0.77130  0.36200  1.0000 -0.0751641537
C   C81       1.0  0.19330  0.75150  0.48990  1.0000 -0.0927857703
C   C82       1.0  0.80670  0.24850  0.51010  1.0000 -0.1017240803
C   C83       1.0  0.68920  0.63120  0.08580  1.0000 -0.061643492
C   C84       1.0  0.31080  0.36880  0.91420  1.0000 -0.061643492
C   C85       1.0  0.60610  0.08370  0.81600  1.0000 -0.1388040876
C   C86       1.0  0.39390  0.91630  0.18400  1.0000 -0.1388040876
C   C87       1.0  0.26760  0.10060  0.44570  1.0000 -0.1494599353
C   C88       1.0  0.73240  0.89940  0.55430  1.0000 -0.1494599353
C   C89       1.0  0.53810  0.73850  0.02420  1.0000 -0.1198551315
C   C90       1.0  0.46190  0.26150  0.97580  1.0000 -0.1198551315
C   C91       1.0  0.49750  0.83020  0.97170  1.0000 -0.1587007414
C   C92       1.0  0.50250  0.16980  0.02830  1.0000 -0.1587007414
C   C93       1.0  0.44670  0.15110  0.30080  1.0000 -0.1017240803
C   C94       1.0  0.55330  0.84890  0.69920  1.0000 -0.1017240803
C   C95       1.0  0.53240  0.00860  0.86330  1.0000 -0.0927857703
C   C96       1.0  0.46760  0.99140  0.13670  1.0000 -0.0927857703
N   N1        1.0  0.26590  0.36080  0.51790  1.0000 -0.3655800592
N   N2        1.0  0.73410  0.63920  0.48210  1.0000 -0.3655800592
N   N3        1.0  0.75340  0.97590  0.87580  1.0000 -0.3500565808
N   N4        1.0  0.24660  0.02410  0.12420  1.0000 -0.3500565808
N   N5        1.0  0.83140  0.79190  0.98030  1.0000 -0.3642029833
N   N6        1.0  0.16860  0.20810  0.01970  1.0000 -0.3642029833
N   N7        1.0  0.44620  0.31460  0.36390  1.0000 -0.3783910643
N   N8        1.0  0.55380  0.68540  0.63610  1.0000 -0.3783910643
O   O1        1.0  0.44360  0.50940  0.22200  1.0000 -0.6215999495
O   O2        1.0  0.55640  0.49060  0.77800  1.0000 -0.6215999495
O   O3        1.0  0.07040  0.82090  0.82390  1.0000 -0.6087692749
O   O4        1.0  0.92960  0.17910  0.17610  1.0000 -0.6087692749
O   O5        1.0  0.52970  0.60560  0.44010  1.0000 -0.7213386666
O   O6        1.0  0.47030  0.39440  0.55990  1.0000 -0.7213386666
O   O7        1.0  0.80520  0.95280  0.06470  1.0000 -0.6583598863
O   O8        1.0  0.19480  0.04720  0.93530  1.0000 -0.6583598863
O   O9        1.0  0.87130  0.98860  0.16730  1.0000 -0.6583598863
O   O10       1.0  0.12870  0.01140  0.83270  1.0000 -0.6583598863
O   O11       1.0  0.36270  0.58130  0.63800  1.0000 -0.6583598863
O   O12       1.0  0.63730  0.41870  0.36200  1.0000 -0.6495355975
O   O13       1.0  0.30720  0.56230  0.52050  1.0000 -0.6495355975
O   O14       1.0  0.69280  0.43770  0.47950  1.0000 -0.6495355975
O   O15       1.0  0.99100  0.95290  0.73140  1.0000 -0.6397161852
O   O16       1.0  0.00900  0.04710  0.26860  1.0000 -0.6397161852
O   O17       1.0  0.03520  0.85450  0.02480  1.0000 -0.6795368563
O   O18       1.0  0.96480  0.14550  0.97520  1.0000 -0.6795368563
O   O19       1.0  0.50810  0.65550  0.29120  1.0000 -0.5649142038
O   O20       1.0  0.49190  0.34450  0.70880  1.0000 -0.5649142038
O   O21       1.0  0.28770  0.56100  0.32870  1.0000 -0.6087692749
O   O22       1.0  0.71230  0.43900  0.67130  1.0000 -0.6087692749
O   O23       1.0  0.10030  0.87740  0.13350  1.0000 -0.6495355975
O   O24       1.0  0.89970  0.12260  0.86650  1.0000 -0.6495355975
