# DDEC6 charges by PACMAN v1.1 (https://github.com/mtap-research/PACMAN-charge/)
data_2015[Zn][nan]3[FSR]53
_chemical_formula_sum              "Zn6 H56 C76 N4 O36"
_cell_length_a       12.3858
_cell_length_b       12.3858
_cell_length_c       16.309
_cell_angle_alpha    77.4326
_cell_angle_beta     102.567
_cell_angle_gamma    84.4403

_symmetry_space_group_name_H-M    "P 1"
_symmetry_Int_Tables_number       1

loop_
  _symmetry_equiv_pos_as_xyz
  'x, y, z'

loop_
  _atom_site_type_symbol
  _atom_site_label
  _atom_site_symmetry_multiplicity
  _atom_site_fract_x
  _atom_site_fract_y
  _atom_site_fract_z
  _atom_site_occupancy
  _atom_site_charge
Zn  Zn1       1.0  0.80278  0.92178  0.63549  1.0000 0.9357912325
Zn  Zn2       1.0  0.92178  0.80278  0.86451  1.0000 0.9357912325
Zn  Zn3       1.0  0.19722  0.07822  0.36451  1.0000 0.9357912325
Zn  Zn4       1.0  0.07822  0.19722  0.13549  1.0000 0.9357912325
Zn  Zn5       1.0  0.50000  0.00000  0.50000  1.0000 0.9689159625
Zn  Zn6       1.0  0.00000  0.50000  0.00000  1.0000 0.9689159625
H   H1        1.0  0.39260  0.76440  0.99370  1.0000 0.3633444243
H   H2        1.0  0.76440  0.39260  0.50630  1.0000 0.3633444243
H   H3        1.0  0.60740  0.23560  0.00630  1.0000 0.3633444243
H   H4        1.0  0.23560  0.60740  0.49370  1.0000 0.3633444243
H   H5        1.0  0.56790  0.20270  0.34260  1.0000 0.1122464993
H   H6        1.0  0.20270  0.56790  0.15740  1.0000 0.1122464993
H   H7        1.0  0.43210  0.79730  0.65740  1.0000 0.1122464993
H   H8        1.0  0.79730  0.43210  0.84260  1.0000 0.1122464993
H   H9        1.0  0.75580  0.29620  0.17250  1.0000 0.1199671087
H   H10       1.0  0.29620  0.75580  0.32750  1.0000 0.1199671087
H   H11       1.0  0.24420  0.70380  0.82750  1.0000 0.1199671087
H   H12       1.0  0.70380  0.24420  0.67250  1.0000 0.1199671087
H   H13       1.0  0.89540  0.08760  0.40600  1.0000 0.1377118685
H   H14       1.0  0.08760  0.89540  0.09400  1.0000 0.1377118685
H   H15       1.0  0.10460  0.91240  0.59400  1.0000 0.1377118685
H   H16       1.0  0.91240  0.10460  0.90600  1.0000 0.1377118685
H   H17       1.0  0.42910  0.23570  0.20730  1.0000 0.1199671087
H   H18       1.0  0.23570  0.42910  0.29270  1.0000 0.1199671087
H   H19       1.0  0.57090  0.76430  0.79270  1.0000 0.1199671087
H   H20       1.0  0.76430  0.57090  0.70730  1.0000 0.1199671087
H   H21       1.0  0.29360  0.52960  0.03860  1.0000 0.1199671087
H   H22       1.0  0.52960  0.29360  0.46140  1.0000 0.1199671087
H   H23       1.0  0.70640  0.47040  0.96140  1.0000 0.1199671087
H   H24       1.0  0.47040  0.70640  0.53860  1.0000 0.1199671087
H   H25       1.0  0.62080  0.46920  0.15160  1.0000 0.1122464993
H   H26       1.0  0.46920  0.62080  0.34840  1.0000 0.1122464993
H   H27       1.0  0.37920  0.53080  0.84840  1.0000 0.1122464993
H   H28       1.0  0.53080  0.37920  0.65160  1.0000 0.1122464993
H   H29       1.0  0.54920  0.84600  0.39370  1.0000 0.1199671087
H   H30       1.0  0.84600  0.54920  0.10630  1.0000 0.1199671087
H   H31       1.0  0.45080  0.15400  0.60630  1.0000 0.1199671087
H   H32       1.0  0.15400  0.45080  0.89370  1.0000 0.1199671087
H   H33       1.0  0.49000  0.04060  0.16990  1.0000 0.1258702033
H   H34       1.0  0.04060  0.49000  0.33010  1.0000 0.1258702033
H   H35       1.0  0.51000  0.95940  0.83010  1.0000 0.1258702033
H   H36       1.0  0.95940  0.51000  0.66990  1.0000 0.1258702033
H   H37       1.0  0.40190  0.96150  0.14900  1.0000 0.1258702033
H   H38       1.0  0.96150  0.40190  0.35100  1.0000 0.1258702033
H   H39       1.0  0.59810  0.03850  0.85100  1.0000 0.1258702033
H   H40       1.0  0.03850  0.59810  0.64900  1.0000 0.1258702033
H   H41       1.0  0.38820  0.03740  0.21260  1.0000 0.1377118685
H   H42       1.0  0.03740  0.38820  0.28740  1.0000 0.1377118685
H   H43       1.0  0.61180  0.96260  0.78740  1.0000 0.1377118685
H   H44       1.0  0.96260  0.61180  0.71260  1.0000 0.1377118685
H   H45       1.0  0.49410  0.78270  0.20450  1.0000 0.1199671087
H   H46       1.0  0.78270  0.49410  0.29550  1.0000 0.1258702033
H   H47       1.0  0.50590  0.21730  0.79550  1.0000 0.1258702033
H   H48       1.0  0.21730  0.50590  0.70450  1.0000 0.1258702033
H   H49       1.0  0.61130  0.82310  0.21610  1.0000 0.1377118685
H   H50       1.0  0.82310  0.61130  0.28390  1.0000 0.1377118685
H   H51       1.0  0.38870  0.17690  0.78390  1.0000 0.1377118685
H   H52       1.0  0.17690  0.38870  0.71610  1.0000 0.1377118685
H   H53       1.0  0.57940  0.74880  0.29560  1.0000 0.1258702033
H   H54       1.0  0.74880  0.57940  0.20440  1.0000 0.1258702033
H   H55       1.0  0.42060  0.25120  0.70440  1.0000 0.1258702033
H   H56       1.0  0.25120  0.42060  0.79560  1.0000 0.1258702033
C   C1        1.0  0.72030  0.06930  0.47260  1.0000 0.5893924393
C   C2        1.0  0.06930  0.72030  0.02740  1.0000 0.5893924393
C   C3        1.0  0.27970  0.93070  0.52740  1.0000 0.5893924393
C   C4        1.0  0.93070  0.27970  0.97260  1.0000 0.5893924393
C   C5        1.0  0.73030  0.13330  0.38590  1.0000 -0.0203014472
C   C6        1.0  0.13330  0.73030  0.11410  1.0000 -0.0203014472
C   C7        1.0  0.26970  0.86670  0.61410  1.0000 -0.0203014472
C   C8        1.0  0.86670  0.26970  0.88590  1.0000 -0.0203014472
C   C9        1.0  0.63640  0.19960  0.32790  1.0000 -0.1481491133
C   C10       1.0  0.19960  0.63640  0.17210  1.0000 -0.1481491133
C   C11       1.0  0.36360  0.80040  0.67210  1.0000 -0.1481491133
C   C12       1.0  0.80040  0.36360  0.82790  1.0000 -0.1481491133
C   C13       1.0  0.64380  0.26220  0.24670  1.0000 0.0675072306
C   C14       1.0  0.26220  0.64380  0.25330  1.0000 0.0675072306
C   C15       1.0  0.35620  0.73780  0.75330  1.0000 0.0675072306
C   C16       1.0  0.73780  0.35620  0.74670  1.0000 0.0675072306
C   C17       1.0  0.74890  0.25610  0.22590  1.0000 -0.1633212037
C   C18       1.0  0.25610  0.74890  0.27410  1.0000 -0.1633212037
C   C19       1.0  0.25110  0.74390  0.77410  1.0000 -0.1633212037
C   C20       1.0  0.74390  0.25110  0.72590  1.0000 -0.1633212037
C   C21       1.0  0.84210  0.18950  0.28570  1.0000 -0.0281885855
C   C22       1.0  0.18950  0.84210  0.21430  1.0000 -0.0281885855
C   C23       1.0  0.15790  0.81050  0.71430  1.0000 -0.0281885855
C   C24       1.0  0.81050  0.15790  0.78570  1.0000 -0.0281885855
C   C25       1.0  0.83240  0.13000  0.36580  1.0000 -0.1240382149
C   C26       1.0  0.13000  0.83240  0.13420  1.0000 -0.1240382149
C   C27       1.0  0.16760  0.87000  0.63420  1.0000 -0.1240382149
C   C28       1.0  0.87000  0.16760  0.86580  1.0000 -0.1240382149
C   C29       1.0  0.95400  0.17960  0.26470  1.0000 0.5893924393
C   C30       1.0  0.17960  0.95400  0.23530  1.0000 0.5893924393
C   C31       1.0  0.04600  0.82040  0.73530  1.0000 0.5893924393
C   C32       1.0  0.82040  0.04600  0.76470  1.0000 0.5893924393
C   C33       1.0  0.54330  0.33810  0.18740  1.0000 0.0615690135
C   C34       1.0  0.33810  0.54330  0.31260  1.0000 0.0615690135
C   C35       1.0  0.45670  0.66190  0.81260  1.0000 0.0615690135
C   C36       1.0  0.66190  0.45670  0.68740  1.0000 0.0615690135
C   C37       1.0  0.43770  0.30530  0.17600  1.0000 -0.1481491133
C   C38       1.0  0.30530  0.43770  0.32400  1.0000 -0.1481491133
C   C39       1.0  0.56230  0.69470  0.82400  1.0000 -0.1481491133
C   C40       1.0  0.69470  0.56230  0.67600  1.0000 -0.1481491133
C   C41       1.0  0.34490  0.37510  0.11870  1.0000 -0.0082311876
C   C42       1.0  0.37510  0.34490  0.38130  1.0000 -0.0082311876
C   C43       1.0  0.65510  0.62490  0.88130  1.0000 -0.0082311876
C   C44       1.0  0.62490  0.65510  0.61870  1.0000 -0.0082311876
C   C45       1.0  0.35550  0.48230  0.07680  1.0000 -0.1326501287
C   C46       1.0  0.48230  0.35550  0.42320  1.0000 -0.1326501287
C   C47       1.0  0.64450  0.51770  0.92320  1.0000 -0.1326501287
C   C48       1.0  0.51770  0.64450  0.57680  1.0000 -0.1326501287
C   C49       1.0  0.45840  0.51880  0.09210  1.0000 -0.0420632764
C   C50       1.0  0.51880  0.45840  0.40790  1.0000 -0.0420632764
C   C51       1.0  0.54160  0.48120  0.90790  1.0000 -0.0420632764
C   C52       1.0  0.48120  0.54160  0.59210  1.0000 -0.0420632764
C   C53       1.0  0.55100  0.44560  0.14470  1.0000 -0.1481491133
C   C54       1.0  0.44560  0.55100  0.35530  1.0000 -0.1481491133
C   C55       1.0  0.44900  0.55440  0.85530  1.0000 -0.1481491133
C   C56       1.0  0.55440  0.44900  0.64470  1.0000 -0.1481491133
C   C57       1.0  0.23160  0.33720  0.10620  1.0000 0.571737551
C   C58       1.0  0.33720  0.23160  0.39380  1.0000 0.571737551
C   C59       1.0  0.76840  0.66280  0.89380  1.0000 0.571737551
C   C60       1.0  0.66280  0.76840  0.60620  1.0000 0.571737551
C   C61       1.0  0.47330  0.63570  0.05560  1.0000 0.5348732107
C   C62       1.0  0.63570  0.47330  0.44440  1.0000 0.5352649324
C   C63       1.0  0.52670  0.36430  0.94440  1.0000 0.5352649324
C   C64       1.0  0.36430  0.52670  0.55560  1.0000 0.5352649324
C   C65       1.0  0.51700  0.91060  0.35060  1.0000 0.3159359826
C   C66       1.0  0.91060  0.51700  0.14940  1.0000 0.3148597412
C   C67       1.0  0.48300  0.08940  0.64940  1.0000 0.3159359826
C   C68       1.0  0.08940  0.48300  0.85060  1.0000 0.3159359826
C   C69       1.0  0.44120  0.99360  0.19310  1.0000 -0.2982636161
C   C70       1.0  0.99360  0.44120  0.30690  1.0000 -0.2982636161
C   C71       1.0  0.55880  0.00640  0.80690  1.0000 -0.2982636161
C   C72       1.0  0.00640  0.55880  0.69310  1.0000 -0.2982636161
C   C73       1.0  0.55140  0.80700  0.24330  1.0000 -0.3209693983
C   C74       1.0  0.80700  0.55140  0.25670  1.0000 -0.3209693983
C   C75       1.0  0.44860  0.19300  0.75670  1.0000 -0.3209693983
C   C76       1.0  0.19300  0.44860  0.74330  1.0000 -0.3209693983
N   N1        1.0  0.50500  0.90680  0.26380  1.0000 -0.0203014472
N   N2        1.0  0.90680  0.50500  0.23620  1.0000 -0.0203014472
N   N3        1.0  0.49500  0.09320  0.73620  1.0000 -0.0203014472
N   N4        1.0  0.09320  0.49500  0.76380  1.0000 -0.0203014472
O   O1        1.0  0.80579  0.99959  0.51880  1.0000 -0.5331611998
O   O2        1.0  0.99959  0.80579  0.98120  1.0000 -0.5331611998
O   O3        1.0  0.19421  0.00041  0.48120  1.0000 -0.5331611998
O   O4        1.0  0.00041  0.19421  0.01880  1.0000 -0.5331611998
O   O5        1.0  0.63269  0.08549  0.49540  1.0000 -0.5631848416
O   O6        1.0  0.08549  0.63269  0.00460  1.0000 -0.5631848416
O   O7        1.0  0.36731  0.91451  0.50460  1.0000 -0.5631848416
O   O8        1.0  0.91451  0.36731  0.99540  1.0000 -0.5631848416
O   O9        1.0  0.22389  0.24489  0.15030  1.0000 -0.5158070765
O   O10       1.0  0.24489  0.22389  0.34970  1.0000 -0.5158070765
O   O11       1.0  0.77611  0.75511  0.84970  1.0000 -0.5158070765
O   O12       1.0  0.75511  0.77611  0.65030  1.0000 -0.5158070765
O   O13       1.0  0.15350  0.39690  0.05080  1.0000 -0.5631848416
O   O14       1.0  0.39690  0.15350  0.44920  1.0000 -0.5631848416
O   O15       1.0  0.84650  0.60310  0.94920  1.0000 -0.5631848416
O   O16       1.0  0.60310  0.84650  0.55080  1.0000 -0.5631848416
O   O17       1.0  0.38170  0.69910  0.00500  1.0000 -0.4338587291
O   O18       1.0  0.69910  0.38170  0.49500  1.0000 -0.435695029
O   O19       1.0  0.61830  0.30090  0.99500  1.0000 -0.435695029
O   O20       1.0  0.30090  0.61830  0.50500  1.0000 -0.435695029
O   O21       1.0  0.56260  0.66960  0.07280  1.0000 -0.5158070765
O   O22       1.0  0.66960  0.56260  0.42720  1.0000 -0.5158070765
O   O23       1.0  0.43740  0.33040  0.92720  1.0000 -0.5158070765
O   O24       1.0  0.33040  0.43740  0.57280  1.0000 -0.5158070765
O   O25       1.0  0.96028  0.23188  0.19150  1.0000 -0.5417010403
O   O26       1.0  0.23188  0.96028  0.30850  1.0000 -0.5417010403
O   O27       1.0  0.03972  0.76812  0.80850  1.0000 -0.5417010403
O   O28       1.0  0.76812  0.03972  0.69150  1.0000 -0.5417010403
O   O29       1.0  0.03340  0.12060  0.32340  1.0000 -0.5417010403
O   O30       1.0  0.12060  0.03340  0.17660  1.0000 -0.5417010403
O   O31       1.0  0.96660  0.87940  0.67660  1.0000 -0.5417010403
O   O32       1.0  0.87940  0.96660  0.82340  1.0000 -0.5417010403
O   O33       1.0  0.48970  0.98730  0.37030  1.0000 -0.3209693983
O   O34       1.0  0.98730  0.48970  0.12970  1.0000 -0.3209693983
O   O35       1.0  0.51030  0.01270  0.62970  1.0000 -0.3209693983
O   O36       1.0  0.01270  0.51030  0.87030  1.0000 -0.3209693983
