# DDEC6 charges by PACMAN v1.1 (https://github.com/mtap-research/PACMAN-charge/)
data_2015[Co][sqc]3[FSR]2
_chemical_formula_sum              "Co3 H58 C84 N12 O20"
_cell_length_a       10.0345
_cell_length_b       15.2852
_cell_length_c       18.421
_cell_angle_alpha    112.268
_cell_angle_beta     87.024
_cell_angle_gamma    102.639

_symmetry_space_group_name_H-M    "P 1"
_symmetry_Int_Tables_number       1

loop_
  _symmetry_equiv_pos_as_xyz
  'x, y, z'

loop_
  _atom_site_type_symbol
  _atom_site_label
  _atom_site_symmetry_multiplicity
  _atom_site_fract_x
  _atom_site_fract_y
  _atom_site_fract_z
  _atom_site_occupancy
  _atom_site_charge
Co  Co1       1.0  0.13828  0.98040  0.56713  1.0000 0.8419939303
Co  Co2       1.0  0.86172  0.01960  0.43287  1.0000 0.8419939303
Co  Co3       1.0  0.50000  0.00000  0.00000  1.0000 0.8782515848
H   H1        1.0  0.27690  0.91080  0.92200  1.0000 0.3629114652
H   H2        1.0  0.72310  0.08920  0.07800  1.0000 0.3629114652
H   H3        1.0  0.25650  0.00290  0.97070  1.0000 0.3653839552
H   H4        1.0  0.74350  0.99710  0.02930  1.0000 0.3653839552
H   H5        1.0  0.54930  0.33680  0.25520  1.0000 0.2858644301
H   H6        1.0  0.45070  0.66320  0.74480  1.0000 0.2858644301
H   H7        1.0  0.39200  0.99100  0.42830  1.0000 0.1365777576
H   H8        1.0  0.60800  0.00900  0.57170  1.0000 0.1365777576
H   H9        1.0  0.09810  0.63980  0.32150  1.0000 0.2758403742
H   H10       1.0  0.90190  0.36020  0.67850  1.0000 0.2758403742
H   H11       1.0  0.08470  0.28260  0.83080  1.0000 0.2858644301
H   H12       1.0  0.91530  0.71740  0.16920  1.0000 0.2858644301
H   H13       1.0  0.16390  0.97660  0.24910  1.0000 0.1198380699
H   H14       1.0  0.83610  0.02340  0.75090  1.0000 0.1198380699
H   H15       1.0  0.63890  0.44280  0.37000  1.0000 0.1198380699
H   H16       1.0  0.36110  0.55720  0.63000  1.0000 0.1198380699
H   H17       1.0  0.11280  0.79120  0.41630  1.0000 0.1198380699
H   H18       1.0  0.88720  0.20880  0.58370  1.0000 0.1198380699
H   H19       1.0  0.38310  0.50720  0.99030  1.0000 0.1198380699
H   H20       1.0  0.61690  0.49280  0.00970  1.0000 0.1198380699
H   H21       1.0  0.57070  0.00020  0.22910  1.0000 0.1198380699
H   H22       1.0  0.42930  0.99980  0.77090  1.0000 0.1198380699
H   H23       1.0  0.34630  0.55350  0.12160  1.0000 0.1293230762
H   H24       1.0  0.65370  0.44650  0.87840  1.0000 0.1293230762
H   H25       1.0  0.11180  0.13980  0.72100  1.0000 0.1293230762
H   H26       1.0  0.88820  0.86020  0.27900  1.0000 0.1293230762
H   H27       1.0  0.19170  0.55440  0.23050  1.0000 0.1198380699
H   H28       1.0  0.80830  0.44560  0.76950  1.0000 0.1198380699
H   H29       1.0  0.25220  0.53470  0.50290  1.0000 0.1198380699
H   H30       1.0  0.74780  0.46530  0.49710  1.0000 0.1198380699
H   H31       1.0  0.24340  0.16470  0.52470  1.0000 0.1079945998
H   H32       1.0  0.75660  0.83530  0.47530  1.0000 0.1079945998
H   H33       1.0  0.51640  0.18220  0.15420  1.0000 0.1198380699
H   H34       1.0  0.48360  0.81780  0.84580  1.0000 0.1198380699
H   H35       1.0  0.26340  0.49780  0.37080  1.0000 0.1198380699
H   H36       1.0  0.73660  0.50220  0.62920  1.0000 0.1198380699
H   H37       1.0  0.26110  0.40410  0.71910  1.0000 0.1198380699
H   H38       1.0  0.73890  0.59590  0.28090  1.0000 0.1198380699
H   H39       1.0  0.46220  0.41020  0.11060  1.0000 0.1293230762
H   H40       1.0  0.53780  0.58980  0.88940  1.0000 0.1293230762
H   H41       1.0  0.99880  0.34920  0.94020  1.0000 0.1198380699
H   H42       1.0  0.00120  0.65080  0.05980  1.0000 0.1198380699
H   H43       1.0  0.03640  0.82570  0.63480  1.0000 0.1198380699
H   H44       1.0  0.96360  0.17430  0.36520  1.0000 0.1198380699
H   H45       1.0  0.96740  0.55720  0.46930  1.0000 0.1198380699
H   H46       1.0  0.03260  0.44280  0.53070  1.0000 0.1198380699
H   H47       1.0  0.29650  0.33010  0.58520  1.0000 0.1293230762
H   H48       1.0  0.70350  0.66990  0.41480  1.0000 0.1293230762
H   H49       1.0  0.96510  0.66140  0.60030  1.0000 0.1293230762
H   H50       1.0  0.03490  0.33860  0.39970  1.0000 0.1293230762
H   H51       1.0  0.80500  0.40180  0.18290  1.0000 0.1198380699
H   H52       1.0  0.19500  0.59820  0.81710  1.0000 0.1198380699
H   H53       1.0  0.42550  0.30860  0.97920  1.0000 0.1293230762
H   H54       1.0  0.57450  0.69140  0.02080  1.0000 0.1293230762
H   H55       1.0  0.43980  0.14990  0.93860  1.0000 0.1079945998
H   H56       1.0  0.56020  0.85010  0.06140  1.0000 0.1079945998
H   H57       1.0  0.84030  0.35100  0.05160  1.0000 0.1293230762
H   H58       1.0  0.15970  0.64900  0.94840  1.0000 0.1293230762
C   C1        1.0  0.38580  0.99180  0.37782  1.0000 -0.1228357194
C   C2        1.0  0.61420  0.00820  0.62218  1.0000 -0.1228357194
C   C3        1.0  0.25950  0.98780  0.34695  1.0000 -0.0372132784
C   C4        1.0  0.74050  0.01220  0.65305  1.0000 -0.0372132784
C   C5        1.0  0.24950  0.98160  0.27050  1.0000 -0.1228357194
C   C6        1.0  0.75050  0.01840  0.72950  1.0000 -0.1228357194
C   C7        1.0  0.50250  0.99710  0.33417  1.0000 -0.0113305277
C   C8        1.0  0.49750  0.00290  0.66583  1.0000 -0.0113305277
C   C9        1.0  0.55940  0.48680  0.47980  1.0000 0.0867172012
C   C10       1.0  0.44060  0.51320  0.52020  1.0000 0.0867172012
C   C11       1.0  0.13630  0.99180  0.39679  1.0000 0.5638768995
C   C12       1.0  0.86370  0.00820  0.60321  1.0000 0.5638768995
C   C13       1.0  0.14720  0.48300  0.11310  1.0000 0.0867172012
C   C14       1.0  0.85280  0.51700  0.88690  1.0000 0.0867172012
C   C15       1.0  0.36420  0.98260  0.22490  1.0000 -0.0287836928
C   C16       1.0  0.63580  0.01740  0.77510  1.0000 -0.0287836928
C   C17       1.0  0.56140  0.46120  0.39720  1.0000 -0.187605848
C   C18       1.0  0.43860  0.53880  0.60280  1.0000 -0.187605848
C   C19       1.0  0.45280  0.46300  0.35690  1.0000 -0.0231579053
C   C20       1.0  0.54720  0.53700  0.64310  1.0000 -0.0231579053
C   C21       1.0  0.08140  0.76420  0.45380  1.0000 -0.0372132784
C   C22       1.0  0.91860  0.23580  0.54620  1.0000 -0.0372132784
C   C23       1.0  0.44730  0.43460  0.26940  1.0000 0.467417928
C   C24       1.0  0.55270  0.56540  0.73060  1.0000 0.467417928
C   C25       1.0  0.19370  0.42160  0.95230  1.0000 -0.0287836928
C   C26       1.0  0.80630  0.57840  0.04770  1.0000 -0.0287836928
C   C27       1.0  0.63880  0.00750  0.36907  1.0000 0.5311290348
C   C28       1.0  0.36120  0.99250  0.63093  1.0000 0.5311290348
C   C29       1.0  0.29740  0.48460  0.00750  1.0000 -0.1228357194
C   C30       1.0  0.70260  0.51540  0.99250  1.0000 -0.1228357194
C   C31       1.0  0.03760  0.66520  0.42830  1.0000 0.1810050481
C   C32       1.0  0.96240  0.33480  0.57170  1.0000 0.1810050481
C   C33       1.0  0.49170  0.99420  0.25810  1.0000 -0.1228357194
C   C34       1.0  0.50830  0.00580  0.74190  1.0000 -0.1228357194
C   C35       1.0  0.27490  0.51300  0.08540  1.0000 -0.1304836373
C   C36       1.0  0.72510  0.48700  0.91460  1.0000 -0.1304836373
C   C37       1.0  0.15160  0.17920  0.69350  1.0000 -0.0287836928
C   C38       1.0  0.84840  0.82080  0.30650  1.0000 -0.0287836928
C   C39       1.0  0.12100  0.51370  0.19390  1.0000 -0.1745205275
C   C40       1.0  0.87900  0.48630  0.80610  1.0000 -0.1745205275
C   C41       1.0  0.35350  0.96960  0.14020  1.0000 0.5689819181
C   C42       1.0  0.64650  0.03040  0.85980  1.0000 0.5689819181
C   C43       1.0  0.33060  0.51640  0.47680  1.0000 -0.1454421705
C   C44       1.0  0.66940  0.48360  0.52320  1.0000 -0.1454421705
C   C45       1.0  0.22750  0.19340  0.57840  1.0000 0.0656413162
C   C46       1.0  0.77250  0.80660  0.42160  1.0000 0.0656413162
C   C47       1.0  0.49770  0.20840  0.11820  1.0000 -0.0287836928
C   C48       1.0  0.50230  0.79160  0.88180  1.0000 -0.0287836928
C   C49       1.0  0.04050  0.42110  0.05790  1.0000 0.0807760357
C   C50       1.0  0.95950  0.57890  0.94210  1.0000 0.0867172012
C   C51       1.0  0.48760  0.30480  0.14700  1.0000 0.1866101572
C   C52       1.0  0.51240  0.69520  0.85300  1.0000 0.1866101572
C   C53       1.0  0.18310  0.27770  0.73420  1.0000 0.1810050481
C   C54       1.0  0.81690  0.72230  0.26580  1.0000 0.1810050481
C   C55       1.0  0.99630  0.48600  0.22010  1.0000 -0.0287836928
C   C56       1.0  0.00370  0.51400  0.77990  1.0000 -0.0287836928
C   C57       1.0  0.23360  0.39470  0.86810  1.0000 0.4601526582
C   C58       1.0  0.76640  0.60530  0.13190  1.0000 0.4601526582
C   C59       1.0  0.33650  0.49350  0.39830  1.0000 -0.1228357194
C   C60       1.0  0.66350  0.50650  0.60170  1.0000 -0.1228357194
C   C61       1.0  0.97030  0.52060  0.30620  1.0000 0.4601526582
C   C62       1.0  0.02970  0.47940  0.69380  1.0000 0.4601526582
C   C63       1.0  0.23860  0.33640  0.69360  1.0000 -0.1304836373
C   C64       1.0  0.76140  0.66360  0.30640  1.0000 -0.1304836373
C   C65       1.0  0.46460  0.34440  0.09410  1.0000 -0.113003706
C   C66       1.0  0.53540  0.65560  0.90590  1.0000 -0.113003706
C   C67       1.0  0.06810  0.39110  0.97740  1.0000 -0.1827323115
C   C68       1.0  0.93190  0.60890  0.02260  1.0000 -0.1827323115
C   C69       1.0  0.03780  0.78480  0.58180  1.0000 0.0807760357
C   C70       1.0  0.96220  0.21520  0.41820  1.0000 0.0807760357
C   C71       1.0  0.99500  0.62460  0.48400  1.0000 -0.1414328864
C   C72       1.0  0.00500  0.37540  0.51600  1.0000 -0.1414328864
C   C73       1.0  0.25980  0.29220  0.61440  1.0000 -0.1228357194
C   C74       1.0  0.74020  0.70780  0.38560  1.0000 -0.1228357194
C   C75       1.0  0.99470  0.68650  0.56150  1.0000 -0.1304836373
C   C76       1.0  0.00530  0.31350  0.43850  1.0000 -0.1304836373
C   C77       1.0  0.89090  0.42280  0.16510  1.0000 -0.113003706
C   C78       1.0  0.10910  0.57720  0.83490  1.0000 -0.113003706
C   C79       1.0  0.44510  0.28420  0.01640  1.0000 -0.1228357194
C   C80       1.0  0.55490  0.71580  0.98360  1.0000 -0.1228357194
C   C81       1.0  0.45400  0.18930  0.99220  1.0000 0.0531188925
C   C82       1.0  0.54600  0.81070  0.00780  1.0000 0.0531188925
C   C83       1.0  0.91220  0.39230  0.08710  1.0000 -0.1454421705
C   C84       1.0  0.08780  0.60770  0.91290  1.0000 -0.1454421705
N   N1        1.0  0.08160  0.82420  0.52898  1.0000 -0.2107401839
N   N2        1.0  0.91840  0.17580  0.47102  1.0000 -0.2107401839
N   N3        1.0  0.17400  0.13600  0.61738  1.0000 -0.2160394764
N   N4        1.0  0.82600  0.86400  0.38262  1.0000 -0.2160394764
N   N5        1.0  0.50180  0.35640  0.22857  1.0000 -0.3647035336
N   N6        1.0  0.49820  0.64360  0.77143  1.0000 -0.3657373464
N   N7        1.0  0.48230  0.15070  0.04228  1.0000 -0.241124717
N   N8        1.0  0.51770  0.84930  0.95772  1.0000 -0.241124717
N   N9        1.0  0.04260  0.61180  0.34796  1.0000 -0.3756050816
N   N10       1.0  0.95740  0.38820  0.65204  1.0000 -0.3756050816
N   N11       1.0  0.15540  0.31370  0.81449  1.0000 -0.3756050816
N   N12       1.0  0.84460  0.68630  0.18551  1.0000 -0.3756050816
O   O1        1.0  0.46040  0.00079  0.11120  1.0000 -0.6012617624
O   O2        1.0  0.53960  0.99921  0.88880  1.0000 -0.6012617624
O   O3        1.0  0.13600  0.96848  0.45478  1.0000 -0.560583142
O   O4        1.0  0.86400  0.03152  0.54522  1.0000 -0.560583142
O   O5        1.0  0.74550  0.01434  0.33056  1.0000 -0.560583142
O   O6        1.0  0.25450  0.98566  0.66944  1.0000 -0.560583142
O   O7        1.0  0.04090  0.01956  0.37666  1.0000 -0.5324482894
O   O8        1.0  0.95910  0.98044  0.62334  1.0000 -0.5324482894
O   O9        1.0  0.64550  0.00840  0.43695  1.0000 -0.5153729594
O   O10       1.0  0.35450  0.99160  0.56305  1.0000 -0.5153729594
O   O11       1.0  0.28980  0.95450  0.96919  1.0000 -0.6471097743
O   O12       1.0  0.71020  0.04550  0.03081  1.0000 -0.6471097743
O   O13       1.0  0.39330  0.47660  0.23961  1.0000 -0.4481557882
O   O14       1.0  0.60670  0.52340  0.76039  1.0000 -0.4481557882
O   O15       1.0  0.33280  0.44310  0.85019  1.0000 -0.4481557882
O   O16       1.0  0.66720  0.55690  0.14981  1.0000 -0.4481557882
O   O17       1.0  0.89080  0.47180  0.33633  1.0000 -0.4836879647
O   O18       1.0  0.10920  0.52820  0.66367  1.0000 -0.4836879647
O   O19       1.0  0.24170  0.92560  0.10284  1.0000 -0.560583142
O   O20       1.0  0.75830  0.07440  0.89716  1.0000 -0.560583142
