# DDEC6 charges by PACMAN v1.1 (https://github.com/mtap-research/PACMAN-charge/)
data_2015[Sc][nan]3[FSR]1
_chemical_formula_sum              "Sc4 H24 C48 O24"
_cell_length_a       19.9859
_cell_length_b       17.6607
_cell_length_c       11.2569
_cell_angle_alpha    84.3446
_cell_angle_beta     61.5647
_cell_angle_gamma    34.0906

_symmetry_space_group_name_H-M    "P 1"
_symmetry_Int_Tables_number       1

loop_
  _symmetry_equiv_pos_as_xyz
  'x, y, z'

loop_
  _atom_site_type_symbol
  _atom_site_label
  _atom_site_symmetry_multiplicity
  _atom_site_fract_x
  _atom_site_fract_y
  _atom_site_fract_z
  _atom_site_occupancy
  _atom_site_charge
Sc  Sc1       1.0  0.23911  0.23911  0.76089  1.0000 1.8221311675
Sc  Sc2       1.0  0.76089  0.76089  0.23911  1.0000 1.8221311675
Sc  Sc3       1.0  0.01089  0.01089  0.48911  1.0000 1.8221311675
Sc  Sc4       1.0  0.48911  0.48911  0.01089  1.0000 1.8221311675
H   H1        1.0  0.97170  0.87250  0.71410  1.0000 0.1248271987
H   H2        1.0  0.87250  0.97170  0.44170  1.0000 0.1248271987
H   H3        1.0  0.71410  0.44170  0.97170  1.0000 0.1248271987
H   H4        1.0  0.44170  0.71410  0.87250  1.0000 0.1248271987
H   H5        1.0  0.27830  0.37750  0.53590  1.0000 0.1248271987
H   H6        1.0  0.37750  0.27830  0.80830  1.0000 0.1248271987
H   H7        1.0  0.53590  0.80830  0.27830  1.0000 0.1248271987
H   H8        1.0  0.80830  0.53590  0.37750  1.0000 0.1248271987
H   H9        1.0  0.89070  0.84550  0.91090  1.0000 0.1248271987
H   H10       1.0  0.84550  0.89070  0.35290  1.0000 0.1248271987
H   H11       1.0  0.91090  0.35290  0.89070  1.0000 0.1248271987
H   H12       1.0  0.35290  0.91090  0.84550  1.0000 0.1254542724
H   H13       1.0  0.35930  0.40450  0.33910  1.0000 0.1248271987
H   H14       1.0  0.40450  0.35930  0.89710  1.0000 0.1248271987
H   H15       1.0  0.33910  0.89710  0.35930  1.0000 0.1254542724
H   H16       1.0  0.89710  0.33910  0.40450  1.0000 0.1248271987
H   H17       1.0  0.97110  0.53210  0.41690  1.0000 0.1248271987
H   H18       1.0  0.53210  0.97110  0.07990  1.0000 0.1254542724
H   H19       1.0  0.41690  0.07990  0.97110  1.0000 0.1254542724
H   H20       1.0  0.07990  0.41690  0.53210  1.0000 0.1248271987
H   H21       1.0  0.27890  0.71790  0.83310  1.0000 0.1248271987
H   H22       1.0  0.71790  0.27890  0.17010  1.0000 0.1248271987
H   H23       1.0  0.83310  0.17010  0.27890  1.0000 0.1248271987
H   H24       1.0  0.17010  0.83310  0.71790  1.0000 0.1248271987
C   C1        1.0  0.02297  0.59177  0.86743  1.0000 0.6493549452
C   C2        1.0  0.59177  0.02297  0.51783  1.0000 0.6493549452
C   C3        1.0  0.86743  0.51783  0.02297  1.0000 0.6493549452
C   C4        1.0  0.51783  0.86743  0.59177  1.0000 0.6493549452
C   C5        1.0  0.22703  0.65823  0.38257  1.0000 0.6493549452
C   C6        1.0  0.65823  0.22703  0.73217  1.0000 0.6493549452
C   C7        1.0  0.38257  0.73217  0.22703  1.0000 0.6493549452
C   C8        1.0  0.73217  0.38257  0.65823  1.0000 0.6493549452
C   C9        1.0  0.07852  0.60652  0.73968  1.0000 -0.0303792113
C   C10       1.0  0.60652  0.07852  0.57528  1.0000 -0.0303792113
C   C11       1.0  0.73968  0.57528  0.07852  1.0000 -0.0303792113
C   C12       1.0  0.57528  0.73968  0.60652  1.0000 -0.0303792113
C   C13       1.0  0.17148  0.64348  0.51032  1.0000 -0.0303792113
C   C14       1.0  0.64348  0.17148  0.67472  1.0000 -0.0303792113
C   C15       1.0  0.51032  0.67472  0.17148  1.0000 -0.0303792113
C   C16       1.0  0.67472  0.51032  0.64348  1.0000 -0.0303792113
C   C17       1.0  0.18290  0.31710  0.18290  1.0000 -0.0375145159
C   C18       1.0  0.31710  0.18290  0.31710  1.0000 -0.0375145159
C   C19       1.0  0.06710  0.93290  0.06710  1.0000 -0.0375145159
C   C20       1.0  0.93290  0.06710  0.93290  1.0000 -0.0375145159
C   C21       1.0  0.11080  0.38920  0.11080  1.0000 0.6493549452
C   C22       1.0  0.38920  0.11080  0.38920  1.0000 0.6493549452
C   C23       1.0  0.13920  0.86080  0.13920  1.0000 0.6493549452
C   C24       1.0  0.86080  0.13920  0.86080  1.0000 0.6493549452
C   C25       1.0  0.03441  0.77181  0.67739  1.0000 -0.1017439788
C   C26       1.0  0.77181  0.03441  0.51639  1.0000 -0.1017439788
C   C27       1.0  0.67739  0.51639  0.03441  1.0000 -0.1017439788
C   C28       1.0  0.51639  0.67739  0.77181  1.0000 -0.1017439788
C   C29       1.0  0.21559  0.47819  0.57261  1.0000 -0.1017439788
C   C30       1.0  0.47819  0.21559  0.73361  1.0000 -0.1017439788
C   C31       1.0  0.57261  0.73361  0.21559  1.0000 -0.1017439788
C   C32       1.0  0.73361  0.57261  0.47819  1.0000 -0.1017439788
C   C33       1.0  0.98467  0.75667  0.79633  1.0000 -0.1017439788
C   C34       1.0  0.75667  0.98467  0.46233  1.0000 -0.1017439788
C   C35       1.0  0.79633  0.46233  0.98467  1.0000 -0.1017439788
C   C36       1.0  0.46233  0.79633  0.75667  1.0000 -0.1017439788
C   C37       1.0  0.26533  0.49333  0.45367  1.0000 -0.1017439788
C   C38       1.0  0.49333  0.26533  0.78767  1.0000 -0.1017439788
C   C39       1.0  0.45367  0.78767  0.26533  1.0000 -0.1017439788
C   C40       1.0  0.78767  0.45367  0.49333  1.0000 -0.1017439788
C   C41       1.0  0.08341  0.41761  0.34919  1.0000 -0.1017439788
C   C42       1.0  0.41761  0.08341  0.14979  1.0000 -0.1017439788
C   C43       1.0  0.34919  0.14979  0.08341  1.0000 -0.1017439788
C   C44       1.0  0.14979  0.34919  0.41761  1.0000 -0.1017439788
C   C45       1.0  0.16659  0.83239  0.90081  1.0000 -0.1017439788
C   C46       1.0  0.83239  0.16659  0.10021  1.0000 -0.1017439788
C   C47       1.0  0.90081  0.10021  0.16659  1.0000 -0.1017439788
C   C48       1.0  0.10021  0.90081  0.83239  1.0000 -0.1017439788
O   O1        1.0  0.89835  0.71005  0.01815  1.0000 -0.59421124
O   O2        1.0  0.71005  0.89835  0.37345  1.0000 -0.59421124
O   O3        1.0  0.01815  0.37345  0.89835  1.0000 -0.59421124
O   O4        1.0  0.37345  0.01815  0.71005  1.0000 -0.59421124
O   O5        1.0  0.35165  0.53995  0.23185  1.0000 -0.59421124
O   O6        1.0  0.53995  0.35165  0.87655  1.0000 -0.59421124
O   O7        1.0  0.23185  0.87655  0.35165  1.0000 -0.59421124
O   O8        1.0  0.87655  0.23185  0.53995  1.0000 -0.59421124
O   O9        1.0  0.19242  0.28758  0.97342  1.0000 -0.6393499567
O   O10       1.0  0.28758  0.19242  0.54658  1.0000 -0.6393499567
O   O11       1.0  0.97342  0.54658  0.19242  1.0000 -0.6393499567
O   O12       1.0  0.54658  0.97342  0.28758  1.0000 -0.6393499567
O   O13       1.0  0.05758  0.96242  0.27658  1.0000 -0.6393499567
O   O14       1.0  0.96242  0.05758  0.70342  1.0000 -0.6393499567
O   O15       1.0  0.27658  0.70342  0.05758  1.0000 -0.6393499567
O   O16       1.0  0.70342  0.27658  0.96242  1.0000 -0.6393499567
O   O17       1.0  0.11234  0.45222  0.80638  1.0000 -0.6719635322
O   O18       1.0  0.45222  0.11234  0.62906  1.0000 -0.6719635322
O   O19       1.0  0.80638  0.62906  0.11234  1.0000 -0.6719635322
O   O20       1.0  0.62906  0.80638  0.45222  1.0000 -0.6719635322
O   O21       1.0  0.13766  0.79778  0.44362  1.0000 -0.6719635322
O   O22       1.0  0.79778  0.13766  0.62094  1.0000 -0.6719635322
O   O23       1.0  0.44362  0.62094  0.13766  1.0000 -0.6719635322
O   O24       1.0  0.62094  0.44362  0.79778  1.0000 -0.6719635322
