# DDEC6 charges by PACMAN v1.1 (https://github.com/mtap-research/PACMAN-charge/)
data_2015[Cu][dia]3[FSR]4
_chemical_formula_sum              "Cu4 H48 C72 N24 O16"
_cell_length_a       10.137
_cell_length_b       12.6065
_cell_length_c       17.5701
_cell_angle_alpha    90
_cell_angle_beta     90
_cell_angle_gamma    90

_symmetry_space_group_name_H-M    "P 1"
_symmetry_Int_Tables_number       1

loop_
  _symmetry_equiv_pos_as_xyz
  'x, y, z'

loop_
  _atom_site_type_symbol
  _atom_site_label
  _atom_site_symmetry_multiplicity
  _atom_site_fract_x
  _atom_site_fract_y
  _atom_site_fract_z
  _atom_site_occupancy
  _atom_site_charge
Cu  Cu1       1.0  0.00000  0.75000  0.66528  1.0000 0.746874142
Cu  Cu2       1.0  0.50000  0.25000  0.16528  1.0000 0.746874142
Cu  Cu3       1.0  0.50000  0.75000  0.83472  1.0000 0.746874142
Cu  Cu4       1.0  0.00000  0.25000  0.33472  1.0000 0.746874142
H   H1        1.0  0.88580  0.49630  0.49710  1.0000 0.1309702858
H   H2        1.0  0.11420  0.00370  0.49710  1.0000 0.1309702858
H   H3        1.0  0.61420  0.99630  0.99710  1.0000 0.1309702858
H   H4        1.0  0.38580  0.50370  0.99710  1.0000 0.1309702858
H   H5        1.0  0.77740  0.41860  0.39380  1.0000 0.1309702858
H   H6        1.0  0.22260  0.08140  0.39380  1.0000 0.1309702858
H   H7        1.0  0.72260  0.91860  0.89380  1.0000 0.1309702858
H   H8        1.0  0.27740  0.58140  0.89380  1.0000 0.1309702858
H   H9        1.0  0.48370  0.62610  0.42070  1.0000 0.1309702858
H   H10       1.0  0.51630  0.87390  0.42070  1.0000 0.1309702858
H   H11       1.0  0.01630  0.12610  0.92070  1.0000 0.1309702858
H   H12       1.0  0.98370  0.37390  0.92070  1.0000 0.1309702858
H   H13       1.0  0.59220  0.69940  0.52340  1.0000 0.1125917468
H   H14       1.0  0.40780  0.80060  0.52340  1.0000 0.1125917468
H   H15       1.0  0.90780  0.19940  0.02340  1.0000 0.1125917468
H   H16       1.0  0.09220  0.30060  0.02340  1.0000 0.1125917468
H   H17       1.0  0.36300  0.47110  0.20660  1.0000 0.115629803
H   H18       1.0  0.63700  0.02890  0.20660  1.0000 0.115629803
H   H19       1.0  0.13700  0.97110  0.70660  1.0000 0.115629803
H   H20       1.0  0.86300  0.52890  0.70660  1.0000 0.115629803
H   H21       1.0  0.63710  0.32550  0.31930  1.0000 0.1309702858
H   H22       1.0  0.36290  0.17450  0.31930  1.0000 0.1309702858
H   H23       1.0  0.86290  0.82550  0.81930  1.0000 0.1309702858
H   H24       1.0  0.13710  0.67450  0.81930  1.0000 0.1309702858
H   H25       1.0  0.38580  0.00370  0.00290  1.0000 0.1309702858
H   H26       1.0  0.61420  0.49630  0.00290  1.0000 0.1309702858
H   H27       1.0  0.11420  0.50370  0.50290  1.0000 0.1309702858
H   H28       1.0  0.88580  0.99630  0.50290  1.0000 0.1309702858
H   H29       1.0  0.27740  0.08140  0.10620  1.0000 0.1309702858
H   H30       1.0  0.72260  0.41860  0.10620  1.0000 0.1309702858
H   H31       1.0  0.22260  0.58140  0.60620  1.0000 0.1309702858
H   H32       1.0  0.77740  0.91860  0.60620  1.0000 0.1309702858
H   H33       1.0  0.98370  0.87390  0.07930  1.0000 0.1309702858
H   H34       1.0  0.01630  0.62610  0.07930  1.0000 0.1309702858
H   H35       1.0  0.51630  0.37390  0.57930  1.0000 0.1309702858
H   H36       1.0  0.48370  0.12610  0.57930  1.0000 0.1309702858
H   H37       1.0  0.09220  0.80060  0.97660  1.0000 0.1125917468
H   H38       1.0  0.90780  0.69940  0.97660  1.0000 0.1125917468
H   H39       1.0  0.40780  0.30060  0.47660  1.0000 0.1125917468
H   H40       1.0  0.59220  0.19940  0.47660  1.0000 0.1125917468
H   H41       1.0  0.86300  0.02890  0.29340  1.0000 0.115629803
H   H42       1.0  0.13700  0.47110  0.29340  1.0000 0.115629803
H   H43       1.0  0.63700  0.52890  0.79340  1.0000 0.115629803
H   H44       1.0  0.36300  0.97110  0.79340  1.0000 0.115629803
H   H45       1.0  0.13710  0.17450  0.18070  1.0000 0.1309702858
H   H46       1.0  0.86290  0.32550  0.18070  1.0000 0.1309702858
H   H47       1.0  0.36290  0.67450  0.68070  1.0000 0.1309702858
H   H48       1.0  0.63710  0.82550  0.68070  1.0000 0.1309702858
C   C1        1.0  0.82430  0.66210  0.58100  1.0000 0.5379737649
C   C2        1.0  0.17570  0.83790  0.58100  1.0000 0.5379737649
C   C3        1.0  0.67570  0.16210  0.08100  1.0000 0.5379737649
C   C4        1.0  0.32430  0.33790  0.08100  1.0000 0.5379737649
C   C5        1.0  0.75190  0.60710  0.51950  1.0000 -0.036437042
C   C6        1.0  0.24810  0.89290  0.51950  1.0000 -0.036437042
C   C7        1.0  0.74810  0.10710  0.01950  1.0000 -0.036437042
C   C8        1.0  0.25190  0.39290  0.01950  1.0000 -0.036437042
C   C9        1.0  0.80460  0.52300  0.48170  1.0000 -0.0752121698
C   C10       1.0  0.19540  0.97700  0.48170  1.0000 -0.0752121698
C   C11       1.0  0.69540  0.02300  0.98170  1.0000 -0.0752121698
C   C12       1.0  0.30460  0.47700  0.98170  1.0000 -0.0752121698
C   C13       1.0  0.73960  0.47520  0.41990  1.0000 -0.1666449601
C   C14       1.0  0.26040  0.02480  0.41990  1.0000 -0.1666449601
C   C15       1.0  0.76040  0.97520  0.91990  1.0000 -0.1666449601
C   C16       1.0  0.23960  0.52480  0.91990  1.0000 -0.1666449601
C   C17       1.0  0.61900  0.51450  0.39910  1.0000 0.1430127877
C   C18       1.0  0.38100  0.98550  0.39910  1.0000 0.1430127877
C   C19       1.0  0.88100  0.01450  0.89910  1.0000 0.1430127877
C   C20       1.0  0.11900  0.48550  0.89910  1.0000 0.1430127877
C   C21       1.0  0.56460  0.59890  0.43620  1.0000 -0.1666449601
C   C22       1.0  0.43540  0.90110  0.43620  1.0000 -0.1666449601
C   C23       1.0  0.93540  0.09890  0.93620  1.0000 -0.1666449601
C   C24       1.0  0.06460  0.40110  0.93620  1.0000 -0.1666449601
C   C25       1.0  0.63080  0.64340  0.49710  1.0000 -0.0967500307
C   C26       1.0  0.36920  0.85660  0.49710  1.0000 -0.0967500307
C   C27       1.0  0.86920  0.14340  0.99710  1.0000 -0.0967500307
C   C28       1.0  0.13080  0.35660  0.99710  1.0000 -0.0967500307
C   C29       1.0  0.42760  0.45600  0.24260  1.0000 0.1599381003
C   C30       1.0  0.57240  0.04400  0.24260  1.0000 0.1599381003
C   C31       1.0  0.07240  0.95600  0.74260  1.0000 0.1599381003
C   C32       1.0  0.92760  0.54400  0.74260  1.0000 0.1599381003
C   C33       1.0  0.57580  0.37550  0.30300  1.0000 0.0881100088
C   C34       1.0  0.42420  0.12450  0.30300  1.0000 0.0881100088
C   C35       1.0  0.92420  0.87550  0.80300  1.0000 0.0881100088
C   C36       1.0  0.07580  0.62450  0.80300  1.0000 0.0881100088
C   C37       1.0  0.32430  0.83790  0.91900  1.0000 0.5379737649
C   C38       1.0  0.67570  0.66210  0.91900  1.0000 0.5379737649
C   C39       1.0  0.17570  0.33790  0.41900  1.0000 0.5379737649
C   C40       1.0  0.82430  0.16210  0.41900  1.0000 0.5379737649
C   C41       1.0  0.25190  0.89290  0.98050  1.0000 -0.036437042
C   C42       1.0  0.74810  0.60710  0.98050  1.0000 -0.036437042
C   C43       1.0  0.24810  0.39290  0.48050  1.0000 -0.036437042
C   C44       1.0  0.75190  0.10710  0.48050  1.0000 -0.036437042
C   C45       1.0  0.30460  0.97700  0.01830  1.0000 -0.0752121698
C   C46       1.0  0.69540  0.52300  0.01830  1.0000 -0.0752121698
C   C47       1.0  0.19540  0.47700  0.51830  1.0000 -0.0752121698
C   C48       1.0  0.80460  0.02300  0.51830  1.0000 -0.0752121698
C   C49       1.0  0.23960  0.02480  0.08010  1.0000 -0.1666449601
C   C50       1.0  0.76040  0.47520  0.08010  1.0000 -0.1666449601
C   C51       1.0  0.26040  0.52480  0.58010  1.0000 -0.1666449601
C   C52       1.0  0.73960  0.97520  0.58010  1.0000 -0.1666449601
C   C53       1.0  0.11900  0.98550  0.10090  1.0000 0.1430127877
C   C54       1.0  0.88100  0.51450  0.10090  1.0000 0.1430127877
C   C55       1.0  0.38100  0.48550  0.60090  1.0000 0.1430127877
C   C56       1.0  0.61900  0.01450  0.60090  1.0000 0.1430127877
C   C57       1.0  0.06460  0.90110  0.06380  1.0000 -0.1666449601
C   C58       1.0  0.93540  0.59890  0.06380  1.0000 -0.1666449601
C   C59       1.0  0.43540  0.40110  0.56380  1.0000 -0.1666449601
C   C60       1.0  0.56460  0.09890  0.56380  1.0000 -0.1666449601
C   C61       1.0  0.13080  0.85660  0.00290  1.0000 -0.0967500307
C   C62       1.0  0.86920  0.64340  0.00290  1.0000 -0.0967500307
C   C63       1.0  0.36920  0.35660  0.50290  1.0000 -0.0967500307
C   C64       1.0  0.63080  0.14340  0.50290  1.0000 -0.0967500307
C   C65       1.0  0.92760  0.04400  0.25740  1.0000 0.1599381003
C   C66       1.0  0.07240  0.45600  0.25740  1.0000 0.1599381003
C   C67       1.0  0.57240  0.54400  0.75740  1.0000 0.1599381003
C   C68       1.0  0.42760  0.95600  0.75740  1.0000 0.1599381003
C   C69       1.0  0.07580  0.12450  0.19700  1.0000 0.0881100088
C   C70       1.0  0.92420  0.37550  0.19700  1.0000 0.0881100088
C   C71       1.0  0.42420  0.62450  0.69700  1.0000 0.0881100088
C   C72       1.0  0.57580  0.87550  0.69700  1.0000 0.0881100088
N   N1        1.0  0.55310  0.46740  0.33650  1.0000 0.1430127877
N   N2        1.0  0.44690  0.03260  0.33650  1.0000 0.1430127877
N   N3        1.0  0.94690  0.96740  0.83650  1.0000 0.1430127877
N   N4        1.0  0.05310  0.53260  0.83650  1.0000 0.1430127877
N   N5        1.0  0.45800  0.52060  0.29750  1.0000 -0.2436021384
N   N6        1.0  0.54200  0.97940  0.29750  1.0000 -0.2436021384
N   N7        1.0  0.04200  0.02060  0.79750  1.0000 -0.2436021384
N   N8        1.0  0.95800  0.47940  0.79750  1.0000 -0.2436021384
N   N9        1.0  0.49790  0.36490  0.24240  1.0000 -0.3314889934
N   N10       1.0  0.50210  0.13510  0.24240  1.0000 -0.3314889934
N   N11       1.0  0.00210  0.86490  0.74240  1.0000 -0.3314889934
N   N12       1.0  0.99790  0.63510  0.74240  1.0000 -0.3314889934
N   N13       1.0  0.05310  0.03260  0.16350  1.0000 0.1430127877
N   N14       1.0  0.94690  0.46740  0.16350  1.0000 0.1430127877
N   N15       1.0  0.44690  0.53260  0.66350  1.0000 0.1430127877
N   N16       1.0  0.55310  0.96740  0.66350  1.0000 0.1430127877
N   N17       1.0  0.95800  0.97940  0.20250  1.0000 -0.2436021384
N   N18       1.0  0.04200  0.52060  0.20250  1.0000 -0.2436021384
N   N19       1.0  0.54200  0.47940  0.70250  1.0000 -0.2436021384
N   N20       1.0  0.45800  0.02060  0.70250  1.0000 -0.2436021384
N   N21       1.0  0.99790  0.13510  0.25760  1.0000 -0.3314889934
N   N22       1.0  0.00210  0.36490  0.25760  1.0000 -0.3314889934
N   N23       1.0  0.50210  0.63510  0.75760  1.0000 -0.3314889934
N   N24       1.0  0.49790  0.86490  0.75760  1.0000 -0.3314889934
O   O1        1.0  0.94840  0.64680  0.58598  1.0000 -0.5057518598
O   O2        1.0  0.05160  0.85320  0.58598  1.0000 -0.5057518598
O   O3        1.0  0.55160  0.14680  0.08598  1.0000 -0.5057518598
O   O4        1.0  0.44840  0.35320  0.08598  1.0000 -0.5057518598
O   O5        1.0  0.76610  0.72300  0.62530  1.0000 -0.5750550594
O   O6        1.0  0.23390  0.77700  0.62530  1.0000 -0.5750550594
O   O7        1.0  0.73390  0.22300  0.12530  1.0000 -0.5750550594
O   O8        1.0  0.26610  0.27700  0.12530  1.0000 -0.5750550594
O   O9        1.0  0.44840  0.85320  0.91402  1.0000 -0.5057518598
O   O10       1.0  0.55160  0.64680  0.91402  1.0000 -0.5057518598
O   O11       1.0  0.05160  0.35320  0.41402  1.0000 -0.5057518598
O   O12       1.0  0.94840  0.14680  0.41402  1.0000 -0.5057518598
O   O13       1.0  0.26610  0.77700  0.87470  1.0000 -0.5750550594
O   O14       1.0  0.73390  0.72300  0.87470  1.0000 -0.5750550594
O   O15       1.0  0.23390  0.27700  0.37470  1.0000 -0.5750550594
O   O16       1.0  0.76610  0.22300  0.37470  1.0000 -0.5750550594
