# DDEC6 charges by PACMAN v1.1 (https://github.com/mtap-research/PACMAN-charge/)
data_2015[Pb][nan]3[FSR]3
_chemical_formula_sum              "H112 Pb8 C144 O48"
_cell_length_a       10.0731
_cell_length_b       37.7863
_cell_length_c       10.2394
_cell_angle_alpha    90
_cell_angle_beta     97.144
_cell_angle_gamma    90

_symmetry_space_group_name_H-M    "P 1"
_symmetry_Int_Tables_number       1

loop_
  _symmetry_equiv_pos_as_xyz
  'x, y, z'

loop_
  _atom_site_type_symbol
  _atom_site_label
  _atom_site_symmetry_multiplicity
  _atom_site_fract_x
  _atom_site_fract_y
  _atom_site_fract_z
  _atom_site_occupancy
  _atom_site_charge
H   H1        1.0  0.69600  0.30230  0.04120  1.0000 0.1291490073
H   H2        1.0  0.80400  0.80230  0.95880  1.0000 0.1291490073
H   H3        1.0  0.30400  0.69770  0.95880  1.0000 0.1291490073
H   H4        1.0  0.19600  0.19770  0.04120  1.0000 0.1291490073
H   H5        1.0  0.86240  0.27170  0.95120  1.0000 0.1203278057
H   H6        1.0  0.63760  0.77170  0.04880  1.0000 0.1203278057
H   H7        1.0  0.13760  0.72830  0.04880  1.0000 0.1203278057
H   H8        1.0  0.36240  0.22830  0.95120  1.0000 0.1203278057
H   H9        1.0  0.05600  0.30080  0.90820  1.0000 0.1291490073
H   H10       1.0  0.44400  0.80080  0.09180  1.0000 0.1291490073
H   H11       1.0  0.94400  0.69920  0.09180  1.0000 0.1291490073
H   H12       1.0  0.55600  0.19920  0.90820  1.0000 0.1291490073
H   H13       1.0  0.17630  0.43790  0.92970  1.0000 0.1291490073
H   H14       1.0  0.32370  0.93790  0.07030  1.0000 0.1291490073
H   H15       1.0  0.82370  0.56210  0.07030  1.0000 0.1291490073
H   H16       1.0  0.67630  0.06210  0.92970  1.0000 0.1291490073
H   H17       1.0  0.28070  0.47400  0.09310  1.0000 0.1203278057
H   H18       1.0  0.21930  0.97400  0.90690  1.0000 0.1203278057
H   H19       1.0  0.71930  0.52600  0.90690  1.0000 0.1203278057
H   H20       1.0  0.78070  0.02600  0.09310  1.0000 0.1203278057
H   H21       1.0  0.35330  0.45080  0.30110  1.0000 0.1291490073
H   H22       1.0  0.14670  0.95080  0.69890  1.0000 0.1291490073
H   H23       1.0  0.64670  0.54920  0.69890  1.0000 0.1291490073
H   H24       1.0  0.85330  0.04920  0.30110  1.0000 0.1291490073
H   H25       1.0  0.36570  0.31810  0.47460  1.0000 0.1291490073
H   H26       1.0  0.13430  0.81810  0.52540  1.0000 0.1291490073
H   H27       1.0  0.63430  0.68190  0.52540  1.0000 0.1291490073
H   H28       1.0  0.86570  0.18190  0.47460  1.0000 0.1291490073
H   H29       1.0  0.21860  0.28440  0.57970  1.0000 0.1291490073
H   H30       1.0  0.28140  0.78440  0.42030  1.0000 0.1291490073
H   H31       1.0  0.78140  0.71560  0.42030  1.0000 0.1291490073
H   H32       1.0  0.71860  0.21560  0.57970  1.0000 0.1291490073
H   H33       1.0  0.01180  0.30740  0.61160  1.0000 0.1291490073
H   H34       1.0  0.48820  0.80740  0.38840  1.0000 0.1291490073
H   H35       1.0  0.98820  0.69260  0.38840  1.0000 0.1291490073
H   H36       1.0  0.51180  0.19260  0.61160  1.0000 0.1291490073
H   H37       1.0  0.81830  0.43760  0.54150  1.0000 0.1356098657
H   H38       1.0  0.68170  0.93760  0.45850  1.0000 0.1356098657
H   H39       1.0  0.18170  0.56240  0.45850  1.0000 0.1356098657
H   H40       1.0  0.31830  0.06240  0.54150  1.0000 0.1356098657
H   H41       1.0  0.69420  0.46640  0.36770  1.0000 0.1203278057
H   H42       1.0  0.80580  0.96640  0.63230  1.0000 0.1203278057
H   H43       1.0  0.30580  0.53360  0.63230  1.0000 0.1203278057
H   H44       1.0  0.19420  0.03360  0.36770  1.0000 0.1203278057
H   H45       1.0  0.63470  0.43750  0.17060  1.0000 0.1291490073
H   H46       1.0  0.86530  0.93750  0.82940  1.0000 0.1291490073
H   H47       1.0  0.36530  0.56250  0.82940  1.0000 0.1291490073
H   H48       1.0  0.13470  0.06250  0.17060  1.0000 0.1291490073
H   H49       1.0  0.19160  0.34970  0.90890  1.0000 0.1203278057
H   H50       1.0  0.30840  0.84970  0.09110  1.0000 0.1203278057
H   H51       1.0  0.80840  0.65030  0.09110  1.0000 0.1203278057
H   H52       1.0  0.69160  0.15030  0.90890  1.0000 0.1203278057
H   H53       1.0  0.10600  0.38240  0.84570  1.0000 0.1203278057
H   H54       1.0  0.39400  0.88240  0.15430  1.0000 0.1203278057
H   H55       1.0  0.89400  0.61760  0.15430  1.0000 0.1203278057
H   H56       1.0  0.60600  0.11760  0.84570  1.0000 0.1203278057
H   H57       1.0  0.37710  0.40630  0.45250  1.0000 0.1203278057
H   H58       1.0  0.12290  0.90630  0.54750  1.0000 0.1203278057
H   H59       1.0  0.62290  0.59370  0.54750  1.0000 0.1203278057
H   H60       1.0  0.87710  0.09370  0.45250  1.0000 0.1203278057
H   H61       1.0  0.43350  0.37180  0.38840  1.0000 0.1203278057
H   H62       1.0  0.06650  0.87180  0.61160  1.0000 0.1203278057
H   H63       1.0  0.56650  0.62820  0.61160  1.0000 0.1203278057
H   H64       1.0  0.93350  0.12820  0.38840  1.0000 0.1203278057
H   H65       1.0  0.91460  0.38650  0.64130  1.0000 0.1111930186
H   H66       1.0  0.58540  0.88650  0.35870  1.0000 0.1111930186
H   H67       1.0  0.08540  0.61350  0.35870  1.0000 0.1111930186
H   H68       1.0  0.41460  0.11350  0.64130  1.0000 0.1111930186
H   H69       1.0  0.84780  0.35020  0.58760  1.0000 0.1291490073
H   H70       1.0  0.65220  0.85020  0.41240  1.0000 0.1291490073
H   H71       1.0  0.15220  0.64980  0.41240  1.0000 0.1291490073
H   H72       1.0  0.34780  0.14980  0.58760  1.0000 0.1291490073
H   H73       1.0  0.59930  0.35480  0.10560  1.0000 0.1203278057
H   H74       1.0  0.90070  0.85480  0.89440  1.0000 0.1203278057
H   H75       1.0  0.40070  0.64520  0.89440  1.0000 0.1203278057
H   H76       1.0  0.09930  0.14520  0.10560  1.0000 0.1203278057
H   H77       1.0  0.63760  0.38950  0.02990  1.0000 0.1203278057
H   H78       1.0  0.86240  0.88950  0.97010  1.0000 0.1203278057
H   H79       1.0  0.36240  0.61050  0.97010  1.0000 0.1203278057
H   H80       1.0  0.13760  0.11050  0.02990  1.0000 0.1203278057
H   H81       1.0  0.77650  0.41770  0.86220  1.0000 0.1291490073
H   H82       1.0  0.72350  0.91770  0.13780  1.0000 0.1291490073
H   H83       1.0  0.22350  0.58230  0.13780  1.0000 0.1291490073
H   H84       1.0  0.27650  0.08230  0.86220  1.0000 0.1291490073
H   H85       1.0  0.93000  0.41590  0.83720  1.0000 0.1111930186
H   H86       1.0  0.57000  0.91590  0.16280  1.0000 0.1111930186
H   H87       1.0  0.07000  0.58410  0.16280  1.0000 0.1111930186
H   H88       1.0  0.43000  0.08410  0.83720  1.0000 0.1111930186
H   H89       1.0  0.41990  0.33130  0.22850  1.0000 0.1111930186
H   H90       1.0  0.08010  0.83130  0.77150  1.0000 0.1111930186
H   H91       1.0  0.58010  0.66870  0.77150  1.0000 0.1111930186
H   H92       1.0  0.91990  0.16870  0.22850  1.0000 0.1111930186
H   H93       1.0  0.37660  0.33100  0.07290  1.0000 0.1203278057
H   H94       1.0  0.12340  0.83100  0.92710  1.0000 0.1203278057
H   H95       1.0  0.62340  0.66900  0.92710  1.0000 0.1203278057
H   H96       1.0  0.87660  0.16900  0.07290  1.0000 0.1203278057
H   H97       1.0  0.22930  0.42520  0.63450  1.0000 0.1291490073
H   H98       1.0  0.27070  0.92520  0.36550  1.0000 0.1291490073
H   H99       1.0  0.77070  0.57480  0.36550  1.0000 0.1291490073
H   H100      1.0  0.72930  0.07480  0.63450  1.0000 0.1291490073
H   H101      1.0  0.07330  0.42440  0.65050  1.0000 0.1203278057
H   H102      1.0  0.42670  0.92440  0.34950  1.0000 0.1203278057
H   H103      1.0  0.92670  0.57560  0.34950  1.0000 0.1203278057
H   H104      1.0  0.57330  0.07560  0.65050  1.0000 0.1203278057
H   H105      1.0  0.64130  0.31340  0.25220  1.0000 0.1203278057
H   H106      1.0  0.85870  0.81340  0.74780  1.0000 0.1203278057
H   H107      1.0  0.35870  0.68660  0.74780  1.0000 0.1203278057
H   H108      1.0  0.14130  0.18660  0.25220  1.0000 0.1203278057
H   H109      1.0  0.64090  0.32670  0.40050  1.0000 0.1291490073
H   H110      1.0  0.85910  0.82670  0.59950  1.0000 0.1291490073
H   H111      1.0  0.35910  0.67330  0.59950  1.0000 0.1291490073
H   H112      1.0  0.14090  0.17330  0.40050  1.0000 0.1291490073
Pb  Pb1       1.0  0.00576  0.46922  0.24821  1.0000 1.1059292883
Pb  Pb2       1.0  0.49424  0.96922  0.75179  1.0000 1.1059292883
Pb  Pb3       1.0  0.99424  0.53078  0.75179  1.0000 1.1045451095
Pb  Pb4       1.0  0.50576  0.03078  0.24821  1.0000 1.1059292883
Pb  Pb5       1.0  0.02425  0.28287  0.26797  1.0000 1.0775886705
Pb  Pb6       1.0  0.47575  0.78287  0.73203  1.0000 1.0775886705
Pb  Pb7       1.0  0.97575  0.71713  0.73203  1.0000 1.0775886705
Pb  Pb8       1.0  0.52425  0.21713  0.26797  1.0000 1.0775886705
C   C1        1.0  0.89510  0.36864  0.00460  1.0000 0.1203278057
C   C2        1.0  0.60490  0.86864  0.99540  1.0000 0.1203278057
C   C3        1.0  0.10490  0.63136  0.99540  1.0000 0.1203278057
C   C4        1.0  0.39510  0.13136  0.00460  1.0000 0.1203278057
C   C5        1.0  0.78150  0.35118  0.03830  1.0000 0.0490408008
C   C6        1.0  0.71850  0.85118  0.96170  1.0000 0.0490408008
C   C7        1.0  0.21850  0.64882  0.96170  1.0000 0.0490408008
C   C8        1.0  0.28150  0.14882  0.03830  1.0000 0.0490408008
C   C9        1.0  0.77210  0.31469  0.01880  1.0000 -0.1805282058
C   C10       1.0  0.72790  0.81469  0.98120  1.0000 -0.1805282058
C   C11       1.0  0.22790  0.68531  0.98120  1.0000 -0.1805282058
C   C12       1.0  0.27210  0.18531  0.01880  1.0000 -0.1805282058
C   C13       1.0  0.87180  0.29637  0.96750  1.0000 -0.1201274389
C   C14       1.0  0.62820  0.79637  0.03250  1.0000 -0.1201274389
C   C15       1.0  0.12820  0.70363  0.03250  1.0000 -0.1201274389
C   C16       1.0  0.37180  0.20363  0.96750  1.0000 -0.1201274389
C   C17       1.0  0.98600  0.31384  0.93970  1.0000 -0.1805282058
C   C18       1.0  0.51400  0.81384  0.06030  1.0000 -0.1805282058
C   C19       1.0  0.01400  0.68616  0.06030  1.0000 -0.1805282058
C   C20       1.0  0.48600  0.18616  0.93970  1.0000 -0.1805282058
C   C21       1.0  0.99950  0.35031  0.95740  1.0000 0.0490408008
C   C22       1.0  0.50050  0.85031  0.04260  1.0000 0.0490408008
C   C23       1.0  0.00050  0.64969  0.04260  1.0000 0.0490408008
C   C24       1.0  0.49950  0.14969  0.95740  1.0000 0.0490408008
C   C25       1.0  0.23980  0.37819  0.15780  1.0000 0.1203278057
C   C26       1.0  0.26020  0.87819  0.84220  1.0000 0.1203278057
C   C27       1.0  0.76020  0.62181  0.84220  1.0000 0.1203278057
C   C28       1.0  0.73980  0.12181  0.15780  1.0000 0.1203278057
C   C29       1.0  0.19270  0.39202  0.03430  1.0000 0.0490408008
C   C30       1.0  0.30730  0.89202  0.96570  1.0000 0.0490408008
C   C31       1.0  0.80730  0.60798  0.96570  1.0000 0.0490408008
C   C32       1.0  0.69270  0.10798  0.03430  1.0000 0.0490408008
C   C33       1.0  0.20830  0.42803  0.01310  1.0000 -0.1693480866
C   C34       1.0  0.29170  0.92803  0.98690  1.0000 -0.1693480866
C   C35       1.0  0.79170  0.57197  0.98690  1.0000 -0.1693480866
C   C36       1.0  0.70830  0.07197  0.01310  1.0000 -0.1693480866
C   C37       1.0  0.26900  0.44954  0.11000  1.0000 -0.1269420305
C   C38       1.0  0.23100  0.94954  0.89000  1.0000 -0.1269420305
C   C39       1.0  0.73100  0.55046  0.89000  1.0000 -0.1269420305
C   C40       1.0  0.76900  0.05046  0.11000  1.0000 -0.1269420305
C   C41       1.0  0.31350  0.43560  0.23340  1.0000 -0.1886428266
C   C42       1.0  0.18650  0.93560  0.76660  1.0000 -0.1886428266
C   C43       1.0  0.68650  0.56440  0.76660  1.0000 -0.1886428266
C   C44       1.0  0.81350  0.06440  0.23340  1.0000 -0.1886428266
C   C45       1.0  0.30050  0.39950  0.25930  1.0000 0.0490408008
C   C46       1.0  0.19950  0.89950  0.74070  1.0000 0.0490408008
C   C47       1.0  0.69950  0.60050  0.74070  1.0000 0.0490408008
C   C48       1.0  0.80050  0.10050  0.25930  1.0000 0.0490408008
C   C49       1.0  0.13400  0.37722  0.48960  1.0000 0.1111930186
C   C50       1.0  0.36600  0.87722  0.51040  1.0000 0.1111930186
C   C51       1.0  0.86600  0.62278  0.51040  1.0000 0.1111930186
C   C52       1.0  0.63400  0.12278  0.48960  1.0000 0.1111930186
C   C53       1.0  0.25400  0.36311  0.45930  1.0000 0.0490408008
C   C54       1.0  0.24600  0.86311  0.54070  1.0000 0.0490408008
C   C55       1.0  0.74600  0.63689  0.54070  1.0000 0.0490408008
C   C56       1.0  0.75400  0.13689  0.45930  1.0000 0.0490408008
C   C57       1.0  0.28360  0.32816  0.49310  1.0000 -0.1693480866
C   C58       1.0  0.21640  0.82816  0.50690  1.0000 -0.1693480866
C   C59       1.0  0.71640  0.67184  0.50690  1.0000 -0.1693480866
C   C60       1.0  0.78360  0.17184  0.49310  1.0000 -0.1693480866
C   C61       1.0  0.19570  0.30795  0.55290  1.0000 -0.1108183334
C   C62       1.0  0.30430  0.80795  0.44710  1.0000 -0.1108183334
C   C63       1.0  0.80430  0.69205  0.44710  1.0000 -0.1108183334
C   C64       1.0  0.69570  0.19205  0.55290  1.0000 -0.1108183334
C   C65       1.0  0.07360  0.32197  0.57390  1.0000 -0.1805282058
C   C66       1.0  0.42640  0.82197  0.42610  1.0000 -0.1805282058
C   C67       1.0  0.92640  0.67803  0.42610  1.0000 -0.1805282058
C   C68       1.0  0.57360  0.17803  0.57390  1.0000 -0.1805282058
C   C69       1.0  0.03820  0.35662  0.54180  1.0000 0.0490408008
C   C70       1.0  0.46180  0.85662  0.45820  1.0000 0.0490408008
C   C71       1.0  0.96180  0.64338  0.45820  1.0000 0.0490408008
C   C72       1.0  0.53820  0.14338  0.54180  1.0000 0.0490408008
C   C73       1.0  0.78370  0.37231  0.33333  1.0000 0.1203278057
C   C74       1.0  0.71630  0.87231  0.66667  1.0000 0.1203278057
C   C75       1.0  0.21630  0.62769  0.66667  1.0000 0.1203278057
C   C76       1.0  0.28370  0.12769  0.33333  1.0000 0.1203278057
C   C77       1.0  0.82630  0.38989  0.45040  1.0000 0.0490408008
C   C78       1.0  0.67370  0.88989  0.54960  1.0000 0.0490408008
C   C79       1.0  0.17370  0.61011  0.54960  1.0000 0.0490408008
C   C80       1.0  0.32630  0.11011  0.45040  1.0000 0.0490408008
C   C81       1.0  0.79160  0.42522  0.46170  1.0000 -0.1693480866
C   C82       1.0  0.70840  0.92522  0.53830  1.0000 -0.1693480866
C   C83       1.0  0.20840  0.57478  0.53830  1.0000 -0.1693480866
C   C84       1.0  0.29160  0.07478  0.46170  1.0000 -0.1693480866
C   C85       1.0  0.71930  0.44240  0.35850  1.0000 -0.1201274389
C   C86       1.0  0.78070  0.94240  0.64150  1.0000 -0.1201274389
C   C87       1.0  0.28070  0.55760  0.64150  1.0000 -0.1201274389
C   C88       1.0  0.21930  0.05760  0.35850  1.0000 -0.1201274389
C   C89       1.0  0.68290  0.42497  0.24180  1.0000 -0.1805282058
C   C90       1.0  0.81710  0.92497  0.75820  1.0000 -0.1805282058
C   C91       1.0  0.31710  0.57503  0.75820  1.0000 -0.1805282058
C   C92       1.0  0.18290  0.07503  0.24180  1.0000 -0.1805282058
C   C93       1.0  0.71460  0.38940  0.22460  1.0000 0.0490408008
C   C94       1.0  0.78540  0.88940  0.77540  1.0000 0.0490408008
C   C95       1.0  0.28540  0.61060  0.77540  1.0000 0.0490408008
C   C96       1.0  0.21460  0.11060  0.22460  1.0000 0.0490408008
C   C97       1.0  0.12680  0.36821  0.92700  1.0000 -0.2707346784
C   C98       1.0  0.37320  0.86821  0.07300  1.0000 -0.2707346784
C   C99       1.0  0.87320  0.63179  0.07300  1.0000 -0.2707346784
C   C100      1.0  0.62680  0.13179  0.92700  1.0000 -0.2707346784
C   C101      1.0  0.35150  0.38583  0.39460  1.0000 -0.2707346784
C   C102      1.0  0.14850  0.88583  0.60540  1.0000 -0.2707346784
C   C103      1.0  0.64850  0.61417  0.60540  1.0000 -0.2707346784
C   C104      1.0  0.85150  0.11417  0.39460  1.0000 -0.2707346784
C   C105      1.0  0.90280  0.37042  0.56440  1.0000 -0.2707346784
C   C106      1.0  0.59720  0.87042  0.43560  1.0000 -0.2707346784
C   C107      1.0  0.09720  0.62958  0.43560  1.0000 -0.2707346784
C   C108      1.0  0.40280  0.12958  0.56440  1.0000 -0.2707346784
C   C109      1.0  0.67320  0.37136  0.09460  1.0000 -0.2707346784
C   C110      1.0  0.82680  0.87136  0.90540  1.0000 -0.2707346784
C   C111      1.0  0.32680  0.62864  0.90540  1.0000 -0.2707346784
C   C112      1.0  0.17320  0.12864  0.09460  1.0000 -0.2707346784
C   C113      1.0  0.86890  0.42387  0.90000  1.0000 -0.1805282058
C   C114      1.0  0.63110  0.92387  0.10000  1.0000 -0.1805282058
C   C115      1.0  0.13110  0.57613  0.10000  1.0000 -0.1805282058
C   C116      1.0  0.36890  0.07613  0.90000  1.0000 -0.1805282058
C   C117      1.0  0.87980  0.46374  0.91560  1.0000 0.6023606962
C   C118      1.0  0.62020  0.96374  0.08440  1.0000 0.6023606962
C   C119      1.0  0.12020  0.53626  0.08440  1.0000 0.6023606962
C   C120      1.0  0.37980  0.03626  0.91560  1.0000 0.6023606962
C   C121      1.0  0.34880  0.32384  0.15850  1.0000 -0.1886428266
C   C122      1.0  0.15120  0.82384  0.84150  1.0000 -0.1886428266
C   C123      1.0  0.65120  0.67616  0.84150  1.0000 -0.1886428266
C   C124      1.0  0.84880  0.17616  0.15850  1.0000 -0.1886428266
C   C125      1.0  0.33620  0.28365  0.16180  1.0000 0.6023606962
C   C126      1.0  0.16380  0.78365  0.83820  1.0000 0.6023606962
C   C127      1.0  0.66380  0.71635  0.83820  1.0000 0.6023606962
C   C128      1.0  0.83620  0.21635  0.16180  1.0000 0.6023606962
C   C129      1.0  0.13910  0.43193  0.59190  1.0000 -0.1886428266
C   C130      1.0  0.36090  0.93193  0.40810  1.0000 -0.1886428266
C   C131      1.0  0.86090  0.56807  0.40810  1.0000 -0.1886428266
C   C132      1.0  0.63910  0.06807  0.59190  1.0000 -0.1886428266
C   C133      1.0  0.13260  0.47146  0.57670  1.0000 0.6080454221
C   C134      1.0  0.36740  0.97146  0.42330  1.0000 0.6080454221
C   C135      1.0  0.86740  0.52854  0.42330  1.0000 0.6080454221
C   C136      1.0  0.63260  0.02854  0.57670  1.0000 0.6080454221
C   C137      1.0  0.69580  0.31493  0.33940  1.0000 -0.2016812036
C   C138      1.0  0.80420  0.81493  0.66060  1.0000 -0.2016812036
C   C139      1.0  0.30420  0.68507  0.66060  1.0000 -0.2016812036
C   C140      1.0  0.19580  0.18507  0.33940  1.0000 -0.2016812036
C   C141      1.0  0.72940  0.27818  0.38860  1.0000 0.6080454221
C   C142      1.0  0.77060  0.77818  0.61140  1.0000 0.6080454221
C   C143      1.0  0.27060  0.72182  0.61140  1.0000 0.6080454221
C   C144      1.0  0.22940  0.22182  0.38860  1.0000 0.6080454221
O   O1        1.0  0.90100  0.40539  0.02160  1.0000 -0.2214936848
O   O2        1.0  0.59900  0.90539  0.97840  1.0000 -0.2214936848
O   O3        1.0  0.09900  0.59461  0.97840  1.0000 -0.2214936848
O   O4        1.0  0.40100  0.09461  0.02160  1.0000 -0.2214936848
O   O5        1.0  0.88240  0.47924  0.80640  1.0000 -0.5485374102
O   O6        1.0  0.61760  0.97924  0.19360  1.0000 -0.5485374102
O   O7        1.0  0.11760  0.52076  0.19360  1.0000 -0.5485374102
O   O8        1.0  0.38240  0.02076  0.80640  1.0000 -0.5485374102
O   O9        1.0  0.87880  0.47790  0.02470  1.0000 -0.5372166404
O   O10       1.0  0.62120  0.97790  0.97530  1.0000 -0.5372166404
O   O11       1.0  0.12120  0.52210  0.97530  1.0000 -0.5372166404
O   O12       1.0  0.37880  0.02210  0.02470  1.0000 -0.5372166404
O   O13       1.0  0.22720  0.34192  0.17640  1.0000 -0.227118846
O   O14       1.0  0.27280  0.84192  0.82360  1.0000 -0.227118846
O   O15       1.0  0.77280  0.65808  0.82360  1.0000 -0.2214936848
O   O16       1.0  0.72720  0.15808  0.17640  1.0000 -0.227118846
O   O17       1.0  0.45000  0.26920  0.15990  1.0000 -0.5485374102
O   O18       1.0  0.05000  0.76920  0.84010  1.0000 -0.5485374102
O   O19       1.0  0.55000  0.73080  0.84010  1.0000 -0.5485374102
O   O20       1.0  0.95000  0.23080  0.15990  1.0000 -0.5485374102
O   O21       1.0  0.22800  0.26862  0.16250  1.0000 -0.5229085901
O   O22       1.0  0.27200  0.76862  0.83750  1.0000 -0.5229085901
O   O23       1.0  0.77200  0.73138  0.83750  1.0000 -0.5229085901
O   O24       1.0  0.72800  0.23138  0.16250  1.0000 -0.5229085901
O   O25       1.0  0.11260  0.41372  0.46970  1.0000 -0.227118846
O   O26       1.0  0.38740  0.91372  0.53030  1.0000 -0.227118846
O   O27       1.0  0.88740  0.58628  0.53030  1.0000 -0.227118846
O   O28       1.0  0.61260  0.08628  0.46970  1.0000 -0.227118846
O   O29       1.0  0.13560  0.48700  0.68710  1.0000 -0.5485374102
O   O30       1.0  0.36440  0.98700  0.31290  1.0000 -0.5485374102
O   O31       1.0  0.86440  0.51300  0.31290  1.0000 -0.5485374102
O   O32       1.0  0.63560  0.01300  0.68710  1.0000 -0.5485374102
O   O33       1.0  0.12980  0.48605  0.46790  1.0000 -0.5304672787
O   O34       1.0  0.37020  0.98605  0.53210  1.0000 -0.5304672787
O   O35       1.0  0.87020  0.51395  0.53210  1.0000 -0.5304672787
O   O36       1.0  0.62980  0.01395  0.46790  1.0000 -0.5304672787
O   O37       1.0  0.81140  0.33610  0.32790  1.0000 -0.2214936848
O   O38       1.0  0.68860  0.83610  0.67210  1.0000 -0.2214936848
O   O39       1.0  0.18860  0.66390  0.67210  1.0000 -0.2214936848
O   O40       1.0  0.31140  0.16390  0.32790  1.0000 -0.2214936848
O   O41       1.0  0.62670  0.26033  0.40750  1.0000 -0.5372166404
O   O42       1.0  0.87330  0.76033  0.59250  1.0000 -0.5372166404
O   O43       1.0  0.37330  0.73967  0.59250  1.0000 -0.5372166404
O   O44       1.0  0.12670  0.23967  0.40750  1.0000 -0.5372166404
O   O45       1.0  0.84730  0.26760  0.40850  1.0000 -0.5229085901
O   O46       1.0  0.65270  0.76760  0.59150  1.0000 -0.5229085901
O   O47       1.0  0.15270  0.73240  0.59150  1.0000 -0.5229085901
O   O48       1.0  0.34730  0.23240  0.40850  1.0000 -0.5229085901
