# DDEC6 charges by PACMAN v1.1 (https://github.com/mtap-research/PACMAN-charge/)
data_2015[Mn][dia]3[FSR]2
_chemical_formula_sum              "Mn4 H84 C90 N24 O20"
_cell_length_a       14.1407
_cell_length_b       14.1407
_cell_length_c       18.506
_cell_angle_alpha    81.1972
_cell_angle_beta     98.8028
_cell_angle_gamma    67.9375

_symmetry_space_group_name_H-M    "P 1"
_symmetry_Int_Tables_number       1

loop_
  _symmetry_equiv_pos_as_xyz
  'x, y, z'

loop_
  _atom_site_type_symbol
  _atom_site_label
  _atom_site_symmetry_multiplicity
  _atom_site_fract_x
  _atom_site_fract_y
  _atom_site_fract_z
  _atom_site_occupancy
  _atom_site_charge
Mn  Mn1       1.0  0.82836  0.03172  0.15768  1.0000 0.8475488611
Mn  Mn2       1.0  0.96828  0.17164  0.65768  1.0000 0.8475488611
Mn  Mn3       1.0  0.18970  0.39110  0.09599  1.0000 0.871585805
Mn  Mn4       1.0  0.60890  0.81030  0.59599  1.0000 0.871585805
H   H1        1.0  0.78080  0.14980  0.27010  1.0000 0.3678704124
H   H2        1.0  0.85020  0.21920  0.77010  1.0000 0.3646256514
H   H3        1.0  0.74910  0.21390  0.19200  1.0000 0.3678704124
H   H4        1.0  0.78610  0.25090  0.69200  1.0000 0.3678704124
H   H5        1.0  0.81280  0.21920  0.07040  1.0000 0.3280660399
H   H6        1.0  0.78080  0.18720  0.57040  1.0000 0.3280660399
H   H7        1.0  0.89730  0.14450  0.11940  1.0000 0.268152345
H   H8        1.0  0.85550  0.10270  0.61940  1.0000 0.268152345
H   H9        1.0  0.93760  0.90900  0.06430  1.0000 0.3929762431
H   H10       1.0  0.09100  0.06240  0.56430  1.0000 0.3929762431
H   H11       1.0  0.86500  0.85540  0.09650  1.0000 0.3678704124
H   H12       1.0  0.14460  0.13500  0.59650  1.0000 0.3678704124
H   H13       1.0  0.11140  0.62080  0.05780  1.0000 0.3775666617
H   H14       1.0  0.37920  0.88860  0.55780  1.0000 0.3775666617
H   H15       1.0  0.01810  0.58750  0.04810  1.0000 0.3775666617
H   H16       1.0  0.41250  0.98190  0.54810  1.0000 0.3775666617
H   H17       1.0  0.10750  0.29950  0.00410  1.0000 0.3678704124
H   H18       1.0  0.70050  0.89250  0.50410  1.0000 0.3678704124
H   H19       1.0  0.01970  0.40190  0.98350  1.0000 0.3678704124
H   H20       1.0  0.59810  0.98030  0.48350  1.0000 0.3678704124
H   H21       1.0  0.81200  0.65040  0.42290  1.0000 0.1418915876
H   H22       1.0  0.34960  0.18800  0.92290  1.0000 0.1418915876
H   H23       1.0  0.86730  0.63090  0.21810  1.0000 0.1216089241
H   H24       1.0  0.36910  0.13270  0.71810  1.0000 0.1216089241
H   H25       1.0  0.94580  0.36740  0.37570  1.0000 0.1216089241
H   H26       1.0  0.63260  0.05420  0.87570  1.0000 0.1216089241
H   H27       1.0  0.73120  0.82940  0.37930  1.0000 0.1290941813
H   H28       1.0  0.17060  0.26880  0.87930  1.0000 0.1290941813
H   H29       1.0  0.72370  0.99510  0.31480  1.0000 0.1103410014
H   H30       1.0  0.00490  0.27630  0.81480  1.0000 0.1103410014
H   H31       1.0  0.85720  0.79040  0.20390  1.0000 0.0892900341
H   H32       1.0  0.20960  0.14280  0.70390  1.0000 0.0811192386
H   H33       1.0  0.86640  0.56840  0.54460  1.0000 0.1216089241
H   H34       1.0  0.43160  0.13360  0.04460  1.0000 0.1216089241
H   H35       1.0  0.89620  0.43580  0.65380  1.0000 0.1103410014
H   H36       1.0  0.56420  0.10380  0.15380  1.0000 0.1103410014
H   H37       1.0  0.92870  0.29990  0.48800  1.0000 0.1103410014
H   H38       1.0  0.70010  0.07130  0.98800  1.0000 0.1103410014
H   H39       1.0  0.02310  0.52470  0.18740  1.0000 0.0892900341
H   H40       1.0  0.47530  0.97690  0.68740  1.0000 0.0892900341
H   H41       1.0  0.95480  0.28860  0.26210  1.0000 0.1216089241
H   H42       1.0  0.71140  0.04520  0.76210  1.0000 0.1216089241
H   H43       1.0  0.06750  0.24250  0.17450  1.0000 0.1103410014
H   H44       1.0  0.75750  0.93250  0.67450  1.0000 0.1103410014
H   H45       1.0  0.32060  0.82400  0.37140  1.0000 0.1290941813
H   H46       1.0  0.17600  0.67940  0.87140  1.0000 0.1290941813
H   H47       1.0  0.21930  0.70210  0.20900  1.0000 0.1216089241
H   H48       1.0  0.29790  0.78070  0.70900  1.0000 0.1216089241
H   H49       1.0  0.47260  0.51700  0.37370  1.0000 0.1418915876
H   H50       1.0  0.48300  0.52740  0.87370  1.0000 0.1418915876
H   H51       1.0  0.05530  0.82750  0.20910  1.0000 0.0892900341
H   H52       1.0  0.17250  0.94470  0.70910  1.0000 0.0892900341
H   H53       1.0  0.02110  0.10410  0.23800  1.0000 0.1103410014
H   H54       1.0  0.89590  0.97890  0.73800  1.0000 0.1103410014
H   H55       1.0  0.20350  0.98890  0.29040  1.0000 0.1290941813
H   H56       1.0  0.01110  0.79650  0.79040  1.0000 0.1290941813
H   H57       1.0  0.21420  0.56620  0.17890  1.0000 0.0892900341
H   H58       1.0  0.43380  0.78580  0.67890  1.0000 0.0892900341
H   H59       1.0  0.41660  0.27760  0.24600  1.0000 0.1216089241
H   H60       1.0  0.72240  0.58340  0.74600  1.0000 0.1216089241
H   H61       1.0  0.48420  0.37920  0.31810  1.0000 0.1290941813
H   H62       1.0  0.62080  0.51580  0.81810  1.0000 0.1290941813
H   H63       1.0  0.48200  0.80200  0.43790  1.0000 0.1015826099
H   H64       1.0  0.19800  0.51800  0.93790  1.0000 0.1015826099
H   H65       1.0  0.64260  0.54880  0.59820  1.0000 0.1103410014
H   H66       1.0  0.45120  0.35740  0.09820  1.0000 0.1103410014
H   H67       1.0  0.53810  0.50190  0.50270  1.0000 0.1290941813
H   H68       1.0  0.49810  0.46190  0.00270  1.0000 0.1290941813
H   H69       1.0  0.27220  0.96600  0.08420  1.0000 0.1103410014
H   H70       1.0  0.03400  0.72780  0.58420  1.0000 0.1103410014
H   H71       1.0  0.39490  0.79990  0.13700  1.0000 0.1015826099
H   H72       1.0  0.20010  0.60510  0.63700  1.0000 0.1015826099
H   H73       1.0  0.52350  0.91390  0.29270  1.0000 0.1103410014
H   H74       1.0  0.08610  0.47650  0.79270  1.0000 0.1103410014
H   H75       1.0  0.40530  0.08110  0.23070  1.0000 0.1103410014
H   H76       1.0  0.91890  0.59470  0.73070  1.0000 0.1103410014
H   H77       1.0  0.63060  0.52420  0.30410  1.0000 0.1015826099
H   H78       1.0  0.47580  0.36940  0.80410  1.0000 0.1015826099
H   H79       1.0  0.68680  0.39780  0.23780  1.0000 0.1015826099
H   H80       1.0  0.60220  0.31320  0.73780  1.0000 0.1015826099
H   H81       1.0  0.64230  0.61610  0.05520  1.0000 0.1103410014
H   H82       1.0  0.38390  0.35770  0.55520  1.0000 0.1103410014
H   H83       1.0  0.56880  0.74600  0.11860  1.0000 0.1015826099
H   H84       1.0  0.25400  0.43120  0.61860  1.0000 0.1015826099
C   C1        1.0  0.83670  0.61010  0.38910  1.0000 -0.263269972
C   C2        1.0  0.38990  0.16330  0.88910  1.0000 -0.263269972
C   C3        1.0  0.83580  0.65720  0.31740  1.0000 0.2075151615
C   C4        1.0  0.34280  0.16420  0.81740  1.0000 0.2075151615
C   C5        1.0  0.87200  0.59840  0.26700  1.0000 -0.2901934139
C   C6        1.0  0.40160  0.12800  0.76700  1.0000 -0.2901934139
C   C7        1.0  0.91490  0.49110  0.28980  1.0000 0.197078459
C   C8        1.0  0.50890  0.08510  0.78980  1.0000 0.197078459
C   C9        1.0  0.91710  0.44010  0.36100  1.0000 -0.2901934139
C   C10       1.0  0.55990  0.08290  0.86100  1.0000 -0.2901934139
C   C11       1.0  0.87510  0.50150  0.40930  1.0000 0.197078459
C   C12       1.0  0.49850  0.12490  0.90930  1.0000 0.197078459
C   C13       1.0  0.75610  0.84090  0.33650  1.0000 -0.1079713702
C   C14       1.0  0.15910  0.24390  0.83650  1.0000 -0.1079713702
C   C15       1.0  0.75280  0.93160  0.30090  1.0000 -0.0476247854
C   C16       1.0  0.06840  0.24720  0.80090  1.0000 -0.0476247854
C   C17       1.0  0.82570  0.82050  0.24010  1.0000 0.0453226902
C   C18       1.0  0.17950  0.17430  0.74010  1.0000 0.0440961384
C   C19       1.0  0.87860  0.49880  0.54550  1.0000 -0.1079713702
C   C20       1.0  0.50120  0.12140  0.04550  1.0000 -0.1079713702
C   C21       1.0  0.89580  0.42560  0.60530  1.0000 -0.0476247854
C   C22       1.0  0.57440  0.10420  0.10530  1.0000 -0.0476247854
C   C23       1.0  0.91130  0.35150  0.51520  1.0000 0.1103410014
C   C24       1.0  0.64850  0.08870  0.01520  1.0000 0.1103410014
C   C25       1.0  0.02060  0.45920  0.19510  1.0000 0.0811192386
C   C26       1.0  0.54080  0.97940  0.69510  1.0000 0.0811192386
C   C27       1.0  0.98180  0.33100  0.23680  1.0000 -0.1184657896
C   C28       1.0  0.66900  0.01820  0.73680  1.0000 -0.1184657896
C   C29       1.0  0.04440  0.30660  0.18830  1.0000 -0.0313519495
C   C30       1.0  0.69340  0.95560  0.68830  1.0000 -0.0313519495
C   C31       1.0  0.32720  0.76700  0.35020  1.0000 -0.2901934139
C   C32       1.0  0.23300  0.67280  0.85020  1.0000 -0.2901934139
C   C33       1.0  0.25580  0.77600  0.28590  1.0000 0.197078459
C   C34       1.0  0.22400  0.74420  0.78590  1.0000 0.197078459
C   C35       1.0  0.26550  0.69310  0.25360  1.0000 -0.3109112344
C   C36       1.0  0.30690  0.73450  0.75360  1.0000 -0.3109112344
C   C37       1.0  0.34480  0.59600  0.28780  1.0000 0.197078459
C   C38       1.0  0.40400  0.65520  0.78780  1.0000 0.197078459
C   C39       1.0  0.41840  0.58240  0.35160  1.0000 -0.274976205
C   C40       1.0  0.41760  0.58160  0.85160  1.0000 -0.274976205
C   C41       1.0  0.40920  0.66820  0.38160  1.0000 0.2075151615
C   C42       1.0  0.33180  0.59080  0.88160  1.0000 0.2075151615
C   C43       1.0  0.06920  0.88240  0.22290  1.0000 0.0603798442
C   C44       1.0  0.11760  0.93080  0.72290  1.0000 0.0603798442
C   C45       1.0  0.05130  0.03290  0.23910  1.0000 -0.0656599346
C   C46       1.0  0.96710  0.94870  0.73910  1.0000 -0.0656599346
C   C47       1.0  0.15210  0.97010  0.26760  1.0000 -0.1001583282
C   C48       1.0  0.02990  0.84790  0.76760  1.0000 -0.1001583282
C   C49       1.0  0.27340  0.50640  0.20470  1.0000 0.0679422133
C   C50       1.0  0.49360  0.72660  0.70470  1.0000 0.0679422133
C   C51       1.0  0.38360  0.34960  0.24120  1.0000 -0.0313519495
C   C52       1.0  0.65040  0.61640  0.74120  1.0000 -0.0313519495
C   C53       1.0  0.42190  0.40490  0.28170  1.0000 -0.1184657896
C   C54       1.0  0.59510  0.57810  0.78170  1.0000 -0.1184657896
C   C55       1.0  0.50940  0.73360  0.46640  1.0000 0.0811192386
C   C56       1.0  0.26640  0.49060  0.96640  1.0000 0.0811192386
C   C57       1.0  0.59750  0.59410  0.55370  1.0000 -0.0368601977
C   C58       1.0  0.40590  0.40250  0.05370  1.0000 -0.0368601977
C   C59       1.0  0.53910  0.56750  0.50160  1.0000 -0.1001583282
C   C60       1.0  0.43250  0.46090  0.00160  1.0000 -0.1001583282
C   C61       1.0  0.25700  0.15160  0.10600  1.0000 0.5406703242
C   C62       1.0  0.84840  0.74300  0.60600  1.0000 0.5406703242
C   C63       1.0  0.33010  0.04170  0.14770  1.0000 -0.0368601977
C   C64       1.0  0.95830  0.66990  0.64770  1.0000 -0.0368601977
C   C65       1.0  0.32610  0.95570  0.12430  1.0000 -0.1184657896
C   C66       1.0  0.04430  0.67390  0.62430  1.0000 -0.1184657896
C   C67       1.0  0.39690  0.85590  0.15680  1.0000 -0.1601441986
C   C68       1.0  0.14410  0.60310  0.65680  1.0000 -0.1601441986
C   C69       1.0  0.47400  0.83960  0.22150  1.0000 -0.0091549383
C   C70       1.0  0.16040  0.52600  0.72150  1.0000 -0.0091549383
C   C71       1.0  0.47500  0.92400  0.24910  1.0000 -0.1508719362
C   C72       1.0  0.07600  0.52500  0.74910  1.0000 -0.1508719362
C   C73       1.0  0.40360  0.02420  0.21190  1.0000 -0.1273449473
C   C74       1.0  0.97580  0.59640  0.71190  1.0000 -0.1273449473
C   C75       1.0  0.55470  0.73130  0.26210  1.0000 0.3280660399
C   C76       1.0  0.26870  0.44530  0.76210  1.0000 0.3280660399
C   C77       1.0  0.59140  0.64840  0.21810  1.0000 -0.0091549383
C   C78       1.0  0.35160  0.40860  0.71810  1.0000 -0.0091549383
C   C79       1.0  0.62940  0.54340  0.25350  1.0000 -0.1508719362
C   C80       1.0  0.45660  0.37060  0.75350  1.0000 -0.1508719362
C   C81       1.0  0.66520  0.46780  0.21410  1.0000 -0.1372262649
C   C82       1.0  0.53220  0.33480  0.71410  1.0000 -0.1372262649
C   C83       1.0  0.67030  0.49350  0.13850  1.0000 -0.0368601977
C   C84       1.0  0.50650  0.32970  0.63850  1.0000 -0.0368601977
C   C85       1.0  0.63690  0.59750  0.10430  1.0000 -0.1184657896
C   C86       1.0  0.40250  0.36310  0.60430  1.0000 -0.1184657896
C   C87       1.0  0.59470  0.67570  0.14300  1.0000 -0.1601441986
C   C88       1.0  0.32430  0.40530  0.64300  1.0000 -0.1601441986
C   C89       1.0  0.71190  0.41230  0.09530  1.0000 0.532798756
C   C90       1.0  0.58770  0.28810  0.59530  1.0000 0.532798756
N   N1        1.0  0.79800  0.91860  0.24150  1.0000 -0.2999449335
N   N2        1.0  0.08140  0.20200  0.74150  1.0000 -0.2999449335
N   N3        1.0  0.80340  0.76700  0.29760  1.0000 0.0019381531
N   N4        1.0  0.23300  0.19660  0.79760  1.0000 0.0019381531
N   N5        1.0  0.06970  0.38630  0.16210  1.0000 -0.2999449335
N   N6        1.0  0.61370  0.93030  0.66210  1.0000 -0.2999449335
N   N7        1.0  0.96650  0.43130  0.24090  1.0000 0.0019381531
N   N8        1.0  0.56870  0.03350  0.74090  1.0000 0.0019381531
N   N9        1.0  0.91280  0.33240  0.58550  1.0000 -0.2901934139
N   N10       1.0  0.66760  0.08720  0.08550  1.0000 -0.2901934139
N   N11       1.0  0.88210  0.45350  0.48490  1.0000 -0.0091549383
N   N12       1.0  0.54650  0.11790  0.98490  1.0000 -0.0019900412
N   N13       1.0  0.99870  0.97690  0.21150  1.0000 -0.3109112344
N   N14       1.0  0.02310  0.00130  0.71150  1.0000 -0.3109112344
N   N15       1.0  0.16580  0.87240  0.25710  1.0000 -0.0019900412
N   N16       1.0  0.12760  0.83420  0.75710  1.0000 -0.0019900412
N   N17       1.0  0.29110  0.41330  0.19300  1.0000 -0.2901934139
N   N18       1.0  0.58670  0.70890  0.69300  1.0000 -0.2901934139
N   N19       1.0  0.34900  0.50740  0.25770  1.0000 -0.0019900412
N   N20       1.0  0.49260  0.65100  0.75770  1.0000 -0.0019900412
N   N21       1.0  0.58020  0.69780  0.53110  1.0000 -0.3109112344
N   N22       1.0  0.30220  0.41980  0.03110  1.0000 -0.3109112344
N   N23       1.0  0.48270  0.65670  0.44770  1.0000 -0.0019900412
N   N24       1.0  0.34330  0.51730  0.94770  1.0000 -0.0019900412
O   O1        1.0  0.27397  0.22437  0.12930  1.0000 -0.5781627409
O   O2        1.0  0.77563  0.72603  0.62930  1.0000 -0.5781627409
O   O3        1.0  0.18640  0.16440  0.05220  1.0000 -0.5620801262
O   O4        1.0  0.83560  0.81360  0.55220  1.0000 -0.5620801262
O   O5        1.0  0.59020  0.71200  0.32870  1.0000 -0.4176903031
O   O6        1.0  0.28800  0.40980  0.82870  1.0000 -0.4176903031
O   O7        1.0  0.70820  0.44200  0.02810  1.0000 -0.5696194581
O   O8        1.0  0.55800  0.29180  0.52810  1.0000 -0.5696194581
O   O9        1.0  0.74240  0.31880  0.12740  1.0000 -0.5781627409
O   O10       1.0  0.68120  0.25760  0.62740  1.0000 -0.5781627409
O   O11       1.0  0.77520  0.14800  0.22600  1.0000 -0.7093760632
O   O12       1.0  0.85200  0.22480  0.72600  1.0000 -0.7093760632
O   O13       1.0  0.84210  0.15410  0.07620  1.0000 -0.6768077723
O   O14       1.0  0.84590  0.15790  0.57620  1.0000 -0.6768077723
O   O15       1.0  0.87970  0.91530  0.09220  1.0000 -0.7574898265
O   O16       1.0  0.08470  0.12030  0.59220  1.0000 -0.7574898265
O   O17       1.0  0.09652  0.56252  0.06350  1.0000 -0.7574898265
O   O18       1.0  0.43748  0.90348  0.56350  1.0000 -0.7574898265
O   O19       1.0  0.09680  0.37180  0.99430  1.0000 -0.7093760632
O   O20       1.0  0.62820  0.90320  0.49430  1.0000 -0.7093760632
