# DDEC6 charges by PACMAN v1.1 (https://github.com/mtap-research/PACMAN-charge/)
data_2015[U][umc]3[FSR]1
_chemical_formula_sum              "U4 H16 C32 O28"
_cell_length_a       10.9411
_cell_length_b       10.9411
_cell_length_c       20.127
_cell_angle_alpha    75.3975
_cell_angle_beta     104.603
_cell_angle_gamma    128.424

_symmetry_space_group_name_H-M    "P 1"
_symmetry_Int_Tables_number       1

loop_
  _symmetry_equiv_pos_as_xyz
  'x, y, z'

loop_
  _atom_site_type_symbol
  _atom_site_label
  _atom_site_symmetry_multiplicity
  _atom_site_fract_x
  _atom_site_fract_y
  _atom_site_fract_z
  _atom_site_occupancy
  _atom_site_charge
U   U1        1.0  0.26020  0.46996  0.88872  1.0000 2.3602235086
U   U2        1.0  0.46996  0.26020  0.61128  1.0000 2.3602235086
U   U3        1.0  0.73980  0.53004  0.11128  1.0000 2.3602235086
U   U4        1.0  0.53004  0.73980  0.38872  1.0000 2.3602235086
H   H1        1.0  0.32790  0.74050  0.74170  1.0000 0.1603783436
H   H2        1.0  0.74050  0.32790  0.75830  1.0000 0.1603783436
H   H3        1.0  0.67210  0.25950  0.25830  1.0000 0.1603783436
H   H4        1.0  0.25950  0.67210  0.24170  1.0000 0.1603783436
H   H5        1.0  0.48790  0.84970  0.56110  1.0000 0.1252792544
H   H6        1.0  0.84970  0.48790  0.93890  1.0000 0.1252792544
H   H7        1.0  0.51210  0.15030  0.43890  1.0000 0.1252792544
H   H8        1.0  0.15030  0.51210  0.06110  1.0000 0.1252792544
H   H9        1.0  0.39000  0.45840  0.68600  1.0000 0.1487679027
H   H10       1.0  0.45840  0.39000  0.81400  1.0000 0.1487679027
H   H11       1.0  0.61000  0.54160  0.31400  1.0000 0.1487679027
H   H12       1.0  0.54160  0.61000  0.18600  1.0000 0.1487679027
H   H13       1.0  0.52300  0.76900  0.50000  1.0000 0.3397367999
H   H14       1.0  0.76900  0.52300  0.00000  1.0000 0.3397367999
H   H15       1.0  0.47700  0.23100  0.50000  1.0000 0.3397367999
H   H16       1.0  0.23100  0.47700  0.00000  1.0000 0.3397367999
C   C1        1.0  0.34390  0.57970  0.72390  1.0000 0.3397367999
C   C2        1.0  0.57970  0.34390  0.77610  1.0000 0.3397367999
C   C3        1.0  0.65610  0.42030  0.27610  1.0000 0.3397367999
C   C4        1.0  0.42030  0.65610  0.22390  1.0000 0.3397367999
C   C5        1.0  0.35520  0.71560  0.70980  1.0000 -0.1767639414
C   C6        1.0  0.71560  0.35520  0.79020  1.0000 -0.1767639414
C   C7        1.0  0.64480  0.28440  0.29020  1.0000 -0.1767639414
C   C8        1.0  0.28440  0.64480  0.20980  1.0000 -0.1767639414
C   C9        1.0  0.40690  0.81770  0.64840  1.0000 -0.0008268896
C   C10       1.0  0.81770  0.40690  0.85160  1.0000 -0.0008268896
C   C11       1.0  0.59310  0.18230  0.35160  1.0000 -0.0008268896
C   C12       1.0  0.18230  0.59310  0.14840  1.0000 -0.0008268896
C   C13       1.0  0.45140  0.78200  0.60160  1.0000 -0.158031796
C   C14       1.0  0.78200  0.45140  0.89840  1.0000 -0.158031796
C   C15       1.0  0.54860  0.21800  0.39840  1.0000 -0.158031796
C   C16       1.0  0.21800  0.54860  0.10160  1.0000 -0.158031796
C   C17       1.0  0.44130  0.64410  0.61550  1.0000 -0.0512537908
C   C18       1.0  0.64410  0.44130  0.88450  1.0000 -0.0512537908
C   C19       1.0  0.55870  0.35590  0.38450  1.0000 -0.0512537908
C   C20       1.0  0.35590  0.55870  0.11550  1.0000 -0.0512537908
C   C21       1.0  0.39190  0.54730  0.67610  1.0000 -0.158031796
C   C22       1.0  0.54730  0.39190  0.82390  1.0000 -0.158031796
C   C23       1.0  0.60810  0.45270  0.32390  1.0000 -0.158031796
C   C24       1.0  0.45270  0.60810  0.17610  1.0000 -0.158031796
C   C25       1.0  0.42910  0.96890  0.63660  1.0000 0.5813369967
C   C26       1.0  0.96890  0.42910  0.86340  1.0000 0.5813369967
C   C27       1.0  0.57090  0.03110  0.36340  1.0000 0.5813369967
C   C28       1.0  0.03110  0.57090  0.13660  1.0000 0.5813369967
C   C29       1.0  0.49580  0.60880  0.56640  1.0000 0.664395786
C   C30       1.0  0.60880  0.49580  0.93360  1.0000 0.664395786
C   C31       1.0  0.50420  0.39120  0.43360  1.0000 0.664395786
C   C32       1.0  0.39120  0.50420  0.06640  1.0000 0.6651293404
O   O1        1.0  0.16240  0.26460  0.90290  1.0000 -0.6742749892
O   O2        1.0  0.26460  0.16240  0.59710  1.0000 -0.6742749892
O   O3        1.0  0.83760  0.73540  0.09710  1.0000 -0.6742749892
O   O4        1.0  0.73540  0.83760  0.40290  1.0000 -0.6742749892
O   O5        1.0  0.35820  0.67500  0.87420  1.0000 -0.6880198204
O   O6        1.0  0.67500  0.35820  0.62580  1.0000 -0.6880198204
O   O7        1.0  0.64180  0.32500  0.12580  1.0000 -0.6880198204
O   O8        1.0  0.32500  0.64180  0.37420  1.0000 -0.6880198204
O   O9        1.0  0.28680  0.47320  0.78080  1.0000 -0.6073827379
O   O10       1.0  0.47320  0.28680  0.71920  1.0000 -0.6073827379
O   O11       1.0  0.71320  0.52680  0.21920  1.0000 -0.6073827379
O   O12       1.0  0.52680  0.71320  0.28080  1.0000 -0.6073827379
O   O13       1.0  0.43270  0.02630  0.68480  1.0000 -0.5500299715
O   O14       1.0  0.02630  0.43270  0.81520  1.0000 -0.5500299715
O   O15       1.0  0.56730  0.97370  0.31520  1.0000 -0.5500299715
O   O16       1.0  0.97370  0.56730  0.18480  1.0000 -0.5500299715
O   O17       1.0  0.44210  0.04230  0.57580  1.0000 -0.6022127651
O   O18       1.0  0.04230  0.44210  0.92420  1.0000 -0.6022127651
O   O19       1.0  0.55790  0.95770  0.42420  1.0000 -0.6022127651
O   O20       1.0  0.95770  0.55790  0.07580  1.0000 -0.6022127651
O   O21       1.0  0.52660  0.69060  0.50880  1.0000 -0.467690111
O   O22       1.0  0.69060  0.52660  0.99120  1.0000 -0.467690111
O   O23       1.0  0.47340  0.30940  0.49120  1.0000 -0.467690111
O   O24       1.0  0.30940  0.47340  0.00880  1.0000 -0.467690111
O   O25       1.0  0.51000  0.50100  0.58510  1.0000 -0.5859522654
O   O26       1.0  0.50100  0.51000  0.91490  1.0000 -0.5859522654
O   O27       1.0  0.49000  0.49900  0.41490  1.0000 -0.5859522654
O   O28       1.0  0.49900  0.49000  0.08510  1.0000 -0.5842238896
