# DDEC6 charges by PACMAN v1.1 (https://github.com/mtap-research/PACMAN-charge/)
data_2015[Zn][crb]3[FSR]3
_chemical_formula_sum              "Zn4 H36 C60 N20 O16"
_cell_length_a       9.8439
_cell_length_b       17.6747
_cell_length_c       14.0738
_cell_angle_alpha    90
_cell_angle_beta     124.168
_cell_angle_gamma    90

_symmetry_space_group_name_H-M    "P 1"
_symmetry_Int_Tables_number       1

loop_
  _symmetry_equiv_pos_as_xyz
  'x, y, z'

loop_
  _atom_site_type_symbol
  _atom_site_label
  _atom_site_symmetry_multiplicity
  _atom_site_fract_x
  _atom_site_fract_y
  _atom_site_fract_z
  _atom_site_occupancy
  _atom_site_charge
Zn  Zn1       1.0  0.10468  0.54765  0.65804  1.0000 0.7486418213
Zn  Zn2       1.0  0.89532  0.04765  0.84196  1.0000 0.7486418213
Zn  Zn3       1.0  0.89532  0.45235  0.34196  1.0000 0.7486418213
Zn  Zn4       1.0  0.10468  0.95235  0.15804  1.0000 0.7486418213
H   H1        1.0  0.43150  0.06200  0.83590  1.0000 0.1407697562
H   H2        1.0  0.56850  0.56200  0.66410  1.0000 0.1407697562
H   H3        1.0  0.56850  0.93800  0.16410  1.0000 0.1407697562
H   H4        1.0  0.43150  0.43800  0.33590  1.0000 0.1407697562
H   H5        1.0  0.06360  0.21470  0.70880  1.0000 0.1490970876
H   H6        1.0  0.93640  0.71470  0.79120  1.0000 0.1490970876
H   H7        1.0  0.93640  0.78530  0.29120  1.0000 0.1490970876
H   H8        1.0  0.06360  0.28530  0.20880  1.0000 0.1490970876
H   H9        1.0  0.46320  0.25990  0.70510  1.0000 0.1407697562
H   H10       1.0  0.53680  0.75990  0.79490  1.0000 0.1407697562
H   H11       1.0  0.53680  0.74010  0.29490  1.0000 0.1407697562
H   H12       1.0  0.46320  0.24010  0.20510  1.0000 0.1407697562
H   H13       1.0  0.18740  0.26450  0.45670  1.0000 0.1490970876
H   H14       1.0  0.81260  0.76450  0.04330  1.0000 0.1490970876
H   H15       1.0  0.81260  0.73550  0.54330  1.0000 0.1490970876
H   H16       1.0  0.18740  0.23550  0.95670  1.0000 0.1490970876
H   H17       1.0  0.05860  0.22140  0.47070  1.0000 0.1599212911
H   H18       1.0  0.94140  0.72140  0.02930  1.0000 0.1599212911
H   H19       1.0  0.94140  0.77860  0.52930  1.0000 0.1599212911
H   H20       1.0  0.05860  0.27860  0.97070  1.0000 0.1599212911
H   H21       1.0  0.99760  0.28220  0.37200  1.0000 0.1860533382
H   H22       1.0  0.00240  0.78220  0.12800  1.0000 0.1860533382
H   H23       1.0  0.00240  0.71780  0.62800  1.0000 0.1860533382
H   H24       1.0  0.99760  0.21780  0.87200  1.0000 0.1860533382
H   H25       1.0  0.36750  0.31000  0.89610  1.0000 0.1216668736
H   H26       1.0  0.63250  0.81000  0.60390  1.0000 0.1216668736
H   H27       1.0  0.63250  0.69000  0.10390  1.0000 0.1216668736
H   H28       1.0  0.36750  0.19000  0.39610  1.0000 0.1216668736
H   H29       1.0  0.38310  0.47220  0.09160  1.0000 0.1216668736
H   H30       1.0  0.61690  0.97220  0.40840  1.0000 0.1216668736
H   H31       1.0  0.61690  0.52780  0.90840  1.0000 0.1216668736
H   H32       1.0  0.38310  0.02780  0.59160  1.0000 0.1216668736
H   H33       1.0  0.25060  0.55260  0.93560  1.0000 0.1407697562
H   H34       1.0  0.74940  0.05260  0.56440  1.0000 0.1407697562
H   H35       1.0  0.74940  0.44740  0.06440  1.0000 0.1407697562
H   H36       1.0  0.25060  0.94740  0.43560  1.0000 0.1407697562
C   C1        1.0  0.14450  0.08174  0.81360  1.0000 0.5439134564
C   C2        1.0  0.85550  0.58174  0.68640  1.0000 0.5439134564
C   C3        1.0  0.85550  0.91826  0.18640  1.0000 0.5439134564
C   C4        1.0  0.14450  0.41826  0.31360  1.0000 0.5439134564
C   C5        1.0  0.63290  0.13421  0.79230  1.0000 0.5512653913
C   C6        1.0  0.36710  0.63421  0.70770  1.0000 0.5512653913
C   C7        1.0  0.36710  0.86579  0.20770  1.0000 0.5512653913
C   C8        1.0  0.63290  0.36579  0.29230  1.0000 0.5512653913
C   C9        1.0  0.38620  0.10904  0.80100  1.0000 -0.1241461758
C   C10       1.0  0.61380  0.60904  0.69900  1.0000 -0.1241461758
C   C11       1.0  0.61380  0.89096  0.19900  1.0000 -0.1241461758
C   C12       1.0  0.38620  0.39096  0.30100  1.0000 -0.1241461758
C   C13       1.0  0.23500  0.13107  0.77860  1.0000 0.0087060009
C   C14       1.0  0.76500  0.63107  0.72140  1.0000 0.0087060009
C   C15       1.0  0.76500  0.86893  0.22140  1.0000 0.0087060009
C   C16       1.0  0.23500  0.36893  0.27860  1.0000 0.0087060009
C   C17       1.0  0.47035  0.15626  0.77225  1.0000 0.0087060009
C   C18       1.0  0.52965  0.65626  0.72775  1.0000 0.0087060009
C   C19       1.0  0.52965  0.84374  0.22775  1.0000 0.0087060009
C   C20       1.0  0.47035  0.34374  0.27225  1.0000 0.0087060009
C   C21       1.0  0.16720  0.20006  0.72640  1.0000 -0.2104569052
C   C22       1.0  0.83280  0.70006  0.77360  1.0000 -0.2104569052
C   C23       1.0  0.83280  0.79994  0.27360  1.0000 -0.2104569052
C   C24       1.0  0.16720  0.29994  0.22640  1.0000 -0.2104569052
C   C25       1.0  0.40560  0.22685  0.72290  1.0000 -0.1983388542
C   C26       1.0  0.59440  0.72685  0.77710  1.0000 -0.1983388542
C   C27       1.0  0.59440  0.77315  0.27710  1.0000 -0.1983388542
C   C28       1.0  0.40560  0.27315  0.22290  1.0000 -0.1983388542
C   C29       1.0  0.25496  0.24704  0.70076  1.0000 0.1407697562
C   C30       1.0  0.74504  0.74704  0.79924  1.0000 0.1407697562
C   C31       1.0  0.74504  0.75296  0.29924  1.0000 0.1407697562
C   C32       1.0  0.25496  0.25296  0.20076  1.0000 0.1407697562
C   C33       1.0  0.08440  0.26913  0.45030  1.0000 -0.5270553354
C   C34       1.0  0.91560  0.76913  0.04970  1.0000 -0.5270553354
C   C35       1.0  0.91560  0.73087  0.54970  1.0000 -0.5270553354
C   C36       1.0  0.08440  0.23087  0.95030  1.0000 -0.5270553354
C   C37       1.0  0.09900  0.32919  0.52910  1.0000 0.3777403559
C   C38       1.0  0.90100  0.82919  0.97090  1.0000 0.3777403559
C   C39       1.0  0.90100  0.67081  0.47090  1.0000 0.3777403559
C   C40       1.0  0.09900  0.17081  0.02910  1.0000 0.3777403559
C   C41       1.0  0.17920  0.38535  0.68980  1.0000 0.2220853593
C   C42       1.0  0.82080  0.88535  0.81020  1.0000 0.2220853593
C   C43       1.0  0.82080  0.61465  0.31020  1.0000 0.2220853593
C   C44       1.0  0.17920  0.11465  0.18980  1.0000 0.2220853593
C   C45       1.0  0.25190  0.40637  0.81070  1.0000 0.1118486102
C   C46       1.0  0.74810  0.90637  0.68930  1.0000 0.1118486102
C   C47       1.0  0.74810  0.59363  0.18930  1.0000 0.1118486102
C   C48       1.0  0.25190  0.09363  0.31070  1.0000 0.1118486102
C   C49       1.0  0.34210  0.35940  0.90590  1.0000 -0.015580744
C   C50       1.0  0.65790  0.85940  0.59410  1.0000 -0.015580744
C   C51       1.0  0.65790  0.64060  0.09410  1.0000 -0.015580744
C   C52       1.0  0.34210  0.14060  0.40590  1.0000 -0.015580744
C   C53       1.0  0.35400  0.45426  0.01960  1.0000 0.0214785908
C   C54       1.0  0.64600  0.95426  0.48040  1.0000 0.0214785908
C   C55       1.0  0.64600  0.54574  0.98040  1.0000 0.0214785908
C   C56       1.0  0.35400  0.04574  0.51960  1.0000 0.0214785908
C   C57       1.0  0.27120  0.50236  0.92530  1.0000 0.0574936557
C   C58       1.0  0.72880  0.00236  0.57470  1.0000 0.0574936557
C   C59       1.0  0.72880  0.49764  0.07470  1.0000 0.0574936557
C   C60       1.0  0.27120  0.99764  0.42530  1.0000 0.0574936557
N   N1        1.0  0.18336  0.31827  0.64482  1.0000 -0.0979106121
N   N2        1.0  0.81664  0.81827  0.85518  1.0000 -0.0979106121
N   N3        1.0  0.81664  0.68173  0.35518  1.0000 -0.0979106121
N   N4        1.0  0.18336  0.18173  0.14482  1.0000 -0.0979106121
N   N5        1.0  0.04361  0.39914  0.50468  1.0000 -0.1983388542
N   N6        1.0  0.95639  0.89914  0.99532  1.0000 -0.1983388542
N   N7        1.0  0.95639  0.60086  0.49532  1.0000 -0.1983388542
N   N8        1.0  0.04361  0.10086  0.00468  1.0000 -0.1904440199
N   N9        1.0  0.09466  0.43442  0.60697  1.0000 -0.1983388542
N   N10       1.0  0.90534  0.93442  0.89303  1.0000 -0.1983388542
N   N11       1.0  0.90534  0.56558  0.39303  1.0000 -0.1983388542
N   N12       1.0  0.09466  0.06558  0.10697  1.0000 -0.1983388542
N   N13       1.0  0.22120  0.47857  0.82140  1.0000 -0.1904440199
N   N14       1.0  0.77880  0.97857  0.67860  1.0000 -0.1904440199
N   N15       1.0  0.77880  0.52143  0.17860  1.0000 -0.1904440199
N   N16       1.0  0.22120  0.02143  0.32140  1.0000 -0.1904440199
N   N17       1.0  0.39320  0.38365  0.01140  1.0000 -0.1750277404
N   N18       1.0  0.60680  0.88365  0.48860  1.0000 -0.174464402
N   N19       1.0  0.60680  0.61635  0.98860  1.0000 -0.174464402
N   N20       1.0  0.39320  0.11635  0.51140  1.0000 -0.1750277404
O   O1        1.0  0.21580  0.02745  0.87880  1.0000 -0.5386777991
O   O2        1.0  0.78420  0.52745  0.62120  1.0000 -0.5386777991
O   O3        1.0  0.78420  0.97255  0.12120  1.0000 -0.5386777991
O   O4        1.0  0.21580  0.47255  0.37880  1.0000 -0.5386777991
O   O5        1.0  0.00099  0.10246  0.77729  1.0000 -0.5386777991
O   O6        1.0  0.99901  0.60246  0.72271  1.0000 -0.5386777991
O   O7        1.0  0.99901  0.89754  0.22271  1.0000 -0.5386777991
O   O8        1.0  0.00099  0.39754  0.27729  1.0000 -0.5386777991
O   O9        1.0  0.67297  0.06497  0.81144  1.0000 -0.553044704
O   O10       1.0  0.32703  0.56497  0.68856  1.0000 -0.553044704
O   O11       1.0  0.32703  0.93503  0.18856  1.0000 -0.553044704
O   O12       1.0  0.67297  0.43503  0.31144  1.0000 -0.553044704
O   O13       1.0  0.72010  0.18473  0.79130  1.0000 -0.5386777991
O   O14       1.0  0.27990  0.68473  0.70870  1.0000 -0.5386777991
O   O15       1.0  0.27990  0.81527  0.20870  1.0000 -0.5386777991
O   O16       1.0  0.72010  0.31527  0.29130  1.0000 -0.5386777991
