# DDEC6 charges by PACMAN v1.1 (https://github.com/mtap-research/PACMAN-charge/)
data_2015[Cd][pts]3[FSR]1
_chemical_formula_sum              "Cd2 H40 C44 N8"
_cell_length_a       7.75331
_cell_length_b       9.06114
_cell_length_c       15.2159
_cell_angle_alpha    90
_cell_angle_beta     90
_cell_angle_gamma    90

_symmetry_space_group_name_H-M    "P 1"
_symmetry_Int_Tables_number       1

loop_
  _symmetry_equiv_pos_as_xyz
  'x, y, z'

loop_
  _atom_site_type_symbol
  _atom_site_label
  _atom_site_symmetry_multiplicity
  _atom_site_fract_x
  _atom_site_fract_y
  _atom_site_fract_z
  _atom_site_occupancy
  _atom_site_charge
Cd  Cd1       1.0  0.75000  0.00000  0.00000  1.0000 0.7174109255
Cd  Cd2       1.0  0.25000  0.00000  0.00000  1.0000 0.7174109255
H   H1        1.0  0.62602  0.37281  0.61453  1.0000 0.1084621621
H   H2        1.0  0.62602  0.62719  0.38547  1.0000 0.1084621621
H   H3        1.0  0.12602  0.37281  0.38547  1.0000 0.1084621621
H   H4        1.0  0.12602  0.62719  0.61453  1.0000 0.1084621621
H   H5        1.0  0.62602  0.49746  0.74922  1.0000 0.1084621621
H   H6        1.0  0.62602  0.50254  0.25078  1.0000 0.1084621621
H   H7        1.0  0.12602  0.49746  0.25078  1.0000 0.1084621621
H   H8        1.0  0.12602  0.50254  0.74922  1.0000 0.1084621621
H   H9        1.0  0.41295  0.85518  0.63182  1.0000 0.1198144193
H   H10       1.0  0.41295  0.14482  0.36818  1.0000 0.1198144193
H   H11       1.0  0.91295  0.85518  0.36818  1.0000 0.1198144193
H   H12       1.0  0.91295  0.14482  0.63182  1.0000 0.1198144193
H   H13       1.0  0.41295  0.73053  0.49713  1.0000 0.1198144193
H   H14       1.0  0.41295  0.26947  0.50287  1.0000 0.1198144193
H   H15       1.0  0.91295  0.73053  0.50287  1.0000 0.1198144193
H   H16       1.0  0.91295  0.26947  0.49713  1.0000 0.1198144193
H   H17       1.0  0.14033  0.91471  0.81474  1.0000 0.1380569721
H   H18       1.0  0.14033  0.08529  0.18526  1.0000 0.1380569721
H   H19       1.0  0.64033  0.91471  0.18526  1.0000 0.1380569721
H   H20       1.0  0.64033  0.08529  0.81474  1.0000 0.1380569721
H   H21       1.0  0.24523  0.97835  0.73665  1.0000 0.1517176663
H   H22       1.0  0.24523  0.02165  0.26335  1.0000 0.1517176663
H   H23       1.0  0.74523  0.97835  0.26335  1.0000 0.1517176663
H   H24       1.0  0.74523  0.02165  0.73665  1.0000 0.1517176663
H   H25       1.0  0.19394  0.81290  0.73748  1.0000 0.1380569721
H   H26       1.0  0.19394  0.18710  0.26252  1.0000 0.1380569721
H   H27       1.0  0.69394  0.81290  0.26252  1.0000 0.1380569721
H   H28       1.0  0.69394  0.18710  0.73748  1.0000 0.1380569721
H   H29       1.0  0.81431  0.61704  0.78131  1.0000 0.1198144193
H   H30       1.0  0.81431  0.38296  0.21869  1.0000 0.1198144193
H   H31       1.0  0.31431  0.61704  0.21869  1.0000 0.1198144193
H   H32       1.0  0.31431  0.38296  0.78131  1.0000 0.1198144193
H   H33       1.0  0.92140  0.75285  0.84774  1.0000 0.1335363423
H   H34       1.0  0.92140  0.24715  0.15226  1.0000 0.1335363423
H   H35       1.0  0.42140  0.75285  0.15226  1.0000 0.1335363423
H   H36       1.0  0.42140  0.24715  0.84774  1.0000 0.1335363423
H   H37       1.0  0.81821  0.59744  0.89875  1.0000 0.1380569721
H   H38       1.0  0.81821  0.40256  0.10125  1.0000 0.1380569721
H   H39       1.0  0.31821  0.59744  0.10125  1.0000 0.1380569721
H   H40       1.0  0.31821  0.40256  0.89875  1.0000 0.1380569721
C   C1        1.0  0.51949  0.53995  0.54317  1.0000 0.0658656319
C   C2        1.0  0.51949  0.46005  0.45683  1.0000 0.0658656319
C   C3        1.0  0.01949  0.53995  0.45683  1.0000 0.0658656319
C   C4        1.0  0.01949  0.46005  0.54317  1.0000 0.0658656319
C   C5        1.0  0.58277  0.47073  0.61804  1.0000 -0.1416169706
C   C6        1.0  0.58277  0.52927  0.38196  1.0000 -0.1416169706
C   C7        1.0  0.08277  0.47073  0.38196  1.0000 -0.1416169706
C   C8        1.0  0.08277  0.52927  0.61804  1.0000 -0.1416169706
C   C9        1.0  0.58277  0.54477  0.69805  1.0000 -0.1498228476
C   C10       1.0  0.58277  0.45523  0.30195  1.0000 -0.1498228476
C   C11       1.0  0.08277  0.54477  0.30195  1.0000 -0.1498228476
C   C12       1.0  0.08277  0.45523  0.69805  1.0000 -0.1498228476
C   C13       1.0  0.51949  0.68804  0.70318  1.0000 0.1084621621
C   C14       1.0  0.51949  0.31196  0.29682  1.0000 0.1084621621
C   C15       1.0  0.01949  0.68804  0.29682  1.0000 0.1084621621
C   C16       1.0  0.01949  0.31196  0.70318  1.0000 0.1084621621
C   C17       1.0  0.45620  0.75726  0.62831  1.0000 -0.1498228476
C   C18       1.0  0.45620  0.24274  0.37169  1.0000 -0.1498228476
C   C19       1.0  0.95620  0.75726  0.37169  1.0000 -0.1498228476
C   C20       1.0  0.95620  0.24274  0.62831  1.0000 -0.1498228476
C   C21       1.0  0.45620  0.68322  0.54830  1.0000 -0.1498228476
C   C22       1.0  0.45620  0.31678  0.45170  1.0000 -0.1498228476
C   C23       1.0  0.95620  0.68322  0.45170  1.0000 -0.1498228476
C   C24       1.0  0.95620  0.31678  0.54830  1.0000 -0.1498228476
C   C25       1.0  0.51949  0.76760  0.78915  1.0000 -0.1683001334
C   C26       1.0  0.51949  0.23240  0.21085  1.0000 -0.1683001334
C   C27       1.0  0.01949  0.76760  0.21085  1.0000 -0.1683001334
C   C28       1.0  0.01949  0.23240  0.78915  1.0000 -0.1683001334
C   C29       1.0  0.39243  0.85756  0.81961  1.0000 0.1918386405
C   C30       1.0  0.39243  0.14244  0.18039  1.0000 0.1918386405
C   C31       1.0  0.89243  0.85756  0.18039  1.0000 0.1918386405
C   C32       1.0  0.89243  0.14244  0.81961  1.0000 0.1918386405
C   C33       1.0  0.22799  0.89422  0.77286  1.0000 -0.4840648214
C   C34       1.0  0.22799  0.10578  0.22714  1.0000 -0.4840648214
C   C35       1.0  0.72799  0.89422  0.22714  1.0000 -0.4840648214
C   C36       1.0  0.72799  0.10578  0.77286  1.0000 -0.4840648214
C   C37       1.0  0.64654  0.76282  0.85071  1.0000 0.1918386405
C   C38       1.0  0.64654  0.23718  0.14929  1.0000 0.1918386405
C   C39       1.0  0.14654  0.76282  0.14929  1.0000 0.1918386405
C   C40       1.0  0.14654  0.23718  0.85071  1.0000 0.1918386405
C   C41       1.0  0.81098  0.67686  0.84420  1.0000 -0.4278207089
C   C42       1.0  0.81098  0.32314  0.15580  1.0000 -0.4278207089
C   C43       1.0  0.31098  0.67686  0.15580  1.0000 -0.4278207089
C   C44       1.0  0.31098  0.32314  0.84420  1.0000 -0.4278207089
N   N1        1.0  0.44096  0.90837  0.90000  1.0000 -0.2606159339
N   N2        1.0  0.44096  0.09163  0.10000  1.0000 -0.2606159339
N   N3        1.0  0.94096  0.90837  0.10000  1.0000 -0.2606159339
N   N4        1.0  0.94096  0.09163  0.90000  1.0000 -0.2606159339
N   N5        1.0  0.59801  0.84981  0.91922  1.0000 -0.2606159339
N   N6        1.0  0.59801  0.15019  0.08078  1.0000 -0.2606159339
N   N7        1.0  0.09801  0.84981  0.08078  1.0000 -0.2606159339
N   N8        1.0  0.09801  0.15019  0.91922  1.0000 -0.2606159339
