# DDEC6 charges by PACMAN v1.1 (https://github.com/mtap-research/PACMAN-charge/)
data_2016[Cd][sql]2[FSR]2
_chemical_formula_sum              "Cd4 H36 C44 N12 O12"
_cell_length_a       9.68447
_cell_length_b       9.68447
_cell_length_c       17.8204
_cell_angle_alpha    87.1854
_cell_angle_beta     92.8146
_cell_angle_gamma    77.5116

_symmetry_space_group_name_H-M    "P 1"
_symmetry_Int_Tables_number       1

loop_
  _symmetry_equiv_pos_as_xyz
  'x, y, z'

loop_
  _atom_site_type_symbol
  _atom_site_label
  _atom_site_symmetry_multiplicity
  _atom_site_fract_x
  _atom_site_fract_y
  _atom_site_fract_z
  _atom_site_occupancy
  _atom_site_charge
Cd  Cd1       1.0  0.84996  0.84996  0.25000  1.0000 0.8489022383
Cd  Cd2       1.0  0.15004  0.15004  0.75000  1.0000 0.8489022383
Cd  Cd3       1.0  0.53313  0.53313  0.75000  1.0000 0.7690734992
Cd  Cd4       1.0  0.46687  0.46687  0.25000  1.0000 0.7690734992
H   H1        1.0  0.63490  0.62610  0.44830  1.0000 0.1108993619
H   H2        1.0  0.62610  0.63490  0.05170  1.0000 0.1108993619
H   H3        1.0  0.36510  0.37390  0.55170  1.0000 0.1108993619
H   H4        1.0  0.37390  0.36510  0.94830  1.0000 0.1108993619
H   H5        1.0  0.72510  0.98910  0.51190  1.0000 0.1177864799
H   H6        1.0  0.98910  0.72510  0.98810  1.0000 0.1177864799
H   H7        1.0  0.27490  0.01090  0.48810  1.0000 0.1177864799
H   H8        1.0  0.01090  0.27490  0.01190  1.0000 0.1177864799
H   H9        1.0  0.28050  0.65810  0.90040  1.0000 0.1108993619
H   H10       1.0  0.65810  0.28050  0.59960  1.0000 0.1108993619
H   H11       1.0  0.71950  0.34190  0.09960  1.0000 0.1108993619
H   H12       1.0  0.34190  0.71950  0.40040  1.0000 0.1108993619
H   H13       1.0  0.14250  0.90110  0.88760  1.0000 0.1267329832
H   H14       1.0  0.90110  0.14250  0.61240  1.0000 0.1267329832
H   H15       1.0  0.85750  0.09890  0.11240  1.0000 0.1267329832
H   H16       1.0  0.09890  0.85750  0.38760  1.0000 0.1267329832
H   H17       1.0  0.41270  0.94350  0.67790  1.0000 0.1108993619
H   H18       1.0  0.94350  0.41270  0.82210  1.0000 0.1108993619
H   H19       1.0  0.58730  0.05650  0.32210  1.0000 0.1108993619
H   H20       1.0  0.05650  0.58730  0.17790  1.0000 0.1108993619
H   H21       1.0  0.54590  0.59170  0.56450  1.0000 0.1267329832
H   H22       1.0  0.59170  0.54590  0.93550  1.0000 0.1267329832
H   H23       1.0  0.45410  0.40830  0.43550  1.0000 0.1267329832
H   H24       1.0  0.40830  0.45410  0.06450  1.0000 0.1267329832
H   H25       1.0  0.62860  0.95940  0.62610  1.0000 0.1267329832
H   H26       1.0  0.95940  0.62860  0.87390  1.0000 0.1267329832
H   H27       1.0  0.37140  0.04060  0.37390  1.0000 0.1267329832
H   H28       1.0  0.04060  0.37140  0.12610  1.0000 0.1267329832
H   H29       1.0  0.27450  0.54830  0.68100  1.0000 0.3489494452
H   H30       1.0  0.54830  0.27450  0.81900  1.0000 0.3489494452
H   H31       1.0  0.72550  0.45170  0.31900  1.0000 0.3489494452
H   H32       1.0  0.45170  0.72550  0.18100  1.0000 0.3489494452
H   H33       1.0  0.34120  0.40560  0.68330  1.0000 0.3577208349
H   H34       1.0  0.40560  0.34120  0.81670  1.0000 0.3577208349
H   H35       1.0  0.65880  0.59440  0.31670  1.0000 0.3577208349
H   H36       1.0  0.59440  0.65880  0.18330  1.0000 0.3577208349
C   C1        1.0  0.74880  0.83460  0.39310  1.0000 0.5391475985
C   C2        1.0  0.83460  0.74880  0.10690  1.0000 0.5391475985
C   C3        1.0  0.25120  0.16540  0.60690  1.0000 0.5391475985
C   C4        1.0  0.16540  0.25120  0.89310  1.0000 0.5391475985
C   C5        1.0  0.68820  0.81220  0.46750  1.0000 -0.0328479218
C   C6        1.0  0.81220  0.68820  0.03250  1.0000 -0.0328479218
C   C7        1.0  0.31180  0.18780  0.53250  1.0000 -0.0328479218
C   C8        1.0  0.18780  0.31180  0.96750  1.0000 -0.0328479218
C   C9        1.0  0.63440  0.69300  0.48400  1.0000 -0.1015407762
C   C10       1.0  0.69300  0.63440  0.01600  1.0000 -0.1015407762
C   C11       1.0  0.36560  0.30700  0.51600  1.0000 -0.1015407762
C   C12       1.0  0.30700  0.36560  0.98400  1.0000 -0.1015407762
C   C13       1.0  0.68700  0.91020  0.52170  1.0000 -0.087495085
C   C14       1.0  0.91020  0.68700  0.97830  1.0000 -0.087495085
C   C15       1.0  0.31300  0.08980  0.47830  1.0000 -0.087495085
C   C16       1.0  0.08980  0.31300  0.02170  1.0000 -0.087495085
C   C17       1.0  0.35520  0.83120  0.76820  1.0000 0.250040082
C   C18       1.0  0.83120  0.35520  0.73180  1.0000 0.250040082
C   C19       1.0  0.64480  0.16880  0.23180  1.0000 0.250040082
C   C20       1.0  0.16880  0.64480  0.26820  1.0000 0.250040082
C   C21       1.0  0.28890  0.72610  0.86330  1.0000 -0.0425701609
C   C22       1.0  0.72610  0.28890  0.63670  1.0000 -0.0425701609
C   C23       1.0  0.71110  0.27390  0.13670  1.0000 -0.0425701609
C   C24       1.0  0.27390  0.71110  0.36330  1.0000 -0.0425701609
C   C25       1.0  0.21200  0.86140  0.85600  1.0000 -0.0328479218
C   C26       1.0  0.86140  0.21200  0.64400  1.0000 -0.0328479218
C   C27       1.0  0.78800  0.13860  0.14400  1.0000 -0.0328479218
C   C28       1.0  0.13860  0.78800  0.35600  1.0000 -0.0328479218
C   C29       1.0  0.42770  0.85330  0.70150  1.0000 0.0455223972
C   C30       1.0  0.85330  0.42770  0.79850  1.0000 0.0455223972
C   C31       1.0  0.57230  0.14670  0.29850  1.0000 0.0455223972
C   C32       1.0  0.14670  0.57230  0.20150  1.0000 0.0455223972
C   C33       1.0  0.57510  0.77470  0.60590  1.0000 0.2052268216
C   C34       1.0  0.77470  0.57510  0.89410  1.0000 0.2052268216
C   C35       1.0  0.42490  0.22530  0.39410  1.0000 0.204908354
C   C36       1.0  0.22530  0.42490  0.10590  1.0000 0.2052268216
C   C37       1.0  0.57950  0.67290  0.55340  1.0000 -0.1689974984
C   C38       1.0  0.67290  0.57950  0.94660  1.0000 -0.1689974984
C   C39       1.0  0.42050  0.32710  0.44660  1.0000 -0.1689974984
C   C40       1.0  0.32710  0.42050  0.05340  1.0000 -0.1689974984
C   C41       1.0  0.62990  0.89210  0.59040  1.0000 -0.1774851402
C   C42       1.0  0.89210  0.62990  0.90960  1.0000 -0.1774851402
C   C43       1.0  0.37010  0.10790  0.40960  1.0000 -0.1774851402
C   C44       1.0  0.10790  0.37010  0.09040  1.0000 -0.1774851402
N   N1        1.0  0.38070  0.70630  0.80720  1.0000 -0.3505864313
N   N2        1.0  0.70630  0.38070  0.69280  1.0000 -0.3505864313
N   N3        1.0  0.61930  0.29370  0.19280  1.0000 -0.3505864313
N   N4        1.0  0.29370  0.61930  0.30720  1.0000 -0.3505864313
N   N5        1.0  0.51260  0.74980  0.67458  1.0000 -0.2803560367
N   N6        1.0  0.74980  0.51260  0.82542  1.0000 -0.2803560367
N   N7        1.0  0.48740  0.25020  0.32542  1.0000 -0.2803560367
N   N8        1.0  0.25020  0.48740  0.17458  1.0000 -0.2803560367
N   N9        1.0  0.25230  0.93010  0.79538  1.0000 -0.340560632
N   N10       1.0  0.93010  0.25230  0.70462  1.0000 -0.340560632
N   N11       1.0  0.74770  0.06990  0.20462  1.0000 -0.340560632
N   N12       1.0  0.06990  0.74770  0.29538  1.0000 -0.340560632
O   O1        1.0  0.82190  0.92370  0.38537  1.0000 -0.5446202626
O   O2        1.0  0.92370  0.82190  0.11463  1.0000 -0.5446202626
O   O3        1.0  0.17810  0.07630  0.61463  1.0000 -0.5446202626
O   O4        1.0  0.07630  0.17810  0.88537  1.0000 -0.5446202626
O   O5        1.0  0.71910  0.76370  0.33878  1.0000 -0.5680709353
O   O6        1.0  0.76370  0.71910  0.16122  1.0000 -0.5680709353
O   O7        1.0  0.28090  0.23630  0.66122  1.0000 -0.5680709353
O   O8        1.0  0.23630  0.28090  0.83878  1.0000 -0.5680709353
O   O9        1.0  0.35110  0.48970  0.67330  1.0000 -0.6582201442
O   O10       1.0  0.48970  0.35110  0.82670  1.0000 -0.6582201442
O   O11       1.0  0.64890  0.51030  0.32670  1.0000 -0.6582201442
O   O12       1.0  0.51030  0.64890  0.17330  1.0000 -0.6582201442
