# DDEC6 charges by PACMAN v1.1 (https://github.com/mtap-research/PACMAN-charge/)
data_2016[Ag][nan]3[FSR]4
_chemical_formula_sum              "Ag16 H64 C96 N16 O32"
_cell_length_a       19.7602
_cell_length_b       19.7602
_cell_length_c       19.7602
_cell_angle_alpha    158.859
_cell_angle_beta     106.078
_cell_angle_gamma    77.8989

_symmetry_space_group_name_H-M    "P 1"
_symmetry_Int_Tables_number       1

loop_
  _symmetry_equiv_pos_as_xyz
  'x, y, z'

loop_
  _atom_site_type_symbol
  _atom_site_label
  _atom_site_symmetry_multiplicity
  _atom_site_fract_x
  _atom_site_fract_y
  _atom_site_fract_z
  _atom_site_occupancy
  _atom_site_charge
Ag  Ag1       1.0  0.06068  0.48576  0.96518  1.0000 0.3582260232
Ag  Ag2       1.0  0.02058  0.09550  0.53482  1.0000 0.3582260232
Ag  Ag3       1.0  0.47942  0.01424  0.07492  1.0000 0.3582260232
Ag  Ag4       1.0  0.43932  0.40450  0.42508  1.0000 0.3582260232
Ag  Ag5       1.0  0.93932  0.51424  0.03482  1.0000 0.3582260232
Ag  Ag6       1.0  0.97942  0.90450  0.46518  1.0000 0.3582260232
Ag  Ag7       1.0  0.52058  0.98576  0.92508  1.0000 0.3582260232
Ag  Ag8       1.0  0.56068  0.59550  0.57492  1.0000 0.3582260232
Ag  Ag9       1.0  0.92634  0.00928  0.96758  1.0000 0.4037625749
Ag  Ag10      1.0  0.54170  0.95876  0.53243  1.0000 0.4037625749
Ag  Ag11      1.0  0.95830  0.49072  0.41706  1.0000 0.4037625749
Ag  Ag12      1.0  0.57366  0.54124  0.08295  1.0000 0.4037625749
Ag  Ag13      1.0  0.07367  0.99072  0.03243  1.0000 0.4037625749
Ag  Ag14      1.0  0.45830  0.04124  0.46758  1.0000 0.4037625749
Ag  Ag15      1.0  0.04170  0.50928  0.58295  1.0000 0.4037625749
Ag  Ag16      1.0  0.42634  0.45876  0.91706  1.0000 0.4037625749
H   H1        1.0  0.19890  0.28400  0.82450  1.0000 0.1211121734
H   H2        1.0  0.95950  0.37440  0.67550  1.0000 0.1211121734
H   H3        1.0  0.54050  0.21600  0.41490  1.0000 0.1211121734
H   H4        1.0  0.30110  0.12560  0.08510  1.0000 0.1211121734
H   H5        1.0  0.80110  0.71600  0.17550  1.0000 0.1211121734
H   H6        1.0  0.04050  0.62560  0.32450  1.0000 0.1211121734
H   H7        1.0  0.45950  0.78400  0.58510  1.0000 0.1211121734
H   H8        1.0  0.69890  0.87440  0.91490  1.0000 0.1211121734
H   H9        1.0  0.30990  0.27430  0.80420  1.0000 0.1211121734
H   H10       1.0  0.97010  0.50570  0.69580  1.0000 0.1211121734
H   H11       1.0  0.52990  0.22570  0.53560  1.0000 0.1211121734
H   H12       1.0  0.19010  0.99430  0.96440  1.0000 0.1211121734
H   H13       1.0  0.69010  0.72570  0.19580  1.0000 0.1211121734
H   H14       1.0  0.02990  0.49430  0.30420  1.0000 0.1211121734
H   H15       1.0  0.47010  0.77430  0.46440  1.0000 0.1211121734
H   H16       1.0  0.80990  0.00570  0.03560  1.0000 0.1211121734
H   H17       1.0  0.27640  0.63120  0.98760  1.0000 0.1211121734
H   H18       1.0  0.14360  0.28880  0.51240  1.0000 0.1211121734
H   H19       1.0  0.35640  0.86880  0.14520  1.0000 0.1211121734
H   H20       1.0  0.22360  0.21120  0.35480  1.0000 0.1211121734
H   H21       1.0  0.72360  0.36880  0.01240  1.0000 0.1211121734
H   H22       1.0  0.85640  0.71120  0.48760  1.0000 0.1211121734
H   H23       1.0  0.64360  0.13120  0.85480  1.0000 0.1211121734
H   H24       1.0  0.77640  0.78880  0.64520  1.0000 0.1211121734
H   H25       1.0  0.16570  0.64500  0.01190  1.0000 0.1211121734
H   H26       1.0  0.13310  0.15380  0.48810  1.0000 0.1211121734
H   H27       1.0  0.36690  0.85500  0.02070  1.0000 0.1211121734
H   H28       1.0  0.33430  0.34620  0.47930  1.0000 0.1211121734
H   H29       1.0  0.83430  0.35500  0.98810  1.0000 0.1211121734
H   H30       1.0  0.86690  0.84620  0.51190  1.0000 0.1211121734
H   H31       1.0  0.63310  0.14500  0.97930  1.0000 0.1211121734
H   H32       1.0  0.66570  0.65380  0.52070  1.0000 0.1211121734
H   H33       1.0  0.84000  0.90360  0.22700  1.0000 0.1211121734
H   H34       1.0  0.17660  0.61300  0.27300  1.0000 0.1211121734
H   H35       1.0  0.32340  0.59640  0.43640  1.0000 0.1211121734
H   H36       1.0  0.66000  0.88700  0.06360  1.0000 0.1211121734
H   H37       1.0  0.16000  0.09640  0.77300  1.0000 0.1211121734
H   H38       1.0  0.82340  0.38700  0.72700  1.0000 0.1211121734
H   H39       1.0  0.67660  0.40360  0.56360  1.0000 0.1211121734
H   H40       1.0  0.34000  0.11300  0.93640  1.0000 0.1211121734
H   H41       1.0  0.80200  0.08980  0.30580  1.0000 0.1115288246
H   H42       1.0  0.28400  0.49620  0.19420  1.0000 0.1115288246
H   H43       1.0  0.21600  0.41020  0.21220  1.0000 0.1115288246
H   H44       1.0  0.69800  0.00380  0.28780  1.0000 0.1115288246
H   H45       1.0  0.19800  0.91020  0.69420  1.0000 0.1115288246
H   H46       1.0  0.71600  0.50380  0.80580  1.0000 0.1115288246
H   H47       1.0  0.78400  0.58980  0.78780  1.0000 0.1115288246
H   H48       1.0  0.30200  0.99620  0.71220  1.0000 0.1115288246
H   H49       1.0  0.86560  0.13940  0.27080  1.0000 0.1115288246
H   H50       1.0  0.36860  0.59480  0.22920  1.0000 0.1115288246
H   H51       1.0  0.13140  0.36060  0.22620  1.0000 0.1115288246
H   H52       1.0  0.63440  0.90520  0.27380  1.0000 0.1115288246
H   H53       1.0  0.13440  0.86060  0.72920  1.0000 0.1115288246
H   H54       1.0  0.63140  0.40520  0.77080  1.0000 0.1115288246
H   H55       1.0  0.86860  0.63940  0.77380  1.0000 0.1115288246
H   H56       1.0  0.36560  0.09480  0.72620  1.0000 0.1115288246
H   H57       1.0  0.00490  0.80980  0.06910  1.0000 0.1211121734
H   H58       1.0  0.24070  0.93580  0.43090  1.0000 0.1211121734
H   H59       1.0  0.25930  0.69020  0.69510  1.0000 0.1211121734
H   H60       1.0  0.49510  0.56420  0.80490  1.0000 0.1211121734
H   H61       1.0  0.99510  0.19020  0.93090  1.0000 0.1211121734
H   H62       1.0  0.75930  0.06420  0.56910  1.0000 0.1211121734
H   H63       1.0  0.74070  0.30980  0.30490  1.0000 0.1211121734
H   H64       1.0  0.50490  0.43580  0.19510  1.0000 0.1211121734
C   C1        1.0  0.21398  0.35783  0.86015  1.0000 0.0400343799
C   C2        1.0  0.99768  0.35383  0.63985  1.0000 0.0400343799
C   C3        1.0  0.50232  0.14217  0.35615  1.0000 0.0400343799
C   C4        1.0  0.28602  0.14617  0.14385  1.0000 0.0400343799
C   C5        1.0  0.78602  0.64217  0.13985  1.0000 0.0400343799
C   C6        1.0  0.00232  0.64617  0.36015  1.0000 0.0400343799
C   C7        1.0  0.49768  0.85783  0.64385  1.0000 0.0400343799
C   C8        1.0  0.71398  0.85383  0.85615  1.0000 0.0400343799
C   C9        1.0  0.28094  0.35200  0.84774  1.0000 0.0245985608
C   C10       1.0  0.00426  0.43320  0.65226  1.0000 0.0245985608
C   C11       1.0  0.49574  0.14800  0.42894  1.0000 0.0245985608
C   C12       1.0  0.21906  0.06680  0.07106  1.0000 0.0245985608
C   C13       1.0  0.71906  0.64800  0.15226  1.0000 0.0245985608
C   C14       1.0  0.99574  0.56680  0.34774  1.0000 0.0245985608
C   C15       1.0  0.50426  0.85200  0.57106  1.0000 0.0245985608
C   C16       1.0  0.78094  0.93320  0.92894  1.0000 0.0245985608
C   C17       1.0  0.26144  0.55953  0.95471  1.0000 0.0014358418
C   C18       1.0  0.10482  0.30673  0.54529  1.0000 0.0014358418
C   C19       1.0  0.39518  0.94047  0.20191  1.0000 0.0014358418
C   C20       1.0  0.23856  0.19327  0.29809  1.0000 0.0014358418
C   C21       1.0  0.73856  0.44047  0.04529  1.0000 0.0014358418
C   C22       1.0  0.89518  0.69327  0.45471  1.0000 0.0014358418
C   C23       1.0  0.60482  0.05953  0.79809  1.0000 0.0014358418
C   C24       1.0  0.76144  0.80673  0.70191  1.0000 0.0014358418
C   C25       1.0  0.19465  0.56760  0.96885  1.0000 0.0267323028
C   C26       1.0  0.09875  0.22580  0.53115  1.0000 0.0267323028
C   C27       1.0  0.40125  0.93240  0.12705  1.0000 0.0267323028
C   C28       1.0  0.30535  0.27420  0.37295  1.0000 0.0267323028
C   C29       1.0  0.80535  0.43240  0.03115  1.0000 0.0267323028
C   C30       1.0  0.90125  0.77420  0.46885  1.0000 0.0267323028
C   C31       1.0  0.59875  0.06760  0.87295  1.0000 0.0267323028
C   C32       1.0  0.69465  0.72580  0.62705  1.0000 0.0267323028
C   C33       1.0  0.95352  0.72251  0.09581  1.0000 0.5326759402
C   C34       1.0  0.12670  0.85771  0.40419  1.0000 0.5326759402
C   C35       1.0  0.37330  0.77749  0.73101  1.0000 0.5326759402
C   C36       1.0  0.54648  0.64229  0.76899  1.0000 0.5326759402
C   C37       1.0  0.04648  0.27749  0.90419  1.0000 0.5326759402
C   C38       1.0  0.87330  0.14229  0.59581  1.0000 0.5326759402
C   C39       1.0  0.62670  0.22251  0.26899  1.0000 0.5326759402
C   C40       1.0  0.45352  0.35771  0.23101  1.0000 0.5326759402
C   C41       1.0  0.92648  0.83842  0.14106  1.0000 -0.0264972555
C   C42       1.0  0.19736  0.78542  0.35894  1.0000 -0.0264972555
C   C43       1.0  0.30264  0.66158  0.58806  1.0000 -0.0264972555
C   C44       1.0  0.57352  0.71458  0.91194  1.0000 -0.0264972555
C   C45       1.0  0.07352  0.16158  0.85894  1.0000 -0.0264972555
C   C46       1.0  0.80264  0.21458  0.64106  1.0000 -0.0264972555
C   C47       1.0  0.69736  0.33842  0.41194  1.0000 -0.0264972555
C   C48       1.0  0.42648  0.28542  0.08806  1.0000 -0.0264972555
C   C49       1.0  0.86571  0.92240  0.21151  1.0000 -0.1044023581
C   C50       1.0  0.21089  0.65420  0.28849  1.0000 -0.1044023581
C   C51       1.0  0.28911  0.57760  0.44331  1.0000 -0.1044023581
C   C52       1.0  0.63429  0.84580  0.05669  1.0000 -0.1044023581
C   C53       1.0  0.13429  0.07760  0.78849  1.0000 -0.1044023581
C   C54       1.0  0.78911  0.34580  0.71151  1.0000 -0.1044023581
C   C55       1.0  0.71089  0.42240  0.55669  1.0000 -0.1044023581
C   C56       1.0  0.36571  0.15420  0.94331  1.0000 -0.1044023581
C   C57       1.0  0.84297  0.03374  0.25863  1.0000 -0.109849777
C   C58       1.0  0.27511  0.58434  0.24137  1.0000 -0.109849777
C   C59       1.0  0.22489  0.46626  0.30923  1.0000 -0.109849777
C   C60       1.0  0.65703  0.91566  0.19077  1.0000 -0.109849777
C   C61       1.0  0.15703  0.96626  0.74137  1.0000 -0.109849777
C   C62       1.0  0.72489  0.41566  0.75863  1.0000 -0.109849777
C   C63       1.0  0.77511  0.53374  0.69077  1.0000 -0.109849777
C   C64       1.0  0.34297  0.08434  0.80923  1.0000 -0.109849777
C   C65       1.0  0.88060  0.06184  0.23596  1.0000 -0.109849777
C   C66       1.0  0.32588  0.64464  0.26404  1.0000 -0.109849777
C   C67       1.0  0.17412  0.43816  0.31876  1.0000 -0.109849777
C   C68       1.0  0.61940  0.85536  0.18124  1.0000 -0.109849777
C   C69       1.0  0.11940  0.93816  0.76404  1.0000 -0.109849777
C   C70       1.0  0.67412  0.35536  0.73596  1.0000 -0.109849777
C   C71       1.0  0.82588  0.56184  0.68124  1.0000 -0.109849777
C   C72       1.0  0.38060  0.14464  0.81876  1.0000 -0.109849777
C   C73       1.0  0.94076  0.97626  0.16190  1.0000 -0.0264972555
C   C74       1.0  0.31436  0.77886  0.33810  1.0000 -0.0264972555
C   C75       1.0  0.18564  0.52374  0.46450  1.0000 -0.0264972555
C   C76       1.0  0.55924  0.72114  0.03550  1.0000 -0.0264972555
C   C77       1.0  0.05924  0.02374  0.83810  1.0000 -0.0264972555
C   C78       1.0  0.68564  0.22114  0.66190  1.0000 -0.0264972555
C   C79       1.0  0.81436  0.47626  0.53550  1.0000 -0.0264972555
C   C80       1.0  0.44076  0.27886  0.96450  1.0000 -0.0264972555
C   C81       1.0  0.96400  0.86583  0.11637  1.0000 -0.1363143254
C   C82       1.0  0.24946  0.84763  0.38363  1.0000 -0.1363143254
C   C83       1.0  0.25054  0.63417  0.59817  1.0000 -0.1363143254
C   C84       1.0  0.53600  0.65237  0.90183  1.0000 -0.1363143254
C   C85       1.0  0.03600  0.13417  0.88363  1.0000 -0.1363143254
C   C86       1.0  0.75054  0.15237  0.61637  1.0000 -0.1363143254
C   C87       1.0  0.74946  0.36583  0.40183  1.0000 -0.1363143254
C   C88       1.0  0.46400  0.34763  0.09817  1.0000 -0.1363143254
C   C89       1.0  0.97926  0.00045  0.12881  1.0000 0.5448314506
C   C90       1.0  0.37164  0.85045  0.37119  1.0000 0.5448314506
C   C91       1.0  0.12836  0.49955  0.47881  1.0000 0.5448314506
C   C92       1.0  0.52074  0.64955  0.02119  1.0000 0.5448314506
C   C93       1.0  0.02074  0.99955  0.87119  1.0000 0.5448314506
C   C94       1.0  0.62836  0.14955  0.62881  1.0000 0.5448314506
C   C95       1.0  0.87164  0.50045  0.52119  1.0000 0.5448314506
C   C96       1.0  0.47926  0.35045  0.97881  1.0000 0.5448314506
N   N1        1.0  0.17025  0.46701  0.92224  1.0000 -0.1619496908
N   N2        1.0  0.04477  0.24801  0.57776  1.0000 -0.1619496908
N   N3        1.0  0.45523  0.03299  0.20324  1.0000 -0.1619496908
N   N4        1.0  0.32975  0.25199  0.29676  1.0000 -0.1619496908
N   N5        1.0  0.82975  0.53299  0.07776  1.0000 -0.1619496908
N   N6        1.0  0.95523  0.75199  0.42224  1.0000 -0.1619496908
N   N7        1.0  0.54477  0.96701  0.79676  1.0000 -0.1619496908
N   N8        1.0  0.67025  0.74801  0.70324  1.0000 -0.1619496908
N   N9        1.0  0.30561  0.45310  0.89571  1.0000 -0.1345205199
N   N10       1.0  0.05739  0.40990  0.60429  1.0000 -0.1345205199
N   N11       1.0  0.44261  0.04690  0.35251  1.0000 -0.1345205199
N   N12       1.0  0.19439  0.09010  0.14749  1.0000 -0.1345205199
N   N13       1.0  0.69439  0.54690  0.10429  1.0000 -0.1345205199
N   N14       1.0  0.94261  0.59010  0.39571  1.0000 -0.1345205199
N   N15       1.0  0.55739  0.95310  0.64749  1.0000 -0.1345205199
N   N16       1.0  0.80561  0.90990  0.85251  1.0000 -0.1345205199
O   O1        1.0  0.00970  0.65629  0.03821  1.0000 -0.4967783358
O   O2        1.0  0.11808  0.97149  0.46179  1.0000 -0.4967783358
O   O3        1.0  0.38192  0.84371  0.85341  1.0000 -0.4967783358
O   O4        1.0  0.49030  0.52851  0.64659  1.0000 -0.4967783358
O   O5        1.0  0.99030  0.34371  0.96179  1.0000 -0.4967783358
O   O6        1.0  0.88192  0.02851  0.53821  1.0000 -0.4967783358
O   O7        1.0  0.61808  0.15629  0.14659  1.0000 -0.4967783358
O   O8        1.0  0.50970  0.47149  0.35341  1.0000 -0.4967783358
O   O9        1.0  0.91744  0.70144  0.11940  1.0000 -0.5119439628
O   O10       1.0  0.08204  0.79804  0.38060  1.0000 -0.5119439628
O   O11       1.0  0.41796  0.79856  0.71600  1.0000 -0.5119439628
O   O12       1.0  0.58256  0.70196  0.78400  1.0000 -0.5119439628
O   O13       1.0  0.08256  0.29856  0.88060  1.0000 -0.5119439628
O   O14       1.0  0.91796  0.20196  0.61940  1.0000 -0.5119439628
O   O15       1.0  0.58204  0.20144  0.28400  1.0000 -0.5119439628
O   O16       1.0  0.41744  0.29804  0.21600  1.0000 -0.5119439628
O   O17       1.0  0.03447  0.92257  0.06410  1.0000 -0.5230452236
O   O18       1.0  0.35847  0.97037  0.43590  1.0000 -0.5230452236
O   O19       1.0  0.14153  0.57743  0.61190  1.0000 -0.5230452236
O   O20       1.0  0.46553  0.52963  0.88810  1.0000 -0.5230452236
O   O21       1.0  0.96553  0.07743  0.93590  1.0000 -0.5230452236
O   O22       1.0  0.64153  0.02963  0.56410  1.0000 -0.5230452236
O   O23       1.0  0.85847  0.42257  0.38810  1.0000 -0.5230452236
O   O24       1.0  0.53447  0.47037  0.11190  1.0000 -0.5230452236
O   O25       1.0  0.95389  0.09655  0.16674  1.0000 -0.5403792825
O   O26       1.0  0.42981  0.78715  0.33326  1.0000 -0.5403792825
O   O27       1.0  0.07019  0.40345  0.35734  1.0000 -0.5403792825
O   O28       1.0  0.54611  0.71285  0.14266  1.0000 -0.5403792825
O   O29       1.0  0.04611  0.90345  0.83326  1.0000 -0.5403792825
O   O30       1.0  0.57019  0.21285  0.66674  1.0000 -0.5403792825
O   O31       1.0  0.92981  0.59655  0.64266  1.0000 -0.5403792825
O   O32       1.0  0.45389  0.28715  0.85734  1.0000 -0.5403792825
