# DDEC6 charges by PACMAN v1.1 (https://github.com/mtap-research/PACMAN-charge/)
data_2016[Co][nan]3[FSR]17
_chemical_formula_sum              "Co6 H30 C34 N14 O14"
_cell_length_a       10.6489
_cell_length_b       10.8857
_cell_length_c       11.0782
_cell_angle_alpha    95.995
_cell_angle_beta     89.826
_cell_angle_gamma    116.395

_symmetry_space_group_name_H-M    "P 1"
_symmetry_Int_Tables_number       1

loop_
  _symmetry_equiv_pos_as_xyz
  'x, y, z'

loop_
  _atom_site_type_symbol
  _atom_site_label
  _atom_site_symmetry_multiplicity
  _atom_site_fract_x
  _atom_site_fract_y
  _atom_site_fract_z
  _atom_site_occupancy
  _atom_site_charge
Co  Co1       1.0  0.90280  0.88790  0.74555  1.0000 0.9028157615
Co  Co2       1.0  0.09720  0.11210  0.25445  1.0000 0.9028157615
Co  Co3       1.0  0.03860  0.87220  0.99976  1.0000 0.8445434743
Co  Co4       1.0  0.96140  0.12780  0.00024  1.0000 0.8445434743
Co  Co5       1.0  0.15620  0.02720  0.52242  1.0000 0.9028157615
Co  Co6       1.0  0.84380  0.97280  0.47758  1.0000 0.9028157615
H   H1        1.0  0.79290  0.87200  0.92380  1.0000 0.3793471032
H   H2        1.0  0.20710  0.12800  0.07620  1.0000 0.3793471032
H   H3        1.0  0.92840  0.80880  0.52370  1.0000 0.3896033638
H   H4        1.0  0.07160  0.19120  0.47630  1.0000 0.3896033638
H   H5        1.0  0.54790  0.82900  0.87400  1.0000 0.1201229334
H   H6        1.0  0.45210  0.17100  0.12600  1.0000 0.1201229334
H   H7        1.0  0.36960  0.85290  0.97690  1.0000 0.139985531
H   H8        1.0  0.63040  0.14710  0.02310  1.0000 0.139985531
H   H9        1.0  0.42220  0.91450  0.56350  1.0000 0.139985531
H   H10       1.0  0.57780  0.08550  0.43650  1.0000 0.139985531
H   H11       1.0  0.87120  0.31320  0.50100  1.0000 0.139985531
H   H12       1.0  0.12880  0.68680  0.49900  1.0000 0.139985531
H   H13       1.0  0.88670  0.52140  0.59190  1.0000 0.1201229334
H   H14       1.0  0.11330  0.47860  0.40810  1.0000 0.1201229334
H   H15       1.0  0.92700  0.42560  0.92580  1.0000 0.139985531
H   H16       1.0  0.07300  0.57440  0.07420  1.0000 0.139985531
H   H17       1.0  0.20890  0.24350  0.80270  1.0000 0.1059671738
H   H18       1.0  0.79110  0.75650  0.19730  1.0000 0.1059671738
H   H19       1.0  0.28010  0.60120  0.69510  1.0000 0.1281517903
H   H20       1.0  0.71990  0.39880  0.30490  1.0000 0.1281517903
H   H21       1.0  0.34130  0.51590  0.61390  1.0000 0.1480095335
H   H22       1.0  0.65870  0.48410  0.38610  1.0000 0.1480095335
H   H23       1.0  0.17960  0.47140  0.60750  1.0000 0.1201229334
H   H24       1.0  0.82040  0.52860  0.39250  1.0000 0.1201229334
H   H25       1.0  0.27880  0.59060  0.87060  1.0000 0.1281517903
H   H26       1.0  0.72120  0.40940  0.12940  1.0000 0.1281517903
H   H27       1.0  0.17690  0.45170  0.91910  1.0000 0.1281517903
H   H28       1.0  0.82310  0.54830  0.08090  1.0000 0.1281517903
H   H29       1.0  0.33860  0.49640  0.92010  1.0000 0.139985531
H   H30       1.0  0.66140  0.50360  0.07990  1.0000 0.139985531
C   C1        1.0  0.31060  0.92370  0.70940  1.0000 0.1281517903
C   C2        1.0  0.68940  0.07630  0.29060  1.0000 0.1281517903
C   C3        1.0  0.29310  0.90450  0.83330  1.0000 0.1281517903
C   C4        1.0  0.70690  0.09550  0.16670  1.0000 0.1281517903
C   C5        1.0  0.48700  0.85230  0.83310  1.0000 -0.1230239025
C   C6        1.0  0.51300  0.14770  0.16690  1.0000 -0.1230239025
C   C7        1.0  0.38100  0.86730  0.89550  1.0000 -0.1872972673
C   C8        1.0  0.61900  0.13270  0.10450  1.0000 -0.1872972673
C   C9        1.0  0.50400  0.87130  0.70920  1.0000 -0.0342047787
C   C10       1.0  0.49600  0.12870  0.29080  1.0000 -0.0342047787
C   C11       1.0  0.41370  0.90490  0.64590  1.0000 -0.169479025
C   C12       1.0  0.58630  0.09510  0.35410  1.0000 -0.169479025
C   C13       1.0  0.61800  0.85140  0.64720  1.0000 0.5665131384
C   C14       1.0  0.38200  0.14860  0.35280  1.0000 0.5665131384
C   C15       1.0  0.90790  0.27880  0.78760  1.0000 0.1201229334
C   C16       1.0  0.09210  0.72120  0.21240  1.0000 0.1281517903
C   C17       1.0  0.89170  0.24630  0.66130  1.0000 0.1201229334
C   C18       1.0  0.10830  0.75370  0.33870  1.0000 0.1201229334
C   C19       1.0  0.88270  0.33540  0.58490  1.0000 -0.1646196521
C   C20       1.0  0.11730  0.66460  0.41510  1.0000 -0.1646196521
C   C21       1.0  0.89150  0.45850  0.64010  1.0000 -0.1230239025
C   C22       1.0  0.10850  0.54150  0.35990  1.0000 -0.1230239025
C   C23       1.0  0.90750  0.49150  0.76500  1.0000 -0.0108030452
C   C24       1.0  0.09250  0.50850  0.23500  1.0000 -0.0108030452
C   C25       1.0  0.91620  0.40290  0.84190  1.0000 -0.1783356941
C   C26       1.0  0.08380  0.59710  0.15810  1.0000 -0.1783356941
C   C27       1.0  0.91600  0.62890  0.81740  1.0000 0.5811107927
C   C28       1.0  0.08400  0.37110  0.18260  1.0000 0.5811107927
C   C29       1.0  0.21900  0.29200  0.73620  1.0000 0.3175386363
C   C30       1.0  0.78100  0.70800  0.26380  1.0000 0.3175386363
C   C31       1.0  0.26300  0.51040  0.66000  1.0000 -0.3171675033
C   C32       1.0  0.73700  0.48960  0.34000  1.0000 -0.3171675033
C   C33       1.0  0.26100  0.49700  0.87650  1.0000 -0.3364947862
C   C34       1.0  0.73900  0.50300  0.12350  1.0000 -0.3364947862
N   N1        1.0  0.18140  0.92720  0.86740  1.0000 -0.2612999803
N   N2        1.0  0.81860  0.07280  0.13260  1.0000 -0.2612999803
N   N3        1.0  0.13370  0.95960  0.77000  1.0000 -0.0603939048
N   N4        1.0  0.86630  0.04040  0.23000  1.0000 -0.0603939048
N   N5        1.0  0.20880  0.95780  0.67420  1.0000 -0.2308726287
N   N6        1.0  0.79120  0.04220  0.32580  1.0000 -0.2308726287
N   N7        1.0  0.91300  0.16900  0.83430  1.0000 -0.2796480484
N   N8        1.0  0.08700  0.83100  0.16570  1.0000 -0.2796480484
N   N9        1.0  0.89990  0.07830  0.73920  1.0000 -0.0480005401
N   N10       1.0  0.10010  0.92170  0.26080  1.0000 -0.0480005401
N   N11       1.0  0.88690  0.11930  0.63350  1.0000 -0.2389796874
N   N12       1.0  0.11310  0.88070  0.36650  1.0000 -0.2389796874
N   N13       1.0  0.24400  0.42440  0.75500  1.0000 0.0329422807
N   N14       1.0  0.75600  0.57560  0.24500  1.0000 0.0329422807
O   O1        1.0  0.89410  0.91740  0.93050  1.0000 -0.8472212381
O   O2        1.0  0.10590  0.08260  0.06950  1.0000 -0.8472212381
O   O3        1.0  0.94890  0.89550  0.57070  1.0000 -0.8389703757
O   O4        1.0  0.05110  0.10450  0.42930  1.0000 -0.8389703757
O   O5        1.0  0.64500  0.88760  0.54140  1.0000 -0.5442125625
O   O6        1.0  0.35500  0.11240  0.45860  1.0000 -0.5442125625
O   O7        1.0  0.68000  0.80000  0.70470  1.0000 -0.5503571159
O   O8        1.0  0.32000  0.20000  0.29530  1.0000 -0.5503571159
O   O9        1.0  0.96110  0.67150  0.92750  1.0000 -0.5727608031
O   O10       1.0  0.03890  0.32850  0.07250  1.0000 -0.5727608031
O   O11       1.0  0.88800  0.69310  0.74260  1.0000 -0.5503571159
O   O12       1.0  0.11200  0.30690  0.25740  1.0000 -0.5503571159
O   O13       1.0  0.20800  0.23190  0.63270  1.0000 -0.4489991642
O   O14       1.0  0.79200  0.76810  0.36730  1.0000 -0.4489991642
