# DDEC6 charges by PACMAN v1.1 (https://github.com/mtap-research/PACMAN-charge/)
data_2016[In][nan]3[FSR]8
_chemical_formula_sum              "In4 H16 C32 O20"
_cell_length_a       12.5669
_cell_length_b       12.5669
_cell_length_c       12.5669
_cell_angle_alpha    103.884
_cell_angle_beta     103.884
_cell_angle_gamma    121.337

_symmetry_space_group_name_H-M    "P 1"
_symmetry_Int_Tables_number       1

loop_
  _symmetry_equiv_pos_as_xyz
  'x, y, z'

loop_
  _atom_site_type_symbol
  _atom_site_label
  _atom_site_symmetry_multiplicity
  _atom_site_fract_x
  _atom_site_fract_y
  _atom_site_fract_z
  _atom_site_occupancy
  _atom_site_charge
In  In1       1.0  0.18670  0.81330  0.00000  1.0000 1.5482513214
In  In2       1.0  0.43670  0.93670  0.87340  1.0000 1.5482513214
In  In3       1.0  0.81330  0.18670  0.00000  1.0000 1.5482513214
In  In4       1.0  0.06330  0.56330  0.12660  1.0000 1.5482513214
H   H1        1.0  0.44070  0.87500  0.06570  1.0000 0.3982951769
H   H2        1.0  0.62500  0.19070  0.06570  1.0000 0.3982951769
H   H3        1.0  0.80930  0.37500  0.93430  1.0000 0.3982951769
H   H4        1.0  0.12500  0.55930  0.93430  1.0000 0.3982951769
H   H5        1.0  0.12550  0.12550  0.00000  1.0000 0.1378438489
H   H6        1.0  0.37550  0.87550  0.50000  1.0000 0.1378438489
H   H7        1.0  0.12450  0.62450  0.50000  1.0000 0.1378438489
H   H8        1.0  0.87450  0.87450  0.00000  1.0000 0.1378438489
H   H9        1.0  0.48930  0.30360  0.94410  1.0000 0.1124400401
H   H10       1.0  0.79520  0.23930  0.68570  1.0000 0.1124400401
H   H11       1.0  0.35950  0.54520  0.05590  1.0000 0.1124400401
H   H12       1.0  0.55360  0.10950  0.31430  1.0000 0.1124400401
H   H13       1.0  0.89050  0.44640  0.68570  1.0000 0.1124400401
H   H14       1.0  0.45480  0.64050  0.94410  1.0000 0.1124400401
H   H15       1.0  0.76070  0.20480  0.31430  1.0000 0.1124400401
H   H16       1.0  0.69640  0.51070  0.05590  1.0000 0.1124400401
C   C1        1.0  0.29270  0.07250  0.94780  1.0000 0.6053969169
C   C2        1.0  0.59490  0.04270  0.72020  1.0000 0.6053969169
C   C3        1.0  0.12470  0.34490  0.05220  1.0000 0.6053969169
C   C4        1.0  0.32250  0.87470  0.27980  1.0000 0.6053969169
C   C5        1.0  0.12530  0.67750  0.72020  1.0000 0.6053969169
C   C6        1.0  0.65510  0.87530  0.94780  1.0000 0.6053969169
C   C7        1.0  0.95730  0.40510  0.27980  1.0000 0.6053969169
C   C8        1.0  0.92750  0.70730  0.05220  1.0000 0.6053969169
C   C9        1.0  0.30492  0.19871  0.96805  1.0000 -0.0442734698
C   C10       1.0  0.58687  0.05492  0.60621  1.0000 -0.0442734698
C   C11       1.0  0.23066  0.33687  0.03195  1.0000 -0.0442734698
C   C12       1.0  0.44871  0.98066  0.39379  1.0000 -0.0442734698
C   C13       1.0  0.01934  0.55129  0.60621  1.0000 -0.0442734698
C   C14       1.0  0.66313  0.76934  0.96805  1.0000 -0.0442734698
C   C15       1.0  0.94508  0.41313  0.39379  1.0000 -0.0442734698
C   C16       1.0  0.80129  0.69508  0.03195  1.0000 -0.0442734698
C   C17       1.0  0.21080  0.21080  0.00000  1.0000 -0.0966534859
C   C18       1.0  0.46080  0.96080  0.50000  1.0000 -0.0966534859
C   C19       1.0  0.03920  0.53920  0.50000  1.0000 -0.0966534859
C   C20       1.0  0.78920  0.78920  0.00000  1.0000 -0.0966534859
C   C21       1.0  0.41888  0.31267  0.96805  1.0000 -0.1364234036
C   C22       1.0  0.70083  0.16888  0.60621  1.0000 -0.1364234036
C   C23       1.0  0.34462  0.45083  0.03195  1.0000 -0.1364234036
C   C24       1.0  0.56267  0.09462  0.39379  1.0000 -0.1364234036
C   C25       1.0  0.90538  0.43733  0.60621  1.0000 -0.1364234036
C   C26       1.0  0.54917  0.65538  0.96805  1.0000 -0.1364234036
C   C27       1.0  0.83112  0.29917  0.39379  1.0000 -0.1364234036
C   C28       1.0  0.68733  0.58112  0.03195  1.0000 -0.1364234036
C   C29       1.0  0.43874  0.43874  0.00000  1.0000 0.0793102214
C   C30       1.0  0.68874  0.18874  0.50000  1.0000 0.0793102214
C   C31       1.0  0.81126  0.31126  0.50000  1.0000 0.0793102214
C   C32       1.0  0.56126  0.56126  0.00000  1.0000 0.0793102214
O   O1        1.0  0.38260  0.87500  0.00760  1.0000 -0.9269864058
O   O2        1.0  0.62500  0.13260  0.00760  1.0000 -0.9269864058
O   O3        1.0  0.86740  0.37500  0.99240  1.0000 -0.9269864058
O   O4        1.0  0.12500  0.61740  0.99240  1.0000 -0.9269864058
O   O5        1.0  0.22840  0.99770  0.99310  1.0000 -0.5422273075
O   O6        1.0  0.48530  0.97840  0.73070  1.0000 -0.5422273075
O   O7        1.0  0.00460  0.23530  0.00690  1.0000 -0.5422273075
O   O8        1.0  0.24770  0.75460  0.26930  1.0000 -0.5422273075
O   O9        1.0  0.24540  0.75230  0.73070  1.0000 -0.5422273075
O   O10       1.0  0.76470  0.99540  0.99310  1.0000 -0.5422273075
O   O11       1.0  0.02160  0.51470  0.26930  1.0000 -0.5422273075
O   O12       1.0  0.00230  0.77160  0.00690  1.0000 -0.5422273075
O   O13       1.0  0.34720  0.04580  0.88620  1.0000 -0.564723382
O   O14       1.0  0.71100  0.09720  0.80140  1.0000 -0.5656023121
O   O15       1.0  0.15960  0.46100  0.11380  1.0000 -0.564723382
O   O16       1.0  0.29580  0.90960  0.19860  1.0000 -0.564723382
O   O17       1.0  0.09040  0.70420  0.80140  1.0000 -0.564723382
O   O18       1.0  0.53900  0.84040  0.88620  1.0000 -0.564723382
O   O19       1.0  0.90280  0.28900  0.19860  1.0000 -0.5656023121
O   O20       1.0  0.95420  0.65280  0.11380  1.0000 -0.564723382
