# DDEC6 charges by PACMAN v1.1 (https://github.com/mtap-research/PACMAN-charge/)
data_2016[Co][nan]3[FSR]29
_chemical_formula_sum              "Co6 H84 C92 N32 O32"
_cell_length_a       16.5089
_cell_length_b       16.5089
_cell_length_c       19.875
_cell_angle_alpha    85.7902
_cell_angle_beta     94.2098
_cell_angle_gamma    142.667

_symmetry_space_group_name_H-M    "P 1"
_symmetry_Int_Tables_number       1

loop_
  _symmetry_equiv_pos_as_xyz
  'x, y, z'

loop_
  _atom_site_type_symbol
  _atom_site_label
  _atom_site_symmetry_multiplicity
  _atom_site_fract_x
  _atom_site_fract_y
  _atom_site_fract_z
  _atom_site_occupancy
  _atom_site_charge
Co  Co1       1.0  0.00000  0.00000  0.00000  1.0000 0.7241722166
Co  Co2       1.0  0.00000  0.00000  0.50000  1.0000 0.7241722166
Co  Co3       1.0  0.83080  0.48706  0.74300  1.0000 0.9910283803
Co  Co4       1.0  0.48706  0.83080  0.75700  1.0000 0.9910283803
Co  Co5       1.0  0.16920  0.51294  0.25700  1.0000 0.9910283803
Co  Co6       1.0  0.51294  0.16920  0.24300  1.0000 0.9910283803
H   H1        1.0  0.73870  0.54130  0.67980  1.0000 0.3683304905
H   H2        1.0  0.54130  0.73870  0.82020  1.0000 0.3683304905
H   H3        1.0  0.26130  0.45870  0.32020  1.0000 0.3683304905
H   H4        1.0  0.45870  0.26130  0.17980  1.0000 0.3683304905
H   H5        1.0  0.77840  0.11700  0.87090  1.0000 0.1394200756
H   H6        1.0  0.11700  0.77840  0.62910  1.0000 0.1394200756
H   H7        1.0  0.22160  0.88300  0.12910  1.0000 0.1394200756
H   H8        1.0  0.88300  0.22160  0.37090  1.0000 0.1394200756
H   H9        1.0  0.01290  0.57850  0.67020  1.0000 0.360302773
H   H10       1.0  0.57850  0.01290  0.82980  1.0000 0.360302773
H   H11       1.0  0.98710  0.42150  0.32980  1.0000 0.360302773
H   H12       1.0  0.42150  0.98710  0.17020  1.0000 0.360302773
H   H13       1.0  0.72230  0.81470  0.92690  1.0000 0.2908731594
H   H14       1.0  0.81470  0.72230  0.57310  1.0000 0.2908731594
H   H15       1.0  0.27770  0.18530  0.07310  1.0000 0.2908731594
H   H16       1.0  0.18530  0.27770  0.42690  1.0000 0.2908731594
H   H17       1.0  0.82990  0.68690  0.99220  1.0000 0.1394200756
H   H18       1.0  0.68690  0.82990  0.50780  1.0000 0.1394200756
H   H19       1.0  0.17010  0.31310  0.00780  1.0000 0.1394200756
H   H20       1.0  0.31310  0.17010  0.49220  1.0000 0.1394200756
H   H21       1.0  0.15070  0.32170  0.87880  1.0000 0.1191930256
H   H22       1.0  0.32170  0.15070  0.62120  1.0000 0.1191930256
H   H23       1.0  0.84930  0.67830  0.12120  1.0000 0.1191930256
H   H24       1.0  0.67830  0.84930  0.37880  1.0000 0.1191930256
H   H25       1.0  0.08190  0.49490  0.80170  1.0000 0.1289541095
H   H26       1.0  0.49490  0.08190  0.69830  1.0000 0.1289541095
H   H27       1.0  0.91810  0.50510  0.19830  1.0000 0.1289541095
H   H28       1.0  0.50510  0.91810  0.30170  1.0000 0.1289541095
H   H29       1.0  0.53400  0.58220  0.90500  1.0000 0.1394200756
H   H30       1.0  0.58220  0.53400  0.59500  1.0000 0.1394200756
H   H31       1.0  0.46600  0.41780  0.09500  1.0000 0.1394200756
H   H32       1.0  0.41780  0.46600  0.40500  1.0000 0.1394200756
H   H33       1.0  0.02970  0.80370  0.78570  1.0000 0.1394200756
H   H34       1.0  0.80370  0.02970  0.71430  1.0000 0.1394200756
H   H35       1.0  0.97030  0.19630  0.21430  1.0000 0.1394200756
H   H36       1.0  0.19630  0.97030  0.28570  1.0000 0.1394200756
H   H37       1.0  0.09690  0.63010  0.80610  1.0000 0.2810522436
H   H38       1.0  0.63010  0.09690  0.69390  1.0000 0.2810522436
H   H39       1.0  0.90310  0.36990  0.19390  1.0000 0.2810522436
H   H40       1.0  0.36990  0.90310  0.30610  1.0000 0.2810522436
H   H41       1.0  0.47540  0.38260  0.93040  1.0000 0.1191930256
H   H42       1.0  0.38260  0.47540  0.56960  1.0000 0.1191930256
H   H43       1.0  0.52460  0.61740  0.06960  1.0000 0.1191930256
H   H44       1.0  0.61740  0.52460  0.43040  1.0000 0.1191930256
H   H45       1.0  0.55430  0.40690  0.99380  1.0000 0.1394200756
H   H46       1.0  0.40690  0.55430  0.50620  1.0000 0.1394200756
H   H47       1.0  0.44570  0.59310  0.00620  1.0000 0.1394200756
H   H48       1.0  0.59310  0.44570  0.49380  1.0000 0.1394200756
H   H49       1.0  0.35910  0.04750  0.87640  1.0000 0.1289541095
H   H50       1.0  0.04750  0.35910  0.62360  1.0000 0.1289541095
H   H51       1.0  0.64090  0.95250  0.12360  1.0000 0.1289541095
H   H52       1.0  0.95250  0.64090  0.37640  1.0000 0.1289541095
H   H53       1.0  0.34720  0.07680  0.80220  1.0000 0.1394200756
H   H54       1.0  0.07680  0.34720  0.69780  1.0000 0.1394200756
H   H55       1.0  0.65280  0.92320  0.19780  1.0000 0.1394200756
H   H56       1.0  0.92320  0.65280  0.30220  1.0000 0.1394200756
H   H57       1.0  0.29530  0.84630  0.84730  1.0000 0.1555947482
H   H58       1.0  0.84630  0.29530  0.65270  1.0000 0.1555947482
H   H59       1.0  0.70470  0.15370  0.15270  1.0000 0.1555947482
H   H60       1.0  0.15370  0.70470  0.34730  1.0000 0.1555947482
H   H61       1.0  0.12820  0.92340  0.95010  1.0000 0.1394200756
H   H62       1.0  0.92340  0.12820  0.54990  1.0000 0.1394200756
H   H63       1.0  0.87180  0.07660  0.04990  1.0000 0.1394200756
H   H64       1.0  0.07660  0.87180  0.45010  1.0000 0.1394200756
H   H65       1.0  0.29920  0.19220  0.80650  1.0000 0.1394200756
H   H66       1.0  0.19220  0.29920  0.69350  1.0000 0.1394200756
H   H67       1.0  0.70080  0.80780  0.19350  1.0000 0.1394200756
H   H68       1.0  0.80780  0.70080  0.30650  1.0000 0.1394200756
H   H69       1.0  0.17540  0.17540  0.87380  1.0000 0.2908731594
H   H70       1.0  0.17540  0.17540  0.62620  1.0000 0.2908731594
H   H71       1.0  0.82460  0.82460  0.12620  1.0000 0.2908731594
H   H72       1.0  0.82460  0.82460  0.37380  1.0000 0.2908731594
H   H73       1.0  0.65680  0.27780  0.86110  1.0000 0.2908731594
H   H74       1.0  0.27780  0.65680  0.63890  1.0000 0.2908731594
H   H75       1.0  0.34320  0.72220  0.13890  1.0000 0.2908731594
H   H76       1.0  0.72220  0.34320  0.36110  1.0000 0.2908731594
H   H77       1.0  0.54810  0.25110  0.94830  1.0000 0.1394200756
H   H78       1.0  0.25110  0.54810  0.55170  1.0000 0.1394200756
H   H79       1.0  0.45190  0.74890  0.05170  1.0000 0.1394200756
H   H80       1.0  0.74890  0.45190  0.44830  1.0000 0.1394200756
H   H81       1.0  0.72400  0.55840  0.82990  1.0000 0.1394200756
H   H82       1.0  0.55840  0.72400  0.67010  1.0000 0.1394200756
H   H83       1.0  0.27600  0.44160  0.17010  1.0000 0.1394200756
H   H84       1.0  0.44160  0.27600  0.32990  1.0000 0.1394200756
C   C1        1.0  0.95544  0.19956  0.87738  1.0000 -0.021662148
C   C2        1.0  0.19956  0.95544  0.62262  1.0000 -0.021662148
C   C3        1.0  0.04456  0.80044  0.12262  1.0000 -0.021662148
C   C4        1.0  0.80044  0.04456  0.37738  1.0000 -0.021662148
C   C5        1.0  0.86893  0.19527  0.86243  1.0000 -0.0957891171
C   C6        1.0  0.19527  0.86893  0.63757  1.0000 -0.0957891171
C   C7        1.0  0.13107  0.80473  0.13757  1.0000 -0.0957891171
C   C8        1.0  0.80473  0.13107  0.36243  1.0000 -0.0957891171
C   C9        1.0  0.91557  0.30643  0.83485  1.0000 -0.033152191
C   C10       1.0  0.30643  0.91557  0.66515  1.0000 -0.033152191
C   C11       1.0  0.08443  0.69357  0.16515  1.0000 -0.033152191
C   C12       1.0  0.69357  0.08443  0.33485  1.0000 -0.033152191
C   C13       1.0  0.82357  0.30523  0.81984  1.0000 0.5667523264
C   C14       1.0  0.30523  0.82357  0.68016  1.0000 0.5667523264
C   C15       1.0  0.17643  0.69477  0.18016  1.0000 0.5667523264
C   C16       1.0  0.69477  0.17643  0.31984  1.0000 0.5667523264
C   C17       1.0  0.14134  0.43126  0.83960  1.0000 -0.033152191
C   C18       1.0  0.43126  0.14134  0.66040  1.0000 -0.033152191
C   C19       1.0  0.85866  0.56874  0.16040  1.0000 -0.033152191
C   C20       1.0  0.56874  0.85866  0.33960  1.0000 -0.033152191
C   C21       1.0  0.90255  0.07685  0.90685  1.0000 0.5615666329
C   C22       1.0  0.07685  0.90255  0.59315  1.0000 0.5615666329
C   C23       1.0  0.09745  0.92315  0.09315  1.0000 0.5615666329
C   C24       1.0  0.92315  0.09745  0.40685  1.0000 0.5615666329
C   C25       1.0  0.77940  0.69020  0.97313  1.0000 -0.080382239
C   C26       1.0  0.69020  0.77940  0.52687  1.0000 -0.080382239
C   C27       1.0  0.22060  0.30980  0.02687  1.0000 -0.080382239
C   C28       1.0  0.30980  0.22060  0.47313  1.0000 -0.080382239
C   C29       1.0  0.64990  0.58010  0.94839  1.0000 0.039402674
C   C30       1.0  0.58010  0.64990  0.55161  1.0000 0.039402674
C   C31       1.0  0.35010  0.41990  0.05161  1.0000 0.039402674
C   C32       1.0  0.41990  0.35010  0.44839  1.0000 0.039402674
C   C33       1.0  0.09228  0.31812  0.86723  1.0000 -0.1250513823
C   C34       1.0  0.31812  0.09228  0.63277  1.0000 -0.1250513823
C   C35       1.0  0.90772  0.68188  0.13277  1.0000 -0.119107625
C   C36       1.0  0.68188  0.90772  0.36723  1.0000 -0.1250513823
C   C37       1.0  0.05074  0.42166  0.82232  1.0000 -0.119107625
C   C38       1.0  0.42166  0.05074  0.67768  1.0000 -0.119107625
C   C39       1.0  0.94926  0.57834  0.17768  1.0000 -0.119107625
C   C40       1.0  0.57834  0.94926  0.32232  1.0000 -0.119107625
C   C41       1.0  0.61531  0.63029  0.92517  1.0000 -0.080382239
C   C42       1.0  0.63029  0.61531  0.57483  1.0000 -0.0854061362
C   C43       1.0  0.38469  0.36971  0.07483  1.0000 -0.0854061362
C   C44       1.0  0.36971  0.38469  0.42517  1.0000 -0.0854061362
C   C45       1.0  0.19878  0.87862  0.82499  1.0000 0.039402674
C   C46       1.0  0.87862  0.19878  0.67501  1.0000 0.039402674
C   C47       1.0  0.80122  0.12138  0.17501  1.0000 0.039402674
C   C48       1.0  0.12138  0.80122  0.32499  1.0000 0.039402674
C   C49       1.0  0.07086  0.78634  0.79600  1.0000 -0.033152191
C   C50       1.0  0.78634  0.07086  0.70400  1.0000 -0.033152191
C   C51       1.0  0.92914  0.21366  0.20400  1.0000 -0.033152191
C   C52       1.0  0.21366  0.92914  0.29600  1.0000 -0.033152191
C   C53       1.0  0.56367  0.43693  0.94780  1.0000 -0.2781642557
C   C54       1.0  0.43693  0.56367  0.55220  1.0000 -0.2781642557
C   C55       1.0  0.43633  0.56307  0.05220  1.0000 -0.2781642557
C   C56       1.0  0.56307  0.43633  0.44780  1.0000 -0.2781642557
C   C57       1.0  0.29671  0.02069  0.84200  1.0000 -0.2720174075
C   C58       1.0  0.02069  0.29671  0.65800  1.0000 -0.2720174075
C   C59       1.0  0.70329  0.97931  0.15800  1.0000 -0.2720174075
C   C60       1.0  0.97931  0.70329  0.34200  1.0000 -0.2720174075
C   C61       1.0  0.21868  0.81252  0.83040  1.0000 -0.080382239
C   C62       1.0  0.81252  0.21868  0.66960  1.0000 -0.080382239
C   C63       1.0  0.78132  0.18748  0.16960  1.0000 -0.080382239
C   C64       1.0  0.18748  0.78132  0.33040  1.0000 -0.080382239
C   C65       1.0  0.23347  0.04473  0.86690  1.0000 0.0268770668
C   C66       1.0  0.04473  0.23347  0.63310  1.0000 0.0268770668
C   C67       1.0  0.76653  0.95527  0.13310  1.0000 0.0268770668
C   C68       1.0  0.95527  0.76653  0.36690  1.0000 0.0268770668
C   C69       1.0  0.15352  0.98768  0.92160  1.0000 -0.0515614555
C   C70       1.0  0.98768  0.15352  0.57840  1.0000 -0.0515614555
C   C71       1.0  0.84648  0.01232  0.07840  1.0000 -0.0515614555
C   C72       1.0  0.01232  0.84648  0.42160  1.0000 -0.0515614555
C   C73       1.0  0.24830  0.13410  0.84330  1.0000 -0.0854061362
C   C74       1.0  0.13410  0.24830  0.65670  1.0000 -0.0854061362
C   C75       1.0  0.75170  0.86590  0.15670  1.0000 -0.0854061362
C   C76       1.0  0.86590  0.75170  0.34330  1.0000 -0.0854061362
C   C77       1.0  0.61682  0.41458  0.90640  1.0000 0.039402674
C   C78       1.0  0.41458  0.61682  0.59360  1.0000 0.039402674
C   C79       1.0  0.38318  0.58542  0.09360  1.0000 0.039402674
C   C80       1.0  0.58542  0.38318  0.40640  1.0000 0.039402674
C   C81       1.0  0.59657  0.31643  0.91410  1.0000 -0.080382239
C   C82       1.0  0.31643  0.59657  0.58590  1.0000 -0.080382239
C   C83       1.0  0.40343  0.68357  0.08590  1.0000 -0.080382239
C   C84       1.0  0.68357  0.40343  0.41410  1.0000 -0.080382239
C   C85       1.0  0.69365  0.48455  0.84860  1.0000 -0.0515614555
C   C86       1.0  0.48455  0.69365  0.65140  1.0000 -0.0515614555
C   C87       1.0  0.30635  0.51545  0.15140  1.0000 -0.0515614555
C   C88       1.0  0.51545  0.30635  0.34860  1.0000 -0.0515614555
C   C89       1.0  0.28505  0.55995  0.82740  1.0000 0.5615666329
C   C90       1.0  0.55995  0.28505  0.67260  1.0000 0.5615666329
C   C91       1.0  0.71495  0.44005  0.17260  1.0000 0.5615666329
C   C92       1.0  0.44005  0.71495  0.32740  1.0000 0.5615666329
N   N1        1.0  0.01508  0.67172  0.78483  1.0000 -0.1909982816
N   N2        1.0  0.67172  0.01508  0.71517  1.0000 -0.1909982816
N   N3        1.0  0.98492  0.32828  0.21517  1.0000 -0.1909982816
N   N4        1.0  0.32828  0.98492  0.28483  1.0000 -0.1909982816
N   N5        1.0  0.82324  0.80116  0.96654  1.0000 -0.1743914665
N   N6        1.0  0.80116  0.82324  0.53346  1.0000 -0.1743914665
N   N7        1.0  0.17676  0.19884  0.03346  1.0000 -0.1743914665
N   N8        1.0  0.19884  0.17676  0.46654  1.0000 -0.1743914665
N   N9        1.0  0.72080  0.76200  0.93703  1.0000 -0.0515614555
N   N10       1.0  0.76200  0.72080  0.56297  1.0000 -0.0515614555
N   N11       1.0  0.27920  0.23800  0.06297  1.0000 -0.0515614555
N   N12       1.0  0.23800  0.27920  0.43703  1.0000 -0.0515614555
N   N13       1.0  0.10787  0.69033  0.80694  1.0000 -0.0444992672
N   N14       1.0  0.69033  0.10787  0.69306  1.0000 -0.0444992672
N   N15       1.0  0.89213  0.30967  0.19306  1.0000 -0.0444992672
N   N16       1.0  0.30967  0.89213  0.30694  1.0000 -0.0444992672
N   N17       1.0  0.11609  0.03371  0.92941  1.0000 -0.1522941769
N   N18       1.0  0.03371  0.11609  0.57059  1.0000 -0.1522941769
N   N19       1.0  0.88391  0.96629  0.07059  1.0000 -0.1522941769
N   N20       1.0  0.96629  0.88391  0.42941  1.0000 -0.1522941769
N   N21       1.0  0.17917  0.12643  0.88040  1.0000 -0.0583088839
N   N22       1.0  0.12643  0.17917  0.61960  1.0000 -0.0583088839
N   N23       1.0  0.82083  0.87357  0.11960  1.0000 -0.0583088839
N   N24       1.0  0.87357  0.82083  0.38040  1.0000 -0.0583088839
N   N25       1.0  0.71824  0.43316  0.82325  1.0000 -0.1909982816
N   N26       1.0  0.43316  0.71824  0.67675  1.0000 -0.1909982816
N   N27       1.0  0.28176  0.56684  0.17675  1.0000 -0.1909982816
N   N28       1.0  0.56684  0.28176  0.32325  1.0000 -0.1909982816
N   N29       1.0  0.65691  0.32929  0.86538  1.0000 -0.0675612719
N   N30       1.0  0.32929  0.65691  0.63462  1.0000 -0.0675612719
N   N31       1.0  0.34309  0.67071  0.13462  1.0000 -0.0675612719
N   N32       1.0  0.67071  0.34309  0.36538  1.0000 -0.0675612719
O   O1        1.0  0.87631  0.40969  0.79204  1.0000 -0.5695330382
O   O2        1.0  0.40969  0.87631  0.70796  1.0000 -0.5695330382
O   O3        1.0  0.12369  0.59031  0.20796  1.0000 -0.5695330382
O   O4        1.0  0.59031  0.12369  0.29204  1.0000 -0.5695330382
O   O5        1.0  0.81376  0.59424  0.69679  1.0000 -0.6931611628
O   O6        1.0  0.59424  0.81376  0.80321  1.0000 -0.6931611628
O   O7        1.0  0.18624  0.40576  0.30321  1.0000 -0.6931611628
O   O8        1.0  0.40576  0.18624  0.19679  1.0000 -0.6931611628
O   O9        1.0  0.98725  0.09055  0.92656  1.0000 -0.594738114
O   O10       1.0  0.09055  0.98725  0.57344  1.0000 -0.5952038051
O   O11       1.0  0.01275  0.90945  0.07344  1.0000 -0.5952038051
O   O12       1.0  0.90945  0.01275  0.42656  1.0000 -0.5952038051
O   O13       1.0  0.77851  0.97009  0.90942  1.0000 -0.4989075095
O   O14       1.0  0.97009  0.77851  0.59058  1.0000 -0.4989075095
O   O15       1.0  0.22149  0.02991  0.09058  1.0000 -0.4989075095
O   O16       1.0  0.02991  0.22149  0.40942  1.0000 -0.4989075095
O   O17       1.0  0.70340  0.20420  0.83503  1.0000 -0.5227137089
O   O18       1.0  0.20420  0.70340  0.66497  1.0000 -0.5227137089
O   O19       1.0  0.29660  0.79580  0.16497  1.0000 -0.5227137089
O   O20       1.0  0.79580  0.29660  0.33503  1.0000 -0.5227137089
O   O21       1.0  0.93376  0.52224  0.65975  1.0000 -0.6931611628
O   O22       1.0  0.52224  0.93376  0.84025  1.0000 -0.6931611628
O   O23       1.0  0.06624  0.47776  0.34025  1.0000 -0.6931611628
O   O24       1.0  0.47776  0.06624  0.15975  1.0000 -0.6931611628
O   O25       1.0  0.31888  0.65766  0.80748  1.0000 -0.5274426223
O   O26       1.0  0.65766  0.31888  0.69252  1.0000 -0.5274426223
O   O27       1.0  0.68112  0.34234  0.19252  1.0000 -0.5274426223
O   O28       1.0  0.34234  0.68112  0.30748  1.0000 -0.5274426223
O   O29       1.0  0.36665  0.56635  0.83982  1.0000 -0.562271762
O   O30       1.0  0.56635  0.36665  0.66018  1.0000 -0.562271762
O   O31       1.0  0.63335  0.43365  0.16018  1.0000 -0.562271762
O   O32       1.0  0.43365  0.63335  0.33982  1.0000 -0.562271762
