# DDEC6 charges by PACMAN v1.1 (https://github.com/mtap-research/PACMAN-charge/)
data_2016[Mg][nan]3[FSR]4
_chemical_formula_sum              "Mg4 H32 C52 N4 O20"
_cell_length_a       12.5242
_cell_length_b       12.5242
_cell_length_c       13.4921
_cell_angle_alpha    62.5929
_cell_angle_beta     117.407
_cell_angle_gamma    92.9719

_symmetry_space_group_name_H-M    "P 1"
_symmetry_Int_Tables_number       1

loop_
  _symmetry_equiv_pos_as_xyz
  'x, y, z'

loop_
  _atom_site_type_symbol
  _atom_site_label
  _atom_site_symmetry_multiplicity
  _atom_site_fract_x
  _atom_site_fract_y
  _atom_site_fract_z
  _atom_site_occupancy
  _atom_site_charge
Mg  Mg1       1.0  0.80653  0.80653  0.25000  1.0000 1.3641590319
Mg  Mg2       1.0  0.19347  0.19347  0.75000  1.0000 1.3641590319
Mg  Mg3       1.0  0.50000  0.00000  0.00000  1.0000 1.3549008213
Mg  Mg4       1.0  0.00000  0.50000  0.50000  1.0000 1.3549008213
H   H1        1.0  0.40200  0.55200  0.08300  1.0000 0.1381995056
H   H2        1.0  0.55200  0.40200  0.41700  1.0000 0.1381995056
H   H3        1.0  0.59800  0.44800  0.91700  1.0000 0.1381995056
H   H4        1.0  0.44800  0.59800  0.58300  1.0000 0.1381995056
H   H5        1.0  0.64500  0.59300  0.95400  1.0000 0.1381995056
H   H6        1.0  0.59300  0.64500  0.54600  1.0000 0.1381995056
H   H7        1.0  0.35500  0.40700  0.04600  1.0000 0.1381995056
H   H8        1.0  0.40700  0.35500  0.45400  1.0000 0.1381995056
H   H9        1.0  0.97400  0.04200  0.09700  1.0000 0.1296896685
H   H10       1.0  0.04200  0.97400  0.40300  1.0000 0.1296896685
H   H11       1.0  0.02600  0.95800  0.90300  1.0000 0.1296896685
H   H12       1.0  0.95800  0.02600  0.59700  1.0000 0.1296896685
H   H13       1.0  0.46420  0.70220  0.13100  1.0000 0.1296896685
H   H14       1.0  0.70220  0.46420  0.36900  1.0000 0.1296896685
H   H15       1.0  0.53580  0.29780  0.86900  1.0000 0.1296896685
H   H16       1.0  0.29780  0.53580  0.63100  1.0000 0.1296896685
H   H17       1.0  0.70200  0.74600  0.01400  1.0000 0.1497223071
H   H18       1.0  0.74600  0.70200  0.48600  1.0000 0.1497223071
H   H19       1.0  0.29800  0.25400  0.98600  1.0000 0.1497223071
H   H20       1.0  0.25400  0.29800  0.51400  1.0000 0.1497223071
H   H21       1.0  0.09400  0.15200  0.99200  1.0000 0.1189662508
H   H22       1.0  0.15200  0.09400  0.50800  1.0000 0.1189662508
H   H23       1.0  0.90600  0.84800  0.00800  1.0000 0.1189662508
H   H24       1.0  0.84800  0.90600  0.49200  1.0000 0.1189662508
H   H25       1.0  0.66100  0.25700  0.77600  1.0000 0.1094888068
H   H26       1.0  0.25700  0.66100  0.72400  1.0000 0.1094888068
H   H27       1.0  0.33900  0.74300  0.22400  1.0000 0.1094888068
H   H28       1.0  0.74300  0.33900  0.27600  1.0000 0.1094888068
H   H29       1.0  0.77000  0.37200  0.67200  1.0000 0.0942105978
H   H30       1.0  0.37200  0.77000  0.82800  1.0000 0.0942105978
H   H31       1.0  0.23000  0.62800  0.32800  1.0000 0.0942105978
H   H32       1.0  0.62800  0.23000  0.17200  1.0000 0.0942105978
C   C1        1.0  0.01321  0.32639  0.75650  1.0000 0.6224299214
C   C2        1.0  0.32639  0.01321  0.74350  1.0000 0.6224299214
C   C3        1.0  0.98679  0.67361  0.24350  1.0000 0.6224299214
C   C4        1.0  0.67361  0.98679  0.25650  1.0000 0.6224299214
C   C5        1.0  0.51872  0.54906  0.01690  1.0000 0.0962249703
C   C6        1.0  0.54906  0.51872  0.48310  1.0000 0.0962249703
C   C7        1.0  0.48128  0.45094  0.98310  1.0000 0.0962249703
C   C8        1.0  0.45094  0.48128  0.51690  1.0000 0.0962249703
C   C9        1.0  0.73706  0.06146  0.00740  1.0000 0.6224299214
C   C10       1.0  0.06146  0.73706  0.49260  1.0000 0.6224299214
C   C11       1.0  0.26294  0.93854  0.99260  1.0000 0.6224299214
C   C12       1.0  0.93854  0.26294  0.50740  1.0000 0.6224299214
C   C13       1.0  0.46579  0.58439  0.07110  1.0000 -0.1989336915
C   C14       1.0  0.58439  0.46579  0.42890  1.0000 -0.1989336915
C   C15       1.0  0.53421  0.41561  0.92890  1.0000 -0.1989336915
C   C16       1.0  0.41561  0.53421  0.57110  1.0000 -0.1989336915
C   C17       1.0  0.50054  0.67714  0.09980  1.0000 -0.0234843756
C   C18       1.0  0.67714  0.50054  0.40020  1.0000 -0.0234843756
C   C19       1.0  0.49946  0.32286  0.90020  1.0000 -0.0234843756
C   C20       1.0  0.32286  0.49946  0.59980  1.0000 -0.0234843756
C   C21       1.0  0.80747  0.13971  0.94500  1.0000 -0.0234843756
C   C22       1.0  0.13971  0.80747  0.55500  1.0000 -0.0234843756
C   C23       1.0  0.19253  0.86029  0.05500  1.0000 -0.0234843756
C   C24       1.0  0.86029  0.19253  0.44500  1.0000 -0.0234843756
C   C25       1.0  0.81531  0.30031  0.76240  1.0000 -0.110951782
C   C26       1.0  0.30031  0.81531  0.73760  1.0000 -0.110951782
C   C27       1.0  0.18469  0.69969  0.23760  1.0000 -0.110951782
C   C28       1.0  0.69969  0.18469  0.26240  1.0000 -0.110951782
C   C29       1.0  0.94195  0.26737  0.82590  1.0000 -0.0134900649
C   C30       1.0  0.26737  0.94195  0.67410  1.0000 -0.0134900649
C   C31       1.0  0.05805  0.73263  0.17410  1.0000 -0.0134900649
C   C32       1.0  0.73263  0.05805  0.32590  1.0000 -0.0134900649
C   C33       1.0  0.00145  0.17265  0.95210  1.0000 -0.1014717453
C   C34       1.0  0.17265  0.00145  0.54790  1.0000 -0.1014717453
C   C35       1.0  0.99855  0.82735  0.04790  1.0000 -0.1014717453
C   C36       1.0  0.82735  0.99855  0.45210  1.0000 -0.1014717453
C   C37       1.0  0.93488  0.11028  0.01090  1.0000 -0.0943098002
C   C38       1.0  0.11028  0.93488  0.48910  1.0000 -0.0943098002
C   C39       1.0  0.06512  0.88972  0.98910  1.0000 -0.0943098002
C   C40       1.0  0.88972  0.06512  0.51090  1.0000 -0.0943098002
C   C41       1.0  0.74888  0.23628  0.82110  1.0000 -0.1190316368
C   C42       1.0  0.23628  0.74888  0.67890  1.0000 -0.1190316368
C   C43       1.0  0.25112  0.76372  0.17890  1.0000 -0.1190316368
C   C44       1.0  0.76372  0.25112  0.32110  1.0000 -0.1190316368
C   C45       1.0  0.64016  0.70316  0.02490  1.0000 -0.0017683081
C   C46       1.0  0.70316  0.64016  0.47510  1.0000 -0.0017683081
C   C47       1.0  0.35984  0.29684  0.97510  1.0000 -0.0017683081
C   C48       1.0  0.29684  0.35984  0.52490  1.0000 -0.0017683081
C   C49       1.0  0.60735  0.61155  0.99450  1.0000 -0.182229624
C   C50       1.0  0.61155  0.60735  0.50550  1.0000 -0.182229624
C   C51       1.0  0.39265  0.38845  0.00550  1.0000 -0.182229624
C   C52       1.0  0.38845  0.39265  0.49450  1.0000 -0.182229624
N   N1        1.0  0.58753  0.73349  0.07830  1.0000 0.3276398621
N   N2        1.0  0.73349  0.58753  0.42170  1.0000 0.3276398621
N   N3        1.0  0.41247  0.26651  0.92170  1.0000 0.3276398621
N   N4        1.0  0.26651  0.41247  0.57830  1.0000 0.3276398621
O   O1        1.0  0.62221  0.82085  0.11062  1.0000 -0.6084914364
O   O2        1.0  0.82085  0.62221  0.38938  1.0000 -0.6084914364
O   O3        1.0  0.37779  0.17915  0.88938  1.0000 -0.6084914364
O   O4        1.0  0.17915  0.37779  0.61062  1.0000 -0.6084914364
O   O5        1.0  0.80020  0.97776  0.12100  1.0000 -0.6342090525
O   O6        1.0  0.97776  0.80020  0.37900  1.0000 -0.6342090525
O   O7        1.0  0.19980  0.02224  0.87900  1.0000 -0.6342090525
O   O8        1.0  0.02224  0.19980  0.62100  1.0000 -0.6342090525
O   O9        1.0  0.12364  0.27458  0.81315  1.0000 -0.6598104693
O   O10       1.0  0.27458  0.12364  0.68685  1.0000 -0.6598104693
O   O11       1.0  0.87636  0.72542  0.18685  1.0000 -0.6598104693
O   O12       1.0  0.72542  0.87636  0.31315  1.0000 -0.6598104693
O   O13       1.0  0.95835  0.41983  0.64779  1.0000 -0.6227937646
O   O14       1.0  0.41983  0.95835  0.85221  1.0000 -0.6227937646
O   O15       1.0  0.04165  0.58017  0.35221  1.0000 -0.6227937646
O   O16       1.0  0.58017  0.04165  0.14779  1.0000 -0.6227937646
O   O17       1.0  0.62187  0.08439  0.94074  1.0000 -0.6419607856
O   O18       1.0  0.08439  0.62187  0.55926  1.0000 -0.6419607856
O   O19       1.0  0.37813  0.91561  0.05926  1.0000 -0.6419607856
O   O20       1.0  0.91561  0.37813  0.44074  1.0000 -0.6419607856
