# DDEC6 charges by PACMAN v1.1 (https://github.com/mtap-research/PACMAN-charge/)
data_2016[Ga][nan]3[FSR]9
_chemical_formula_sum              "Ga4 H16 C32 O20"
_cell_length_a       12.1218
_cell_length_b       12.1218
_cell_length_c       12.1218
_cell_angle_alpha    104.011
_cell_angle_beta     104.011
_cell_angle_gamma    121.05

_symmetry_space_group_name_H-M    "P 1"
_symmetry_Int_Tables_number       1

loop_
  _symmetry_equiv_pos_as_xyz
  'x, y, z'

loop_
  _atom_site_type_symbol
  _atom_site_label
  _atom_site_symmetry_multiplicity
  _atom_site_fract_x
  _atom_site_fract_y
  _atom_site_fract_z
  _atom_site_occupancy
  _atom_site_charge
Ga  Ga1       1.0  0.19347  0.19347  0.38694  1.0000 1.4292313898
Ga  Ga2       1.0  0.05653  0.94347  0.50000  1.0000 1.4292313898
Ga  Ga3       1.0  0.80653  0.80653  0.61306  1.0000 1.4292313898
Ga  Ga4       1.0  0.44347  0.55653  0.50000  1.0000 1.4292313898
H   H1        1.0  0.43380  0.37500  0.55880  1.0000 0.4006281713
H   H2        1.0  0.12500  0.18380  0.55880  1.0000 0.4006281713
H   H3        1.0  0.81620  0.87500  0.44120  1.0000 0.4006281713
H   H4        1.0  0.62500  0.56620  0.44120  1.0000 0.4006281713
H   H5        1.0  0.12680  0.62680  0.50000  1.0000 0.1405095155
H   H6        1.0  0.87680  0.87680  0.00000  1.0000 0.1405095155
H   H7        1.0  0.12320  0.12320  0.00000  1.0000 0.1405095155
H   H8        1.0  0.37320  0.87320  0.50000  1.0000 0.1405095155
H   H9        1.0  0.89390  0.21220  0.44650  1.0000 0.120034873
H   H10       1.0  0.69740  0.64390  0.18170  1.0000 0.120034873
H   H11       1.0  0.76570  0.44740  0.55350  1.0000 0.120034873
H   H12       1.0  0.46220  0.51570  0.81830  1.0000 0.120034873
H   H13       1.0  0.48430  0.53780  0.18170  1.0000 0.120034873
H   H14       1.0  0.35610  0.30260  0.81830  1.0000 0.120034873
H   H15       1.0  0.55260  0.23430  0.44650  1.0000 0.120034873
H   H16       1.0  0.78780  0.10610  0.55350  1.0000 0.120034873
C   C1        1.0  0.81230  0.31230  0.50000  1.0000 0.0827349195
C   C2        1.0  0.56230  0.56230  0.00000  1.0000 0.0827349195
C   C3        1.0  0.43770  0.43770  0.00000  1.0000 0.0827349195
C   C4        1.0  0.68770  0.18770  0.50000  1.0000 0.0827349195
C   C5        1.0  0.04710  0.54710  0.50000  1.0000 -0.0828293213
C   C6        1.0  0.79710  0.79710  0.00000  1.0000 -0.0828293213
C   C7        1.0  0.20290  0.20290  0.00000  1.0000 -0.0828293213
C   C8        1.0  0.45290  0.95290  0.50000  1.0000 -0.0828293213
C   C9        1.0  0.14010  0.40860  0.45070  1.0000 0.6043958137
C   C10       1.0  0.93940  0.89010  0.23150  1.0000 0.6043958137
C   C11       1.0  0.95790  0.68940  0.54930  1.0000 0.6043958137
C   C12       1.0  0.65860  0.70790  0.76850  1.0000 0.6043958137
C   C13       1.0  0.29210  0.34140  0.23150  1.0000 0.6043958137
C   C14       1.0  0.10990  0.06060  0.76850  1.0000 0.6043958137
C   C15       1.0  0.31060  0.04210  0.45070  1.0000 0.6043958137
C   C16       1.0  0.59140  0.85990  0.54930  1.0000 0.6043958137
C   C17       1.0  0.03380  0.42106  0.47386  1.0000 -0.0589622562
C   C18       1.0  0.80994  0.78380  0.11274  1.0000 -0.0589622562
C   C19       1.0  0.94720  0.55994  0.52614  1.0000 -0.0589622562
C   C20       1.0  0.67106  0.69720  0.88726  1.0000 -0.0589622562
C   C21       1.0  0.30280  0.32894  0.11274  1.0000 -0.0589622562
C   C22       1.0  0.21620  0.19006  0.88726  1.0000 -0.0589622562
C   C23       1.0  0.44006  0.05280  0.47386  1.0000 -0.0589622562
C   C24       1.0  0.57894  0.96620  0.52614  1.0000 -0.0589622562
C   C25       1.0  0.90940  0.30140  0.47020  1.0000 -0.1404075236
C   C26       1.0  0.68920  0.65940  0.10800  1.0000 -0.1404075236
C   C27       1.0  0.83120  0.43920  0.52980  1.0000 -0.1404075236
C   C28       1.0  0.55140  0.58120  0.89200  1.0000 -0.1404075236
C   C29       1.0  0.41880  0.44860  0.10800  1.0000 -0.1404075236
C   C30       1.0  0.34060  0.31080  0.89200  1.0000 -0.1404075236
C   C31       1.0  0.56080  0.16880  0.47020  1.0000 -0.1404075236
C   C32       1.0  0.69860  0.09060  0.52980  1.0000 -0.1404075236
O   O1        1.0  0.09727  0.28395  0.38556  1.0000 -0.5565056434
O   O2        1.0  0.96171  0.84727  0.31332  1.0000 -0.5565056434
O   O3        1.0  0.89839  0.71171  0.61444  1.0000 -0.5565056434
O   O4        1.0  0.53395  0.64839  0.68668  1.0000 -0.5565056434
O   O5        1.0  0.35161  0.46605  0.31332  1.0000 -0.5565056434
O   O6        1.0  0.15273  0.03829  0.68668  1.0000 -0.5565056434
O   O7        1.0  0.28829  0.10161  0.38556  1.0000 -0.5565056434
O   O8        1.0  0.71605  0.90273  0.61444  1.0000 -0.5565056434
O   O9        1.0  0.37870  0.37500  0.50370  1.0000 -0.8635131722
O   O10       1.0  0.12500  0.12870  0.50370  1.0000 -0.8635131722
O   O11       1.0  0.87130  0.87500  0.49630  1.0000 -0.8635131722
O   O12       1.0  0.62500  0.62130  0.49630  1.0000 -0.8635131722
O   O13       1.0  0.26580  0.52282  0.50200  1.0000 -0.5219360148
O   O14       1.0  0.01380  0.01580  0.24298  1.0000 -0.5219360148
O   O15       1.0  0.02082  0.76380  0.49800  1.0000 -0.5219360148
O   O16       1.0  0.77282  0.77082  0.75702  1.0000 -0.5219360148
O   O17       1.0  0.22918  0.22718  0.24298  1.0000 -0.5219360148
O   O18       1.0  0.98420  0.98620  0.75702  1.0000 -0.5219360148
O   O19       1.0  0.23620  0.97918  0.50200  1.0000 -0.5219360148
O   O20       1.0  0.47718  0.73420  0.49800  1.0000 -0.5219360148
