# DDEC6 charges by PACMAN v1.1 (https://github.com/mtap-research/PACMAN-charge/)
data_2016[Ni][nan]3[FSR]5
_chemical_formula_sum              "Ni4 H12 C32 O20"
_cell_length_a       12.3157
_cell_length_b       12.3157
_cell_length_c       12.3157
_cell_angle_alpha    103.921
_cell_angle_beta     103.921
_cell_angle_gamma    121.255

_symmetry_space_group_name_H-M    "P 1"
_symmetry_Int_Tables_number       1

loop_
  _symmetry_equiv_pos_as_xyz
  'x, y, z'

loop_
  _atom_site_type_symbol
  _atom_site_label
  _atom_site_symmetry_multiplicity
  _atom_site_fract_x
  _atom_site_fract_y
  _atom_site_fract_z
  _atom_site_occupancy
  _atom_site_charge
Ni  Ni1       1.0  0.93964  0.06036  0.50000  1.0000 1.1333409397
Ni  Ni2       1.0  0.68964  0.68964  0.37928  1.0000 1.1333409397
Ni  Ni3       1.0  0.56036  0.43964  0.50000  1.0000 1.1333409397
Ni  Ni4       1.0  0.31036  0.31036  0.62072  1.0000 1.1333409397
H   H1        1.0  0.37150  0.37150  0.00000  1.0000 0.1373632921
H   H2        1.0  0.62150  0.12150  0.50000  1.0000 0.1373632921
H   H3        1.0  0.87850  0.37850  0.50000  1.0000 0.1373632921
H   H4        1.0  0.62850  0.62850  0.00000  1.0000 0.1373632921
H   H5        1.0  0.96790  0.02520  0.82170  1.0000 0.1373632921
H   H6        1.0  0.39620  0.71790  0.44270  1.0000 0.1373632921
H   H7        1.0  0.04650  0.72480  0.44270  1.0000 0.1373632921
H   H8        1.0  0.20350  0.14620  0.17830  1.0000 0.1373632921
H   H9        1.0  0.97480  0.03210  0.17830  1.0000 0.1373632921
H   H10       1.0  0.85380  0.79650  0.82170  1.0000 0.1373632921
H   H11       1.0  0.27520  0.95350  0.55730  1.0000 0.1373632921
H   H12       1.0  0.28210  0.60380  0.55730  1.0000 0.1373632921
C   C1        1.0  0.15670  0.20680  0.76990  1.0000 0.5895751638
C   C2        1.0  0.63680  0.90670  0.44990  1.0000 0.5895751638
C   C3        1.0  0.81310  0.54320  0.44990  1.0000 0.5895751638
C   C4        1.0  0.43690  0.38680  0.23010  1.0000 0.5895751638
C   C5        1.0  0.79320  0.84330  0.23010  1.0000 0.5895751638
C   C6        1.0  0.61320  0.56310  0.76990  1.0000 0.5895751638
C   C7        1.0  0.45680  0.18690  0.55010  1.0000 0.5895751638
C   C8        1.0  0.09330  0.36320  0.55010  1.0000 0.5895751638
C   C9        1.0  0.29450  0.29450  0.00000  1.0000 -0.0813360589
C   C10       1.0  0.54450  0.04450  0.50000  1.0000 -0.0813360589
C   C11       1.0  0.95550  0.45550  0.50000  1.0000 -0.0813360589
C   C12       1.0  0.70550  0.70550  0.00000  1.0000 -0.0813360589
C   C13       1.0  0.16750  0.19620  0.89170  1.0000 -0.0064201988
C   C14       1.0  0.52580  0.91750  0.47130  1.0000 -0.0064201988
C   C15       1.0  0.94550  0.55380  0.47130  1.0000 -0.0044220381
C   C16       1.0  0.30450  0.27580  0.10830  1.0000 -0.0064201988
C   C17       1.0  0.80380  0.83250  0.10830  1.0000 -0.0064201988
C   C18       1.0  0.72420  0.69550  0.89170  1.0000 -0.0064201988
C   C19       1.0  0.44620  0.05450  0.52870  1.0000 -0.0064201988
C   C20       1.0  0.08250  0.47420  0.52870  1.0000 -0.0064201988
C   C21       1.0  0.05350  0.08600  0.89330  1.0000 -0.1155175643
C   C22       1.0  0.41020  0.80350  0.46750  1.0000 -0.1155175643
C   C23       1.0  0.05730  0.66400  0.46750  1.0000 -0.1155175643
C   C24       1.0  0.19270  0.16020  0.10670  1.0000 -0.1155175643
C   C25       1.0  0.91400  0.94650  0.10670  1.0000 -0.1155175643
C   C26       1.0  0.83980  0.80730  0.89330  1.0000 -0.1155175643
C   C27       1.0  0.33600  0.94270  0.53250  1.0000 -0.1155175643
C   C28       1.0  0.19650  0.58980  0.53250  1.0000 -0.1149161162
C   C29       1.0  0.06140  0.06140  0.00000  1.0000 0.0557436531
C   C30       1.0  0.31140  0.81140  0.50000  1.0000 0.0557436531
C   C31       1.0  0.18860  0.68860  0.50000  1.0000 0.0545614695
C   C32       1.0  0.93860  0.93860  0.00000  1.0000 0.0557436531
O   O1        1.0  0.27090  0.26490  0.75940  1.0000 -0.4998090567
O   O2        1.0  0.76150  0.02090  0.50600  1.0000 -0.4998090567
O   O3        1.0  0.74450  0.48510  0.50600  1.0000 -0.4998090567
O   O4        1.0  0.50550  0.51150  0.24060  1.0000 -0.4998090567
O   O5        1.0  0.73510  0.72910  0.24060  1.0000 -0.4998090567
O   O6        1.0  0.48850  0.49450  0.75940  1.0000 -0.4998090567
O   O7        1.0  0.51490  0.25550  0.49400  1.0000 -0.4998090567
O   O8        1.0  0.97910  0.23850  0.49400  1.0000 -0.4998090567
O   O9        1.0  0.12500  0.11140  0.48640  1.0000 -0.4544402512
O   O10       1.0  0.88860  0.87500  0.51360  1.0000 -0.4544402512
O   O11       1.0  0.62500  0.63860  0.51360  1.0000 -0.4580224307
O   O12       1.0  0.36140  0.37500  0.48640  1.0000 -0.4580224307
O   O13       1.0  0.03610  0.15370  0.69140  1.0000 -0.4998090567
O   O14       1.0  0.59470  0.78610  0.38240  1.0000 -0.4998090567
O   O15       1.0  0.78770  0.59630  0.38240  1.0000 -0.4998090567
O   O16       1.0  0.46230  0.34470  0.30860  1.0000 -0.4998090567
O   O17       1.0  0.84630  0.96390  0.30860  1.0000 -0.4998090567
O   O18       1.0  0.65530  0.53770  0.69140  1.0000 -0.4998090567
O   O19       1.0  0.40370  0.21230  0.61760  1.0000 -0.4998090567
O   O20       1.0  0.21390  0.40530  0.61760  1.0000 -0.4998090567
