# DDEC6 charges by PACMAN v1.1 (https://github.com/mtap-research/PACMAN-charge/)
data_2016[Co][flu]3[FSR]1
_chemical_formula_sum              "Co4 H112 C144 O48"
_cell_length_a       11.838
_cell_length_b       24.772
_cell_length_c       18.5604
_cell_angle_alpha    90
_cell_angle_beta     122.458
_cell_angle_gamma    90

_symmetry_space_group_name_H-M    "P 1"
_symmetry_Int_Tables_number       1

loop_
  _symmetry_equiv_pos_as_xyz
  'x, y, z'

loop_
  _atom_site_type_symbol
  _atom_site_label
  _atom_site_symmetry_multiplicity
  _atom_site_fract_x
  _atom_site_fract_y
  _atom_site_fract_z
  _atom_site_occupancy
  _atom_site_charge
Co  Co1       1.0  0.90435  0.33503  0.99247  1.0000 1.021347346
Co  Co2       1.0  0.09565  0.83503  0.50753  1.0000 1.021347346
Co  Co3       1.0  0.09565  0.66497  0.00753  1.0000 1.021347346
Co  Co4       1.0  0.90435  0.16497  0.49247  1.0000 1.021347346
H   H1        1.0  0.66460  0.40240  0.73630  1.0000 0.1286397994
H   H2        1.0  0.33540  0.90240  0.76370  1.0000 0.1286397994
H   H3        1.0  0.33540  0.59760  0.26370  1.0000 0.1286397994
H   H4        1.0  0.66460  0.09760  0.23630  1.0000 0.1286397994
H   H5        1.0  0.67300  0.33950  0.73730  1.0000 0.1490763383
H   H6        1.0  0.32700  0.83950  0.76270  1.0000 0.1490763383
H   H7        1.0  0.32700  0.66050  0.26270  1.0000 0.1490763383
H   H8        1.0  0.67300  0.16050  0.23730  1.0000 0.1490763383
H   H9        1.0  0.82560  0.55020  0.80110  1.0000 0.1286397994
H   H10       1.0  0.17440  0.05020  0.69890  1.0000 0.1286397994
H   H11       1.0  0.17440  0.44980  0.19890  1.0000 0.1286397994
H   H12       1.0  0.82560  0.94980  0.30110  1.0000 0.1286397994
H   H13       1.0  0.96510  0.52680  0.82570  1.0000 0.1378098714
H   H14       1.0  0.03490  0.02680  0.67430  1.0000 0.1378098714
H   H15       1.0  0.03490  0.47320  0.17430  1.0000 0.1378098714
H   H16       1.0  0.96510  0.97320  0.32570  1.0000 0.1378098714
H   H17       1.0  0.82120  0.46530  0.75130  1.0000 0.1378098714
H   H18       1.0  0.17880  0.96530  0.74870  1.0000 0.1378098714
H   H19       1.0  0.17880  0.53470  0.24870  1.0000 0.1378098714
H   H20       1.0  0.82120  0.03470  0.25130  1.0000 0.1378098714
H   H21       1.0  0.70930  0.47700  0.47330  1.0000 0.1286397994
H   H22       1.0  0.29070  0.97700  0.02670  1.0000 0.1286397994
H   H23       1.0  0.29070  0.52300  0.52670  1.0000 0.1286397994
H   H24       1.0  0.70930  0.02300  0.97330  1.0000 0.1286397994
H   H25       1.0  0.72080  0.34510  0.53660  1.0000 0.1286397994
H   H26       1.0  0.27920  0.84510  0.96340  1.0000 0.1286397994
H   H27       1.0  0.27920  0.65490  0.46340  1.0000 0.1286397994
H   H28       1.0  0.72080  0.15490  0.03660  1.0000 0.1286397994
H   H29       1.0  0.50360  0.42040  0.34750  1.0000 0.1286397994
H   H30       1.0  0.49640  0.92040  0.15250  1.0000 0.1286397994
H   H31       1.0  0.49640  0.57960  0.65250  1.0000 0.1286397994
H   H32       1.0  0.50360  0.07960  0.84750  1.0000 0.1286397994
H   H33       1.0  0.53940  0.43580  0.23900  1.0000 0.1286397994
H   H34       1.0  0.46060  0.93580  0.26100  1.0000 0.1286397994
H   H35       1.0  0.46060  0.56420  0.76100  1.0000 0.1286397994
H   H36       1.0  0.53940  0.06420  0.73900  1.0000 0.1286397994
H   H37       1.0  0.82360  0.39400  0.23380  1.0000 0.1490763383
H   H38       1.0  0.17640  0.89400  0.26620  1.0000 0.1490763383
H   H39       1.0  0.17640  0.60600  0.76620  1.0000 0.1490763383
H   H40       1.0  0.82360  0.10600  0.73380  1.0000 0.1490763383
H   H41       1.0  0.66890  0.39690  0.16740  1.0000 0.1490763383
H   H42       1.0  0.33110  0.89690  0.33260  1.0000 0.1490763383
H   H43       1.0  0.33110  0.60310  0.83260  1.0000 0.1490763383
H   H44       1.0  0.66890  0.10310  0.66740  1.0000 0.1490763383
H   H45       1.0  0.74780  0.44900  0.21700  1.0000 0.1378098714
H   H46       1.0  0.25220  0.94900  0.28300  1.0000 0.1378098714
H   H47       1.0  0.25220  0.55100  0.78300  1.0000 0.1378098714
H   H48       1.0  0.74780  0.05100  0.71700  1.0000 0.1378098714
H   H49       1.0  0.88020  0.35410  0.36690  1.0000 0.1378098714
H   H50       1.0  0.11980  0.85410  0.13310  1.0000 0.1378098714
H   H51       1.0  0.11980  0.64590  0.63310  1.0000 0.1378098714
H   H52       1.0  0.88020  0.14590  0.86690  1.0000 0.1378098714
H   H53       1.0  0.84460  0.33890  0.47410  1.0000 0.1378098714
H   H54       1.0  0.15540  0.83890  0.02590  1.0000 0.1378098714
H   H55       1.0  0.15540  0.66110  0.52590  1.0000 0.1378098714
H   H56       1.0  0.84460  0.16110  0.97410  1.0000 0.1378098714
H   H57       1.0  0.52600  0.20230  0.50880  1.0000 0.1490763383
H   H58       1.0  0.47400  0.70230  0.99120  1.0000 0.1490763383
H   H59       1.0  0.47400  0.79770  0.49120  1.0000 0.1490763383
H   H60       1.0  0.52600  0.29770  0.00880  1.0000 0.1490763383
H   H61       1.0  0.46290  0.20770  0.41000  1.0000 0.1378098714
H   H62       1.0  0.53710  0.70770  0.09000  1.0000 0.1378098714
H   H63       1.0  0.53710  0.79230  0.59000  1.0000 0.1378098714
H   H64       1.0  0.46290  0.29230  0.91000  1.0000 0.1378098714
H   H65       1.0  0.23430  0.26800  0.53120  1.0000 0.1286397994
H   H66       1.0  0.76570  0.76800  0.96880  1.0000 0.1286397994
H   H67       1.0  0.76570  0.73200  0.46880  1.0000 0.1286397994
H   H68       1.0  0.23430  0.23200  0.03120  1.0000 0.1286397994
H   H69       1.0  0.14200  0.31300  0.53230  1.0000 0.1378098714
H   H70       1.0  0.85800  0.81300  0.96770  1.0000 0.1378098714
H   H71       1.0  0.85800  0.68700  0.46770  1.0000 0.1378098714
H   H72       1.0  0.14200  0.18700  0.03230  1.0000 0.1378098714
H   H73       1.0  0.33550  0.25350  0.44530  1.0000 0.1490763383
H   H74       1.0  0.66450  0.75350  0.05470  1.0000 0.1490763383
H   H75       1.0  0.66450  0.74650  0.55470  1.0000 0.1490763383
H   H76       1.0  0.33550  0.24650  0.94530  1.0000 0.1490763383
H   H77       1.0  0.45250  0.43340  0.47860  1.0000 0.1378098714
H   H78       1.0  0.54750  0.93340  0.02140  1.0000 0.1378098714
H   H79       1.0  0.54750  0.56660  0.52140  1.0000 0.1378098714
H   H80       1.0  0.45250  0.06660  0.97860  1.0000 0.1378098714
H   H81       1.0  0.11580  0.41160  0.40830  1.0000 0.1286397994
H   H82       1.0  0.88420  0.91160  0.09170  1.0000 0.1286397994
H   H83       1.0  0.88420  0.58840  0.59170  1.0000 0.1286397994
H   H84       1.0  0.11580  0.08840  0.90830  1.0000 0.1286397994
H   H85       1.0  0.40420  0.40640  0.61370  1.0000 0.1226498952
H   H86       1.0  0.59580  0.90640  0.88630  1.0000 0.1226498952
H   H87       1.0  0.59580  0.59360  0.38630  1.0000 0.1226498952
H   H88       1.0  0.40420  0.09360  0.11370  1.0000 0.1226498952
H   H89       1.0  0.40540  0.40570  0.73950  1.0000 0.1378098714
H   H90       1.0  0.59460  0.90570  0.76050  1.0000 0.1378098714
H   H91       1.0  0.59460  0.59430  0.26050  1.0000 0.1378098714
H   H92       1.0  0.40540  0.09430  0.23950  1.0000 0.1378098714
H   H93       1.0  0.30410  0.41460  0.81770  1.0000 0.1490763383
H   H94       1.0  0.69590  0.91460  0.68230  1.0000 0.1490763383
H   H95       1.0  0.69590  0.58540  0.18230  1.0000 0.1490763383
H   H96       1.0  0.30410  0.08540  0.31770  1.0000 0.1490763383
H   H97       1.0  0.19290  0.45920  0.78200  1.0000 0.1490763383
H   H98       1.0  0.80710  0.95920  0.71800  1.0000 0.1490763383
H   H99       1.0  0.80710  0.54080  0.21800  1.0000 0.1490763383
H   H100      1.0  0.19290  0.04080  0.28200  1.0000 0.1490763383
H   H101      1.0  0.15260  0.39810  0.76650  1.0000 0.1590040943
H   H102      1.0  0.84740  0.89810  0.73350  1.0000 0.1590040943
H   H103      1.0  0.84740  0.60190  0.23350  1.0000 0.1590040943
H   H104      1.0  0.15260  0.10190  0.26650  1.0000 0.1590040943
H   H105      1.0  0.02380  0.44740  0.61060  1.0000 0.1286397994
H   H106      1.0  0.97620  0.94740  0.88940  1.0000 0.1286397994
H   H107      1.0  0.97620  0.55260  0.38940  1.0000 0.1286397994
H   H108      1.0  0.02380  0.05260  0.11060  1.0000 0.1286397994
H   H109      1.0  0.01950  0.44730  0.48500  1.0000 0.1286397994
H   H110      1.0  0.98050  0.94730  0.01500  1.0000 0.1286397994
H   H111      1.0  0.98050  0.55270  0.51500  1.0000 0.1286397994
H   H112      1.0  0.01950  0.05270  0.98500  1.0000 0.1286397994
C   C1        1.0  0.84440  0.37432  0.82590  1.0000 0.5915476005
C   C2        1.0  0.15560  0.87432  0.67410  1.0000 0.5915476005
C   C3        1.0  0.15560  0.62568  0.17410  1.0000 0.5915476005
C   C4        1.0  0.84440  0.12568  0.32590  1.0000 0.5915476005
C   C5        1.0  0.72040  0.37230  0.74070  1.0000 -0.1832793185
C   C6        1.0  0.27960  0.87230  0.75930  1.0000 -0.1832793185
C   C7        1.0  0.27960  0.62770  0.25930  1.0000 -0.1832793185
C   C8        1.0  0.72040  0.12770  0.24070  1.0000 -0.1832793185
C   C9        1.0  0.97260  0.60863  0.84840  1.0000 0.5915476005
C   C10       1.0  0.02740  0.10863  0.65160  1.0000 0.5915476005
C   C11       1.0  0.02740  0.39137  0.15160  1.0000 0.5915476005
C   C12       1.0  0.97260  0.89137  0.34840  1.0000 0.5915476005
C   C13       1.0  0.90450  0.55709  0.79910  1.0000 -0.1395900108
C   C14       1.0  0.09550  0.05709  0.70090  1.0000 -0.1395900108
C   C15       1.0  0.09550  0.44291  0.20090  1.0000 -0.1395900108
C   C16       1.0  0.90450  0.94291  0.29910  1.0000 -0.1395900108
C   C17       1.0  0.79820  0.46775  0.69500  1.0000 -0.3283571617
C   C18       1.0  0.20180  0.96775  0.80500  1.0000 -0.3283571617
C   C19       1.0  0.20180  0.53225  0.30500  1.0000 -0.3283571617
C   C20       1.0  0.79820  0.03225  0.19500  1.0000 -0.3283571617
C   C21       1.0  0.81430  0.51561  0.66430  1.0000 0.1901837459
C   C22       1.0  0.18570  0.01561  0.83570  1.0000 0.1901837459
C   C23       1.0  0.18570  0.48439  0.33570  1.0000 0.1901837459
C   C24       1.0  0.81430  0.98439  0.16430  1.0000 0.1901837459
C   C25       1.0  0.77970  0.52077  0.58030  1.0000 0.0018038573
C   C26       1.0  0.22030  0.02077  0.91970  1.0000 0.0018038573
C   C27       1.0  0.22030  0.47923  0.41970  1.0000 0.0018038573
C   C28       1.0  0.77970  0.97923  0.08030  1.0000 0.0018038573
C   C29       1.0  0.73140  0.47474  0.52940  1.0000 -0.1913756261
C   C30       1.0  0.26860  0.97474  0.97060  1.0000 -0.1913756261
C   C31       1.0  0.26860  0.52526  0.47060  1.0000 -0.1913756261
C   C32       1.0  0.73140  0.02526  0.02940  1.0000 -0.1913756261
C   C33       1.0  0.71480  0.42554  0.55860  1.0000 -0.005824453
C   C34       1.0  0.28520  0.92554  0.94140  1.0000 -0.005824453
C   C35       1.0  0.28520  0.57446  0.44140  1.0000 -0.005824453
C   C36       1.0  0.71480  0.07446  0.05860  1.0000 -0.005824453
C   C37       1.0  0.74760  0.42310  0.64180  1.0000 0.2066370865
C   C38       1.0  0.25240  0.92310  0.85820  1.0000 0.2066370865
C   C39       1.0  0.25240  0.57690  0.35820  1.0000 0.2066370865
C   C40       1.0  0.74760  0.07690  0.14180  1.0000 0.2066370865
C   C41       1.0  0.66130  0.37479  0.50220  1.0000 -0.1022092493
C   C42       1.0  0.33870  0.87479  0.99780  1.0000 -0.1022092493
C   C43       1.0  0.33870  0.62521  0.49780  1.0000 -0.1022092493
C   C44       1.0  0.66130  0.12521  0.00220  1.0000 -0.1022092493
C   C45       1.0  0.67200  0.37969  0.42430  1.0000 0.0832911304
C   C46       1.0  0.32800  0.87969  0.07570  1.0000 0.0832911304
C   C47       1.0  0.32800  0.62031  0.57570  1.0000 0.0832911304
C   C48       1.0  0.67200  0.12031  0.92430  1.0000 0.0832911304
C   C49       1.0  0.58120  0.40740  0.35250  1.0000 -0.1395900108
C   C50       1.0  0.41880  0.90740  0.14750  1.0000 -0.1395900108
C   C51       1.0  0.41880  0.59260  0.64750  1.0000 -0.1395900108
C   C52       1.0  0.58120  0.09260  0.85250  1.0000 -0.1395900108
C   C53       1.0  0.60250  0.41650  0.28710  1.0000 -0.1573826873
C   C54       1.0  0.39750  0.91650  0.21290  1.0000 -0.1573826873
C   C55       1.0  0.39750  0.58350  0.71290  1.0000 -0.1573826873
C   C56       1.0  0.60250  0.08350  0.78710  1.0000 -0.1573826873
C   C57       1.0  0.71580  0.39730  0.29220  1.0000 0.1792714467
C   C58       1.0  0.28420  0.89730  0.20780  1.0000 0.1792714467
C   C59       1.0  0.28420  0.60270  0.70780  1.0000 0.1792714467
C   C60       1.0  0.71580  0.10270  0.79220  1.0000 0.1792714467
C   C61       1.0  0.74140  0.41060  0.22080  1.0000 -0.4333785453
C   C62       1.0  0.25860  0.91060  0.27920  1.0000 -0.4333785453
C   C63       1.0  0.25860  0.58940  0.77920  1.0000 -0.4333785453
C   C64       1.0  0.74140  0.08940  0.72080  1.0000 -0.4333785453
C   C65       1.0  0.80400  0.36820  0.36260  1.0000 -0.1395900108
C   C66       1.0  0.19600  0.86820  0.13740  1.0000 -0.1395900108
C   C67       1.0  0.19600  0.63180  0.63740  1.0000 -0.1395900108
C   C68       1.0  0.80400  0.13180  0.86260  1.0000 -0.1395900108
C   C69       1.0  0.78280  0.35930  0.42710  1.0000 -0.1298631881
C   C70       1.0  0.21720  0.85930  0.07290  1.0000 -0.1298631881
C   C71       1.0  0.21720  0.64070  0.57290  1.0000 -0.1298631881
C   C72       1.0  0.78280  0.14070  0.92710  1.0000 -0.1298631881
C   C73       1.0  0.65530  0.18090  0.47330  1.0000 0.5961236676
C   C74       1.0  0.34470  0.68090  0.02670  1.0000 0.5961236676
C   C75       1.0  0.34470  0.81910  0.52670  1.0000 0.5961236676
C   C76       1.0  0.65530  0.31910  0.97330  1.0000 0.5961236676
C   C77       1.0  0.54350  0.21357  0.46560  1.0000 -0.1689575219
C   C78       1.0  0.45650  0.71357  0.03440  1.0000 -0.1689575219
C   C79       1.0  0.45650  0.78643  0.53440  1.0000 -0.1689575219
C   C80       1.0  0.54350  0.28643  0.96560  1.0000 -0.1689575219
C   C81       1.0  0.03790  0.24638  0.46570  1.0000 0.5915476005
C   C82       1.0  0.96210  0.74638  0.03430  1.0000 0.5915476005
C   C83       1.0  0.96210  0.75362  0.53430  1.0000 0.5915476005
C   C84       1.0  0.03790  0.25362  0.96570  1.0000 0.5915476005
C   C85       1.0  0.14910  0.28639  0.49660  1.0000 -0.1502945462
C   C86       1.0  0.85090  0.78639  0.00340  1.0000 -0.1502945462
C   C87       1.0  0.85090  0.71361  0.50340  1.0000 -0.1502945462
C   C88       1.0  0.14910  0.21361  0.99660  1.0000 -0.1502945462
C   C89       1.0  0.35950  0.28979  0.45210  1.0000 -0.3283571617
C   C90       1.0  0.64050  0.78979  0.04790  1.0000 -0.3283571617
C   C91       1.0  0.64050  0.71021  0.54790  1.0000 -0.3283571617
C   C92       1.0  0.35950  0.21021  0.95210  1.0000 -0.3283571617
C   C93       1.0  0.27100  0.32890  0.44510  1.0000 0.2028080842
C   C94       1.0  0.72900  0.82890  0.05490  1.0000 0.2028080842
C   C95       1.0  0.72900  0.67110  0.55490  1.0000 0.2028080842
C   C96       1.0  0.27100  0.17110  0.94510  1.0000 0.2028080842
C   C97       1.0  0.30270  0.38333  0.45440  1.0000 0.0072271649
C   C98       1.0  0.69730  0.88333  0.04560  1.0000 0.0072271649
C   C99       1.0  0.69730  0.61667  0.54560  1.0000 0.0072271649
C   C100      1.0  0.30270  0.11667  0.95440  1.0000 0.0072271649
C   C101      1.0  0.42920  0.39709  0.47210  1.0000 -0.1913756261
C   C102      1.0  0.57080  0.89709  0.02790  1.0000 -0.1913756261
C   C103      1.0  0.57080  0.60291  0.52790  1.0000 -0.1913756261
C   C104      1.0  0.42920  0.10291  0.97210  1.0000 -0.1913756261
C   C105      1.0  0.52240  0.35945  0.48060  1.0000 0.0072271649
C   C106      1.0  0.47760  0.85945  0.01940  1.0000 0.0072271649
C   C107      1.0  0.47760  0.64055  0.51940  1.0000 0.0072271649
C   C108      1.0  0.52240  0.14055  0.98060  1.0000 0.0072271649
C   C109      1.0  0.48420  0.30492  0.46920  1.0000 0.2170686742
C   C110      1.0  0.51580  0.80492  0.03080  1.0000 0.2170686742
C   C111      1.0  0.51580  0.69508  0.53080  1.0000 0.2170686742
C   C112      1.0  0.48420  0.19508  0.96920  1.0000 0.2170686742
C   C113      1.0  0.20560  0.42462  0.45120  1.0000 -0.1022092493
C   C114      1.0  0.79440  0.92462  0.04880  1.0000 -0.1022092493
C   C115      1.0  0.79440  0.57538  0.54880  1.0000 -0.1022092493
C   C116      1.0  0.20560  0.07538  0.95120  1.0000 -0.1022092493
C   C117      1.0  0.21200  0.42654  0.53580  1.0000 0.0832911304
C   C118      1.0  0.78800  0.92654  0.96420  1.0000 0.0832911304
C   C119      1.0  0.78800  0.57346  0.46420  1.0000 0.0832911304
C   C120      1.0  0.21200  0.07346  0.03580  1.0000 0.0832911304
C   C121      1.0  0.32610  0.41440  0.61200  1.0000 -0.1502945462
C   C122      1.0  0.67390  0.91440  0.88800  1.0000 -0.1502945462
C   C123      1.0  0.67390  0.58560  0.38800  1.0000 -0.1502945462
C   C124      1.0  0.32610  0.08560  0.11200  1.0000 -0.1502945462
C   C125      1.0  0.32680  0.41410  0.68820  1.0000 -0.1502945462
C   C126      1.0  0.67320  0.91410  0.81180  1.0000 -0.1502945462
C   C127      1.0  0.67320  0.58590  0.31180  1.0000 -0.1502945462
C   C128      1.0  0.32680  0.08590  0.18820  1.0000 -0.1502945462
C   C129      1.0  0.21380  0.42590  0.68780  1.0000 0.1719859561
C   C130      1.0  0.78620  0.92590  0.81220  1.0000 0.1719859561
C   C131      1.0  0.78620  0.57410  0.31220  1.0000 0.1719859561
C   C132      1.0  0.21380  0.07410  0.18780  1.0000 0.1719859561
C   C133      1.0  0.21600  0.42430  0.77130  1.0000 -0.4357180127
C   C134      1.0  0.78400  0.92430  0.72870  1.0000 -0.4357180127
C   C135      1.0  0.78400  0.57570  0.22870  1.0000 -0.4357180127
C   C136      1.0  0.21600  0.07570  0.27130  1.0000 -0.4357180127
C   C137      1.0  0.10130  0.43860  0.61190  1.0000 -0.1502945462
C   C138      1.0  0.89870  0.93860  0.88810  1.0000 -0.1502945462
C   C139      1.0  0.89870  0.56140  0.38810  1.0000 -0.1502945462
C   C140      1.0  0.10130  0.06140  0.11190  1.0000 -0.1502945462
C   C141      1.0  0.09850  0.43880  0.53600  1.0000 -0.1298631881
C   C142      1.0  0.90150  0.93880  0.96400  1.0000 -0.1298631881
C   C143      1.0  0.90150  0.56120  0.46400  1.0000 -0.1298631881
C   C144      1.0  0.09850  0.06120  0.03600  1.0000 -0.1298631881
O   O1        1.0  0.82090  0.37417  0.88510  1.0000 -0.5665983239
O   O2        1.0  0.17910  0.87417  0.61490  1.0000 -0.5665983239
O   O3        1.0  0.17910  0.62583  0.11490  1.0000 -0.5665983239
O   O4        1.0  0.82090  0.12583  0.38510  1.0000 -0.5665983239
O   O5        1.0  0.95410  0.37619  0.83420  1.0000 -0.4780175218
O   O6        1.0  0.04590  0.87619  0.66580  1.0000 -0.4780175218
O   O7        1.0  0.04590  0.62381  0.16580  1.0000 -0.4780175218
O   O8        1.0  0.95410  0.12381  0.33420  1.0000 -0.4780175218
O   O9        1.0  0.01774  0.60358  0.92844  1.0000 -0.5518808046
O   O10       1.0  0.98226  0.10358  0.57156  1.0000 -0.5518808046
O   O11       1.0  0.98226  0.39642  0.07156  1.0000 -0.5518808046
O   O12       1.0  0.01774  0.89642  0.42844  1.0000 -0.5518808046
O   O13       1.0  0.97990  0.64871  0.81510  1.0000 -0.4661263058
O   O14       1.0  0.02010  0.14871  0.68490  1.0000 -0.4661263058
O   O15       1.0  0.02010  0.35129  0.18490  1.0000 -0.4661263058
O   O16       1.0  0.97990  0.85129  0.31510  1.0000 -0.4661263058
O   O17       1.0  0.75860  0.20397  0.48870  1.0000 -0.4960500726
O   O18       1.0  0.24140  0.70397  0.01130  1.0000 -0.4960500726
O   O19       1.0  0.24140  0.79603  0.51130  1.0000 -0.4960500726
O   O20       1.0  0.75860  0.29603  0.98870  1.0000 -0.4960500726
O   O21       1.0  0.63630  0.13173  0.46580  1.0000 -0.5105098763
O   O22       1.0  0.36370  0.63173  0.03420  1.0000 -0.5105098763
O   O23       1.0  0.36370  0.86827  0.53420  1.0000 -0.5105098763
O   O24       1.0  0.63630  0.36827  0.96580  1.0000 -0.5105098763
O   O25       1.0  0.04273  0.21949  0.52633  1.0000 -0.5623543838
O   O26       1.0  0.95727  0.71949  0.97367  1.0000 -0.5623543838
O   O27       1.0  0.95727  0.78051  0.47367  1.0000 -0.5623543838
O   O28       1.0  0.04273  0.28051  0.02633  1.0000 -0.5623543838
O   O29       1.0  0.95060  0.24159  0.39000  1.0000 -0.4780175218
O   O30       1.0  0.04940  0.74159  0.11000  1.0000 -0.4780175218
O   O31       1.0  0.04940  0.75841  0.61000  1.0000 -0.4780175218
O   O32       1.0  0.95060  0.25841  0.89000  1.0000 -0.4780175218
O   O33       1.0  0.73155  0.37378  0.66915  1.0000 -0.1395900108
O   O34       1.0  0.26845  0.87378  0.83085  1.0000 -0.1395900108
O   O35       1.0  0.26845  0.62622  0.33085  1.0000 -0.1395900108
O   O36       1.0  0.73155  0.12622  0.16915  1.0000 -0.1395900108
O   O37       1.0  0.86779  0.56147  0.71439  1.0000 -0.1502945462
O   O38       1.0  0.13221  0.06147  0.78561  1.0000 -0.1502945462
O   O39       1.0  0.13221  0.43853  0.28561  1.0000 -0.1502945462
O   O40       1.0  0.86779  0.93853  0.21439  1.0000 -0.1502945462
O   O41       1.0  0.14535  0.31279  0.42755  1.0000 -0.1573826873
O   O42       1.0  0.85465  0.81279  0.07245  1.0000 -0.1573826873
O   O43       1.0  0.85465  0.68721  0.57245  1.0000 -0.1573826873
O   O44       1.0  0.14535  0.18721  0.92755  1.0000 -0.1573826873
O   O45       1.0  0.57735  0.26900  0.47605  1.0000 -0.1298631881
O   O46       1.0  0.42265  0.76900  0.02395  1.0000 -0.1298631881
O   O47       1.0  0.42265  0.73100  0.52395  1.0000 -0.1298631881
O   O48       1.0  0.57735  0.23100  0.97605  1.0000 -0.1298631881
