# DDEC6 charges by PACMAN v1.1 (https://github.com/mtap-research/PACMAN-charge/)
data_2016[CuU][sqc]3[FSR]1
_chemical_formula_sum              "U1 Cu1 H6 C10 O12"
_cell_length_a       7.1162
_cell_length_b       7.2353
_cell_length_c       9.2139
_cell_angle_alpha    95.361
_cell_angle_beta     91.219
_cell_angle_gamma    114.929

_symmetry_space_group_name_H-M    "P 1"
_symmetry_Int_Tables_number       1

loop_
  _symmetry_equiv_pos_as_xyz
  'x, y, z'

loop_
  _atom_site_type_symbol
  _atom_site_label
  _atom_site_symmetry_multiplicity
  _atom_site_fract_x
  _atom_site_fract_y
  _atom_site_fract_z
  _atom_site_occupancy
  _atom_site_charge
U   U1        1.0  0.50000  0.00000  0.50000  1.0000 2.4029615867
Cu  Cu1       1.0  0.00000  0.50000  0.50000  1.0000 0.9927407849
H   H1        1.0  0.11610  0.38470  0.70410  1.0000 0.3994404721
H   H2        1.0  0.88390  0.61530  0.29590  1.0000 0.3994404721
H   H3        1.0  0.00350  0.20530  0.59640  1.0000 0.3864611435
H   H4        1.0  0.99650  0.79470  0.40360  1.0000 0.3864611435
H   H5        1.0  0.28850  0.93160  0.97390  1.0000 0.1478750754
H   H6        1.0  0.71150  0.06840  0.02610  1.0000 0.1478750754
C   C1        1.0  0.27110  0.04010  0.25080  1.0000 0.5527740467
C   C2        1.0  0.72890  0.95990  0.74920  1.0000 0.5527740467
C   C3        1.0  0.13230  0.02410  0.12220  1.0000 -0.0419242185
C   C4        1.0  0.86770  0.97590  0.87780  1.0000 -0.0419242185
C   C5        1.0  0.17240  0.95850  0.98450  1.0000 -0.1090836701
C   C6        1.0  0.82760  0.04150  0.01550  1.0000 -0.1090836701
C   C7        1.0  0.95840  0.06760  0.13750  1.0000 -0.0162080823
C   C8        1.0  0.04160  0.93240  0.86250  1.0000 -0.0162080823
C   C9        1.0  0.90630  0.14490  0.28250  1.0000 0.6358213771
C   C10       1.0  0.09370  0.85510  0.71750  1.0000 0.6358213771
O   O1        1.0  0.35860  0.72950  0.46370  1.0000 -0.7371418726
O   O2        1.0  0.64140  0.27050  0.53630  1.0000 -0.7371418726
O   O3        1.0  0.77770  0.01530  0.35410  1.0000 -0.5994310033
O   O4        1.0  0.22230  0.98470  0.64590  1.0000 -0.5994310033
O   O5        1.0  0.23960  0.09950  0.37800  1.0000 -0.5595060092
O   O6        1.0  0.76040  0.90050  0.62200  1.0000 -0.5595060092
O   O7        1.0  0.41570  0.98320  0.23430  1.0000 -0.5595060092
O   O8        1.0  0.58430  0.01680  0.76570  1.0000 -0.5595060092
O   O9        1.0  0.09810  0.33710  0.60870  1.0000 -0.6525984061
O   O10       1.0  0.90190  0.66290  0.39130  1.0000 -0.6525984061
O   O11       1.0  0.98950  0.33670  0.31370  1.0000 -0.5448240292
O   O12       1.0  0.01050  0.66330  0.68630  1.0000 -0.5448240292
