# DDEC6 charges by PACMAN v1.1 (https://github.com/mtap-research/PACMAN-charge/)
data_2016[Cd][nan]3[FSR]27
_chemical_formula_sum              "Cd4 H60 C68 N24 O20"
_cell_length_a       14.5667
_cell_length_b       14.5667
_cell_length_c       16.641
_cell_angle_alpha    76.7678
_cell_angle_beta     103.232
_cell_angle_gamma    137.019

_symmetry_space_group_name_H-M    "P 1"
_symmetry_Int_Tables_number       1

loop_
  _symmetry_equiv_pos_as_xyz
  'x, y, z'

loop_
  _atom_site_type_symbol
  _atom_site_label
  _atom_site_symmetry_multiplicity
  _atom_site_fract_x
  _atom_site_fract_y
  _atom_site_fract_z
  _atom_site_occupancy
  _atom_site_charge
Cd  Cd1       1.0  0.92287  0.49703  0.83287  1.0000 0.8737876205
Cd  Cd2       1.0  0.49703  0.92287  0.66713  1.0000 0.8737876205
Cd  Cd3       1.0  0.07713  0.50297  0.16713  1.0000 0.8737876205
Cd  Cd4       1.0  0.50297  0.07713  0.33287  1.0000 0.8737876205
H   H1        1.0  0.13800  0.74800  0.85860  1.0000 0.360918769
H   H2        1.0  0.74800  0.13800  0.64140  1.0000 0.360918769
H   H3        1.0  0.86200  0.25200  0.14140  1.0000 0.360918769
H   H4        1.0  0.25200  0.86200  0.35860  1.0000 0.360918769
H   H5        1.0  0.12640  0.66760  0.93000  1.0000 0.360918769
H   H6        1.0  0.66760  0.12640  0.57000  1.0000 0.360918769
H   H7        1.0  0.87360  0.33240  0.07000  1.0000 0.360918769
H   H8        1.0  0.33240  0.87360  0.43000  1.0000 0.360918769
H   H9        1.0  0.58670  0.52310  0.15920  1.0000 0.1116613834
H   H10       1.0  0.52310  0.58670  0.34080  1.0000 0.1116613834
H   H11       1.0  0.41330  0.47690  0.84080  1.0000 0.1116613834
H   H12       1.0  0.47690  0.41330  0.65920  1.0000 0.1116613834
H   H13       1.0  0.65200  0.71820  0.17430  1.0000 0.1116613834
H   H14       1.0  0.71820  0.65200  0.32570  1.0000 0.1116613834
H   H15       1.0  0.34800  0.28180  0.82570  1.0000 0.1116613834
H   H16       1.0  0.28180  0.34800  0.67430  1.0000 0.1116613834
H   H17       1.0  0.51430  0.74750  0.11410  1.0000 0.1216275295
H   H18       1.0  0.74750  0.51430  0.38590  1.0000 0.1216275295
H   H19       1.0  0.48570  0.25250  0.88590  1.0000 0.1216275295
H   H20       1.0  0.25250  0.48570  0.61410  1.0000 0.1216275295
H   H21       1.0  0.31480  0.58240  0.03710  1.0000 0.1216275295
H   H22       1.0  0.58240  0.31480  0.46290  1.0000 0.1216275295
H   H23       1.0  0.68520  0.41760  0.96290  1.0000 0.1216275295
H   H24       1.0  0.41760  0.68520  0.53710  1.0000 0.1216275295
H   H25       1.0  0.13240  0.27820  0.03370  1.0000 0.1291970419
H   H26       1.0  0.27820  0.13240  0.46630  1.0000 0.1291970419
H   H27       1.0  0.86760  0.72180  0.96630  1.0000 0.1291970419
H   H28       1.0  0.72180  0.86760  0.53370  1.0000 0.1291970419
H   H29       1.0  0.21900  0.31400  0.96840  1.0000 0.1216275295
H   H30       1.0  0.31400  0.21900  0.53160  1.0000 0.1216275295
H   H31       1.0  0.78100  0.68600  0.03160  1.0000 0.1216275295
H   H32       1.0  0.68600  0.78100  0.46840  1.0000 0.1216275295
H   H33       1.0  0.44190  0.33590  0.04880  1.0000 0.1216275295
H   H34       1.0  0.33590  0.44190  0.45120  1.0000 0.1216275295
H   H35       1.0  0.55810  0.66410  0.95120  1.0000 0.1216275295
H   H36       1.0  0.66410  0.55810  0.54880  1.0000 0.1216275295
H   H37       1.0  0.28800  0.24820  0.04850  1.0000 0.1216275295
H   H38       1.0  0.24820  0.28800  0.45150  1.0000 0.1216275295
H   H39       1.0  0.71200  0.75180  0.95150  1.0000 0.1216275295
H   H40       1.0  0.75180  0.71200  0.54850  1.0000 0.1216275295
H   H41       1.0  0.18850  0.57730  0.78730  1.0000 0.1216275295
H   H42       1.0  0.57730  0.18850  0.71270  1.0000 0.1216275295
H   H43       1.0  0.81150  0.42270  0.21270  1.0000 0.1216275295
H   H44       1.0  0.42270  0.81150  0.28730  1.0000 0.1216275295
H   H45       1.0  0.99890  0.33950  0.97690  1.0000 0.1291970419
H   H46       1.0  0.33950  0.99890  0.52310  1.0000 0.1291970419
H   H47       1.0  0.00110  0.66050  0.02310  1.0000 0.1291970419
H   H48       1.0  0.66050  0.00110  0.47690  1.0000 0.1291970419
H   H49       1.0  0.24040  0.05440  0.31460  1.0000 0.1116613834
H   H50       1.0  0.05440  0.24040  0.18540  1.0000 0.1116613834
H   H51       1.0  0.75960  0.94560  0.68540  1.0000 0.1116613834
H   H52       1.0  0.94560  0.75960  0.81460  1.0000 0.1116613834
H   H53       1.0  0.54210  0.28770  0.18120  1.0000 0.1216275295
H   H54       1.0  0.28770  0.54210  0.31880  1.0000 0.1216275295
H   H55       1.0  0.45790  0.71230  0.81880  1.0000 0.1216275295
H   H56       1.0  0.71230  0.45790  0.68120  1.0000 0.1216275295
H   H57       1.0  0.80340  0.38240  0.55320  1.0000 0.1116613834
H   H58       1.0  0.38240  0.80340  0.94680  1.0000 0.1116613834
H   H59       1.0  0.19660  0.61760  0.44680  1.0000 0.1116613834
H   H60       1.0  0.61760  0.19660  0.05320  1.0000 0.1116613834
C   C1        1.0  0.33090  0.45370  0.05170  1.0000 0.0462958388
C   C2        1.0  0.45370  0.33090  0.44830  1.0000 0.0462958388
C   C3        1.0  0.66910  0.54630  0.94830  1.0000 0.0462958388
C   C4        1.0  0.54630  0.66910  0.55170  1.0000 0.0462958388
C   C5        1.0  0.41190  0.43410  0.09010  1.0000 0.0462958388
C   C6        1.0  0.43410  0.41190  0.40990  1.0000 0.0462958388
C   C7        1.0  0.58810  0.56590  0.90990  1.0000 0.0462958388
C   C8        1.0  0.56590  0.58810  0.59010  1.0000 0.0462958388
C   C9        1.0  0.53110  0.53450  0.13460  1.0000 -0.1714121314
C   C10       1.0  0.53450  0.53110  0.36540  1.0000 -0.1714121314
C   C11       1.0  0.46890  0.46550  0.86540  1.0000 -0.1714121314
C   C12       1.0  0.46550  0.46890  0.63460  1.0000 -0.1714121314
C   C13       1.0  0.57090  0.65190  0.14390  1.0000 -0.0993120452
C   C14       1.0  0.65190  0.57090  0.35610  1.0000 -0.0993120452
C   C15       1.0  0.42910  0.34810  0.85610  1.0000 -0.0993120452
C   C16       1.0  0.34810  0.42910  0.64390  1.0000 -0.0993120452
C   C17       1.0  0.48950  0.66970  0.10780  1.0000 -0.0881029876
C   C18       1.0  0.66970  0.48950  0.39220  1.0000 -0.0881029876
C   C19       1.0  0.51050  0.33030  0.89220  1.0000 -0.0881029876
C   C20       1.0  0.33030  0.51050  0.60780  1.0000 -0.0881029876
C   C21       1.0  0.36990  0.57030  0.06170  1.0000 -0.1594019743
C   C22       1.0  0.57030  0.36990  0.43830  1.0000 -0.1594019743
C   C23       1.0  0.63010  0.42970  0.93830  1.0000 -0.1594019743
C   C24       1.0  0.42970  0.63010  0.56170  1.0000 -0.1594019743
C   C25       1.0  0.20420  0.35140  0.99830  1.0000 -0.1955274125
C   C26       1.0  0.35140  0.20420  0.50170  1.0000 -0.1955274125
C   C27       1.0  0.79580  0.64860  0.00170  1.0000 -0.1955274125
C   C28       1.0  0.64860  0.79580  0.49830  1.0000 -0.1955274125
C   C29       1.0  0.37580  0.30980  0.07980  1.0000 -0.1955274125
C   C30       1.0  0.30980  0.37580  0.42020  1.0000 -0.1955274125
C   C31       1.0  0.62420  0.69020  0.92020  1.0000 -0.1955274125
C   C32       1.0  0.69020  0.62420  0.57980  1.0000 -0.1955274125
C   C33       1.0  0.16380  0.52000  0.83590  1.0000 0.1580946384
C   C34       1.0  0.52000  0.16380  0.66410  1.0000 0.1580946384
C   C35       1.0  0.83620  0.48000  0.16410  1.0000 0.1580946384
C   C36       1.0  0.48000  0.83620  0.33590  1.0000 0.1580946384
C   C37       1.0  0.06070  0.39230  0.93720  1.0000 0.1216275295
C   C38       1.0  0.39230  0.06070  0.56280  1.0000 0.1216275295
C   C39       1.0  0.93930  0.60770  0.06280  1.0000 0.1216275295
C   C40       1.0  0.60770  0.93930  0.43720  1.0000 0.1216275295
C   C41       1.0  0.29620  0.11340  0.27200  1.0000 0.1430594711
C   C42       1.0  0.11340  0.29620  0.22800  1.0000 0.1430594711
C   C43       1.0  0.70380  0.88660  0.72800  1.0000 0.1430594711
C   C44       1.0  0.88660  0.70380  0.77200  1.0000 0.1430594711
C   C45       1.0  0.46020  0.23980  0.20030  1.0000 0.0945874242
C   C46       1.0  0.23980  0.46020  0.29970  1.0000 0.0945874242
C   C47       1.0  0.53980  0.76020  0.79970  1.0000 0.0945874242
C   C48       1.0  0.76020  0.53980  0.70030  1.0000 0.0945874242
C   C49       1.0  0.12430  0.60730  0.54100  1.0000 -0.0499724546
C   C50       1.0  0.60730  0.12430  0.95900  1.0000 -0.0499724546
C   C51       1.0  0.87570  0.39270  0.45900  1.0000 -0.0499724546
C   C52       1.0  0.39270  0.87570  0.04100  1.0000 -0.0499724546
C   C53       1.0  0.00310  0.53590  0.57250  1.0000 -0.0160081355
C   C54       1.0  0.53590  0.00310  0.92750  1.0000 -0.0160081355
C   C55       1.0  0.99690  0.46410  0.42750  1.0000 -0.0160081355
C   C56       1.0  0.46410  0.99690  0.07250  1.0000 -0.0160081355
C   C57       1.0  0.88360  0.43080  0.53140  1.0000 -0.1549380036
C   C58       1.0  0.43080  0.88360  0.96860  1.0000 -0.1549380036
C   C59       1.0  0.11640  0.56920  0.46860  1.0000 -0.1549380036
C   C60       1.0  0.56920  0.11640  0.03140  1.0000 -0.1549380036
C   C61       1.0  0.25830  0.71650  0.58490  1.0000 0.550476828
C   C62       1.0  0.71650  0.25830  0.91510  1.0000 0.550476828
C   C63       1.0  0.74170  0.28350  0.41510  1.0000 0.550476828
C   C64       1.0  0.28350  0.74170  0.08490  1.0000 0.550476828
C   C65       1.0  0.00190  0.57530  0.64810  1.0000 0.5799530832
C   C66       1.0  0.57530  0.00190  0.85190  1.0000 0.5799530832
C   C67       1.0  0.99810  0.42470  0.35190  1.0000 0.5799530832
C   C68       1.0  0.42470  0.99810  0.14810  1.0000 0.5799530832
N   N1        1.0  0.16050  0.40590  0.93930  1.0000 0.1580946384
N   N2        1.0  0.40590  0.16050  0.56070  1.0000 0.1580946384
N   N3        1.0  0.83950  0.59410  0.06070  1.0000 0.1580946384
N   N4        1.0  0.59410  0.83950  0.43930  1.0000 0.1580946384
N   N5        1.0  0.23210  0.49150  0.87250  1.0000 -0.2823898705
N   N6        1.0  0.49150  0.23210  0.62750  1.0000 -0.2823898705
N   N7        1.0  0.76790  0.50850  0.12750  1.0000 -0.2823898705
N   N8        1.0  0.50850  0.76790  0.37250  1.0000 -0.2823898705
N   N9        1.0  0.05800  0.46180  0.87270  1.0000 -0.3213241832
N   N10       1.0  0.46180  0.05800  0.62730  1.0000 -0.3213241832
N   N11       1.0  0.94200  0.53820  0.12730  1.0000 -0.3213241832
N   N12       1.0  0.53820  0.94200  0.37270  1.0000 -0.3213241832
N   N13       1.0  0.37200  0.24040  0.16100  1.0000 0.1778545616
N   N14       1.0  0.24040  0.37200  0.33900  1.0000 0.1778545616
N   N15       1.0  0.62800  0.75960  0.83900  1.0000 0.1778545616
N   N16       1.0  0.75960  0.62800  0.66100  1.0000 0.1778545616
N   N17       1.0  0.26490  0.15930  0.20540  1.0000 -0.2464329699
N   N18       1.0  0.15930  0.26490  0.29460  1.0000 -0.2464329699
N   N19       1.0  0.73510  0.84070  0.79460  1.0000 -0.2464329699
N   N20       1.0  0.84070  0.73510  0.70540  1.0000 -0.2464329699
N   N21       1.0  0.41680  0.16140  0.27110  1.0000 -0.3213241832
N   N22       1.0  0.16140  0.41680  0.22890  1.0000 -0.3213241832
N   N23       1.0  0.58320  0.83860  0.72890  1.0000 -0.3213241832
N   N24       1.0  0.83860  0.58320  0.77110  1.0000 -0.3213241832
O   O1        1.0  0.35690  0.81590  0.54250  1.0000 -0.5722722249
O   O2        1.0  0.81590  0.35690  0.95750  1.0000 -0.5722722249
O   O3        1.0  0.64310  0.18410  0.45750  1.0000 -0.5722722249
O   O4        1.0  0.18410  0.64310  0.04250  1.0000 -0.5722722249
O   O5        1.0  0.27250  0.70910  0.66190  1.0000 -0.5196187111
O   O6        1.0  0.70910  0.27250  0.83810  1.0000 -0.5196187111
O   O7        1.0  0.72750  0.29090  0.33810  1.0000 -0.5196187111
O   O8        1.0  0.29090  0.72750  0.16190  1.0000 -0.5196187111
O   O9        1.0  0.93930  0.48070  0.70570  1.0000 -0.5865802975
O   O10       1.0  0.48070  0.93930  0.79430  1.0000 -0.5865802975
O   O11       1.0  0.06070  0.51930  0.29430  1.0000 -0.5865802975
O   O12       1.0  0.51930  0.06070  0.20570  1.0000 -0.5865802975
O   O13       1.0  0.05310  0.69030  0.64820  1.0000 -0.5722722249
O   O14       1.0  0.69030  0.05310  0.85180  1.0000 -0.5722722249
O   O15       1.0  0.94690  0.30970  0.35180  1.0000 -0.5722722249
O   O16       1.0  0.30970  0.94690  0.14820  1.0000 -0.5722722249
O   O17       1.0  0.08410  0.68910  0.89930  1.0000 -0.6759801121
O   O18       1.0  0.68910  0.08410  0.60070  1.0000 -0.6759801121
O   O19       1.0  0.91590  0.31090  0.10070  1.0000 -0.6759801121
O   O20       1.0  0.31090  0.91590  0.39930  1.0000 -0.6759801121
