# DDEC6 charges by PACMAN v1.1 (https://github.com/mtap-research/PACMAN-charge/)
data_2016[Ni][nan]3[FSR]1
_chemical_formula_sum              "Ni6 H6 C24 O18"
_cell_length_a       15.0387
_cell_length_b       15.0387
_cell_length_c       15.0387
_cell_angle_alpha    117.799
_cell_angle_beta     117.799
_cell_angle_gamma    117.799

_symmetry_space_group_name_H-M    "P 1"
_symmetry_Int_Tables_number       1

loop_
  _symmetry_equiv_pos_as_xyz
  'x, y, z'

loop_
  _atom_site_type_symbol
  _atom_site_label
  _atom_site_symmetry_multiplicity
  _atom_site_fract_x
  _atom_site_fract_y
  _atom_site_fract_z
  _atom_site_occupancy
  _atom_site_charge
Ni  Ni1       1.0  0.38215  0.97152  0.70503  1.0000 0.8628286237
Ni  Ni2       1.0  0.97152  0.70503  0.38215  1.0000 0.8628286237
Ni  Ni3       1.0  0.70503  0.38215  0.97152  1.0000 0.8628286237
Ni  Ni4       1.0  0.61785  0.02848  0.29497  1.0000 0.8628286237
Ni  Ni5       1.0  0.02848  0.29497  0.61785  1.0000 0.8628286237
Ni  Ni6       1.0  0.29497  0.61785  0.02848  1.0000 0.8628286237
H   H1        1.0  0.29290  0.85566  0.83441  1.0000 0.1588838661
H   H2        1.0  0.85566  0.83441  0.29290  1.0000 0.1588838661
H   H3        1.0  0.83441  0.29290  0.85566  1.0000 0.1588838661
H   H4        1.0  0.70710  0.14434  0.16559  1.0000 0.1588838661
H   H5        1.0  0.14434  0.16559  0.70710  1.0000 0.1588838661
H   H6        1.0  0.16559  0.70710  0.14434  1.0000 0.1588838661
C   C1        1.0  0.24468  0.67290  0.84790  1.0000 0.6046868676
C   C2        1.0  0.67290  0.84790  0.24468  1.0000 0.6046868676
C   C3        1.0  0.84790  0.24468  0.67290  1.0000 0.6052876824
C   C4        1.0  0.75532  0.32710  0.15210  1.0000 0.6052876824
C   C5        1.0  0.32710  0.15210  0.75532  1.0000 0.6052876824
C   C6        1.0  0.15210  0.75532  0.32710  1.0000 0.6046868676
C   C7        1.0  0.10946  0.58073  0.66525  1.0000 -0.1378412084
C   C8        1.0  0.58073  0.66525  0.10946  1.0000 -0.1378412084
C   C9        1.0  0.66525  0.10946  0.58073  1.0000 -0.1378412084
C   C10       1.0  0.89054  0.41927  0.33475  1.0000 -0.1378412084
C   C11       1.0  0.41927  0.33475  0.89054  1.0000 -0.1378412084
C   C12       1.0  0.33475  0.89054  0.41927  1.0000 -0.1378412084
C   C13       1.0  0.06879  0.63814  0.53036  1.0000 0.3015259617
C   C14       1.0  0.63814  0.53036  0.06879  1.0000 0.3015259617
C   C15       1.0  0.53036  0.06879  0.63814  1.0000 0.3015259617
C   C16       1.0  0.93121  0.36186  0.46964  1.0000 0.3015259617
C   C17       1.0  0.36186  0.46964  0.93121  1.0000 0.3015259617
C   C18       1.0  0.46964  0.93121  0.36186  1.0000 0.3015259617
C   C19       1.0  0.17443  0.71200  0.69727  1.0000 -0.1909879556
C   C20       1.0  0.71200  0.69727  0.17443  1.0000 -0.1909879556
C   C21       1.0  0.69727  0.17443  0.71200  1.0000 -0.1909879556
C   C22       1.0  0.82557  0.28800  0.30273  1.0000 -0.1909879556
C   C23       1.0  0.28800  0.30273  0.82557  1.0000 -0.1909879556
C   C24       1.0  0.30273  0.82557  0.28800  1.0000 -0.1909879556
O   O1        1.0  0.40690  0.87490  0.02933  1.0000 -0.5315606084
O   O2        1.0  0.87490  0.02933  0.40690  1.0000 -0.5315606084
O   O3        1.0  0.02933  0.40690  0.87490  1.0000 -0.5315606084
O   O4        1.0  0.59310  0.12510  0.97067  1.0000 -0.5315606084
O   O5        1.0  0.12510  0.97067  0.59310  1.0000 -0.5315606084
O   O6        1.0  0.97067  0.59310  0.12510  1.0000 -0.5315606084
O   O7        1.0  0.21482  0.58700  0.85279  1.0000 -0.5026603725
O   O8        1.0  0.58700  0.85279  0.21482  1.0000 -0.5026603725
O   O9        1.0  0.85279  0.21482  0.58700  1.0000 -0.5026603725
O   O10       1.0  0.78518  0.41300  0.14721  1.0000 -0.5026603725
O   O11       1.0  0.41300  0.14721  0.78518  1.0000 -0.5026603725
O   O12       1.0  0.14721  0.78518  0.41300  1.0000 -0.5026603725
O   O13       1.0  0.12764  0.77107  0.57382  1.0000 -0.5654308683
O   O14       1.0  0.77107  0.57382  0.12764  1.0000 -0.5646650082
O   O15       1.0  0.57382  0.12764  0.77107  1.0000 -0.5654308683
O   O16       1.0  0.87236  0.22893  0.42618  1.0000 -0.5646650082
O   O17       1.0  0.22893  0.42618  0.87236  1.0000 -0.5654308683
O   O18       1.0  0.42618  0.87236  0.22893  1.0000 -0.5654308683
