# DDEC6 charges by PACMAN v1.1 (https://github.com/mtap-research/PACMAN-charge/)
data_2016[Zn][pcu]3[FSR]9
_chemical_formula_sum              "Zn4 H88 C156 N4 O16"
_cell_length_a       23.3689
_cell_length_b       23.3689
_cell_length_c       14.974
_cell_angle_alpha    86.201
_cell_angle_beta     93.799
_cell_angle_gamma    142.519

_symmetry_space_group_name_H-M    "P 1"
_symmetry_Int_Tables_number       1

loop_
  _symmetry_equiv_pos_as_xyz
  'x, y, z'

loop_
  _atom_site_type_symbol
  _atom_site_label
  _atom_site_symmetry_multiplicity
  _atom_site_fract_x
  _atom_site_fract_y
  _atom_site_fract_z
  _atom_site_occupancy
  _atom_site_charge
Zn  Zn1       1.0  0.53257  0.96631  0.00436  1.0000 0.8020222418
Zn  Zn2       1.0  0.96631  0.53257  0.49564  1.0000 0.8020222418
Zn  Zn3       1.0  0.46743  0.03369  0.99564  1.0000 0.8020222418
Zn  Zn4       1.0  0.03369  0.46743  0.50436  1.0000 0.8020222418
H   H1        1.0  0.27010  0.67930  0.55430  1.0000 0.119445923
H   H2        1.0  0.67930  0.27010  0.94570  1.0000 0.119445923
H   H3        1.0  0.72990  0.32070  0.44570  1.0000 0.119445923
H   H4        1.0  0.32070  0.72990  0.05430  1.0000 0.119445923
H   H5        1.0  0.11140  0.61980  0.99490  1.0000 0.112053173
H   H6        1.0  0.61980  0.11140  0.50510  1.0000 0.112053173
H   H7        1.0  0.88860  0.38020  0.00510  1.0000 0.112053173
H   H8        1.0  0.38020  0.88860  0.49490  1.0000 0.112053173
H   H9        1.0  0.03970  0.55110  0.73570  1.0000 0.119445923
H   H10       1.0  0.55110  0.03970  0.76430  1.0000 0.119445923
H   H11       1.0  0.96030  0.44890  0.26430  1.0000 0.119445923
H   H12       1.0  0.44890  0.96030  0.23570  1.0000 0.119445923
H   H13       1.0  0.18290  0.79050  0.54090  1.0000 0.1282072091
H   H14       1.0  0.79050  0.18290  0.95910  1.0000 0.1282072091
H   H15       1.0  0.81710  0.20950  0.45910  1.0000 0.1282072091
H   H16       1.0  0.20950  0.81710  0.04090  1.0000 0.1282072091
H   H17       1.0  0.00020  0.51100  0.88580  1.0000 0.112053173
H   H18       1.0  0.51100  0.00020  0.61420  1.0000 0.112053173
H   H19       1.0  0.99980  0.48900  0.11420  1.0000 0.112053173
H   H20       1.0  0.48900  0.99980  0.38580  1.0000 0.112053173
H   H21       1.0  0.41380  0.00840  0.75600  1.0000 0.119445923
H   H22       1.0  0.00840  0.41380  0.74400  1.0000 0.119445923
H   H23       1.0  0.58620  0.99160  0.24400  1.0000 0.119445923
H   H24       1.0  0.99160  0.58620  0.25600  1.0000 0.119445923
H   H25       1.0  0.37970  0.04990  0.64120  1.0000 0.112053173
H   H26       1.0  0.04990  0.37970  0.85880  1.0000 0.112053173
H   H27       1.0  0.62030  0.95010  0.35880  1.0000 0.112053173
H   H28       1.0  0.95010  0.62030  0.14120  1.0000 0.112053173
H   H29       1.0  0.26470  0.94190  0.53430  1.0000 0.112053173
H   H30       1.0  0.94190  0.26470  0.96570  1.0000 0.112053173
H   H31       1.0  0.73530  0.05810  0.46570  1.0000 0.112053173
H   H32       1.0  0.05810  0.73530  0.03430  1.0000 0.112053173
H   H33       1.0  0.49390  0.89190  0.77640  1.0000 0.119445923
H   H34       1.0  0.89190  0.49390  0.72360  1.0000 0.119445923
H   H35       1.0  0.50610  0.10810  0.22360  1.0000 0.119445923
H   H36       1.0  0.10810  0.50610  0.27640  1.0000 0.119445923
H   H37       1.0  0.49230  0.85030  0.14950  1.0000 0.112053173
H   H38       1.0  0.85030  0.49230  0.35050  1.0000 0.112053173
H   H39       1.0  0.50770  0.14970  0.85050  1.0000 0.112053173
H   H40       1.0  0.14970  0.50770  0.64950  1.0000 0.112053173
H   H41       1.0  0.26280  0.76640  0.95440  1.0000 0.119445923
H   H42       1.0  0.76640  0.26280  0.54560  1.0000 0.119445923
H   H43       1.0  0.73720  0.23360  0.04560  1.0000 0.119445923
H   H44       1.0  0.23360  0.73720  0.45440  1.0000 0.119445923
H   H45       1.0  0.52080  0.84340  0.67630  1.0000 0.112053173
H   H46       1.0  0.84340  0.52080  0.82370  1.0000 0.112053173
H   H47       1.0  0.47920  0.15660  0.32370  1.0000 0.112053173
H   H48       1.0  0.15660  0.47920  0.17630  1.0000 0.112053173
H   H49       1.0  0.54830  0.80850  0.21140  1.0000 0.1357880465
H   H50       1.0  0.80850  0.54830  0.28860  1.0000 0.1357880465
H   H51       1.0  0.45170  0.19150  0.78860  1.0000 0.1357880465
H   H52       1.0  0.19150  0.45170  0.71140  1.0000 0.1357880465
H   H53       1.0  0.41120  0.74020  0.56450  1.0000 0.112053173
H   H54       1.0  0.74020  0.41120  0.93550  1.0000 0.112053173
H   H55       1.0  0.58880  0.25980  0.43550  1.0000 0.112053173
H   H56       1.0  0.25980  0.58880  0.06450  1.0000 0.112053173
H   H57       1.0  0.71050  0.92670  0.99580  1.0000 0.1453151039
H   H58       1.0  0.92670  0.71050  0.50420  1.0000 0.1453151039
H   H59       1.0  0.28950  0.07330  0.00420  1.0000 0.1453151039
H   H60       1.0  0.07330  0.28950  0.49580  1.0000 0.1453151039
H   H61       1.0  0.65230  0.96830  0.94060  1.0000 0.119445923
H   H62       1.0  0.96830  0.65230  0.55940  1.0000 0.119445923
H   H63       1.0  0.34770  0.03170  0.05940  1.0000 0.119445923
H   H64       1.0  0.03170  0.34770  0.44060  1.0000 0.119445923
H   H65       1.0  0.87360  0.97360  0.19140  1.0000 0.1282072091
H   H66       1.0  0.97360  0.87360  0.30860  1.0000 0.1357880465
H   H67       1.0  0.12640  0.02640  0.80860  1.0000 0.1357880465
H   H68       1.0  0.02640  0.12640  0.69140  1.0000 0.1357880465
H   H69       1.0  0.60350  0.73450  0.33300  1.0000 0.1282072091
H   H70       1.0  0.73450  0.60350  0.16700  1.0000 0.1282072091
H   H71       1.0  0.39650  0.26550  0.66700  1.0000 0.1282072091
H   H72       1.0  0.26550  0.39650  0.83300  1.0000 0.1282072091
H   H73       1.0  0.54540  0.64860  0.46670  1.0000 0.119445923
H   H74       1.0  0.64860  0.54540  0.03330  1.0000 0.119445923
H   H75       1.0  0.45460  0.35140  0.53330  1.0000 0.119445923
H   H76       1.0  0.35140  0.45460  0.96670  1.0000 0.119445923
H   H77       1.0  0.59240  0.59560  0.52360  1.0000 0.119445923
H   H78       1.0  0.59560  0.59240  0.97640  1.0000 0.112053173
H   H79       1.0  0.40760  0.40440  0.47640  1.0000 0.112053173
H   H80       1.0  0.40440  0.40760  0.02360  1.0000 0.112053173
H   H81       1.0  0.03280  0.08320  0.22070  1.0000 0.112053173
H   H82       1.0  0.08320  0.03280  0.27930  1.0000 0.112053173
H   H83       1.0  0.96720  0.91680  0.77930  1.0000 0.112053173
H   H84       1.0  0.91680  0.96720  0.72070  1.0000 0.112053173
H   H85       1.0  0.62970  0.70030  0.05610  1.0000 0.1282072091
H   H86       1.0  0.70030  0.62970  0.44390  1.0000 0.1282072091
H   H87       1.0  0.37030  0.29970  0.94390  1.0000 0.1282072091
H   H88       1.0  0.29970  0.37030  0.55610  1.0000 0.1282072091
C   C1        1.0  0.25091  0.81029  0.65210  1.0000 0.0308013753
C   C2        1.0  0.81029  0.25091  0.84790  1.0000 0.0308013753
C   C3        1.0  0.74909  0.18971  0.34790  1.0000 0.0308013753
C   C4        1.0  0.18971  0.74909  0.15210  1.0000 0.0308013753
C   C5        1.0  0.17475  0.68185  0.75690  1.0000 0.0358426206
C   C6        1.0  0.68185  0.17475  0.74310  1.0000 0.0358426206
C   C7        1.0  0.82525  0.31815  0.24310  1.0000 0.0358426206
C   C8        1.0  0.31815  0.82525  0.25690  1.0000 0.0358426206
C   C9        1.0  0.21113  0.71807  0.66200  1.0000 -0.062315928
C   C10       1.0  0.71807  0.21113  0.83800  1.0000 -0.062315928
C   C11       1.0  0.78887  0.28193  0.33800  1.0000 -0.062315928
C   C12       1.0  0.28193  0.78887  0.16200  1.0000 -0.062315928
C   C13       1.0  0.33650  0.83790  0.78410  1.0000 -0.062315928
C   C14       1.0  0.83790  0.33650  0.71590  1.0000 -0.062315928
C   C15       1.0  0.66350  0.16210  0.21590  1.0000 -0.062315928
C   C16       1.0  0.16210  0.66350  0.28410  1.0000 -0.062315928
C   C17       1.0  0.24064  0.74556  0.82080  1.0000 0.0358426206
C   C18       1.0  0.74556  0.24064  0.67920  1.0000 0.0358426206
C   C19       1.0  0.75936  0.25444  0.17920  1.0000 0.0358426206
C   C20       1.0  0.25444  0.75936  0.32080  1.0000 0.0358426206
C   C21       1.0  0.36473  0.81207  0.72670  1.0000 0.0308013753
C   C22       1.0  0.81207  0.36473  0.77330  1.0000 0.0308013753
C   C23       1.0  0.63527  0.18793  0.27330  1.0000 0.0308013753
C   C24       1.0  0.18793  0.63527  0.22670  1.0000 0.0308013753
C   C25       1.0  0.29768  0.74832  0.66030  1.0000 0.0308013753
C   C26       1.0  0.74832  0.29768  0.83970  1.0000 0.0308013753
C   C27       1.0  0.70232  0.25168  0.33970  1.0000 0.0308013753
C   C28       1.0  0.25168  0.70232  0.16030  1.0000 0.0308013753
C   C29       1.0  0.31513  0.72207  0.60000  1.0000 -0.1399927824
C   C30       1.0  0.72207  0.31513  0.90000  1.0000 -0.1399927824
C   C31       1.0  0.68487  0.27793  0.40000  1.0000 -0.1399927824
C   C32       1.0  0.27793  0.68487  0.10000  1.0000 -0.1399927824
C   C33       1.0  0.31904  0.87496  0.71680  1.0000 0.0308013753
C   C34       1.0  0.87496  0.31904  0.78320  1.0000 0.0308013753
C   C35       1.0  0.68096  0.12504  0.28320  1.0000 0.0308013753
C   C36       1.0  0.12504  0.68096  0.21680  1.0000 0.0308013753
C   C37       1.0  0.12770  0.63550  0.93360  1.0000 -0.0901636269
C   C38       1.0  0.63550  0.12770  0.56640  1.0000 -0.0901636269
C   C39       1.0  0.87230  0.36450  0.06640  1.0000 -0.0901636269
C   C40       1.0  0.36450  0.87230  0.43360  1.0000 -0.0901636269
C   C41       1.0  0.08537  0.59503  0.78060  1.0000 -0.1399927824
C   C42       1.0  0.59503  0.08537  0.71940  1.0000 -0.1399927824
C   C43       1.0  0.91463  0.40497  0.21940  1.0000 -0.1399927824
C   C44       1.0  0.40497  0.91463  0.28060  1.0000 -0.1399927824
C   C45       1.0  0.23028  0.83492  0.58470  1.0000 -0.1399927824
C   C46       1.0  0.83492  0.23028  0.91530  1.0000 -0.1399927824
C   C47       1.0  0.76972  0.16508  0.41530  1.0000 -0.1399927824
C   C48       1.0  0.16508  0.76972  0.08470  1.0000 -0.1399927824
C   C49       1.0  0.06190  0.57150  0.86920  1.0000 -0.0901636269
C   C50       1.0  0.57150  0.06190  0.63080  1.0000 -0.0901636269
C   C51       1.0  0.93810  0.42850  0.13080  1.0000 -0.0901636269
C   C52       1.0  0.42850  0.93810  0.36920  1.0000 -0.0901636269
C   C53       1.0  0.36668  0.96372  0.71210  1.0000 -0.1321895041
C   C54       1.0  0.96372  0.36668  0.78790  1.0000 -0.1321895041
C   C55       1.0  0.63332  0.03628  0.28790  1.0000 -0.1321895041
C   C56       1.0  0.03628  0.63332  0.21210  1.0000 -0.1321895041
C   C57       1.0  0.34642  0.98818  0.64440  1.0000 -0.1094875462
C   C58       1.0  0.98818  0.34642  0.85560  1.0000 -0.1094875462
C   C59       1.0  0.65358  0.01182  0.35560  1.0000 -0.1094875462
C   C60       1.0  0.01182  0.65358  0.14440  1.0000 -0.1094875462
C   C61       1.0  0.39963  0.89877  0.86420  1.0000 0.5653343729
C   C62       1.0  0.89877  0.39963  0.63580  1.0000 0.5653343729
C   C63       1.0  0.60037  0.10123  0.13580  1.0000 0.5653343729
C   C64       1.0  0.10123  0.60037  0.36420  1.0000 0.5653343729
C   C65       1.0  0.12964  0.63996  0.60000  1.0000 0.5623553924
C   C66       1.0  0.63996  0.12964  0.90000  1.0000 0.5623553924
C   C67       1.0  0.87036  0.36004  0.40000  1.0000 0.5623553924
C   C68       1.0  0.36004  0.87036  0.10000  1.0000 0.5623553924
C   C69       1.0  0.27856  0.92444  0.58100  1.0000 -0.1094875462
C   C70       1.0  0.92444  0.27856  0.91900  1.0000 -0.1094875462
C   C71       1.0  0.72144  0.07556  0.41900  1.0000 -0.1094875462
C   C72       1.0  0.07556  0.72144  0.08100  1.0000 -0.1094875462
C   C73       1.0  0.44783  0.84797  0.73180  1.0000 -0.1399927824
C   C74       1.0  0.84797  0.44783  0.76820  1.0000 -0.1399927824
C   C75       1.0  0.55217  0.15203  0.26820  1.0000 -0.1399927824
C   C76       1.0  0.15203  0.55217  0.23180  1.0000 -0.1399927824
C   C77       1.0  0.53816  0.86664  0.11830  1.0000 0.0766777962
C   C78       1.0  0.86664  0.53816  0.38170  1.0000 0.0766777962
C   C79       1.0  0.46184  0.13336  0.88170  1.0000 0.0766777962
C   C80       1.0  0.13336  0.46184  0.61830  1.0000 0.0766777962
C   C81       1.0  0.21719  0.72241  0.90960  1.0000 -0.1399927824
C   C82       1.0  0.72241  0.21719  0.59040  1.0000 -0.1399927824
C   C83       1.0  0.78281  0.27759  0.09040  1.0000 -0.1399927824
C   C84       1.0  0.27759  0.78281  0.40960  1.0000 -0.1399927824
C   C85       1.0  0.46410  0.81990  0.67190  1.0000 -0.1094875462
C   C86       1.0  0.81990  0.46410  0.82810  1.0000 -0.1094875462
C   C87       1.0  0.53590  0.18010  0.32810  1.0000 -0.1094875462
C   C88       1.0  0.18010  0.53590  0.17190  1.0000 -0.1094875462
C   C89       1.0  0.57036  0.84104  0.15520  1.0000 -0.2005704429
C   C90       1.0  0.84104  0.57036  0.34480  1.0000 -0.2005704429
C   C91       1.0  0.42964  0.15896  0.84480  1.0000 -0.2005704429
C   C92       1.0  0.15896  0.42964  0.65520  1.0000 -0.2005704429
C   C93       1.0  0.39889  0.75831  0.60620  1.0000 -0.1094875462
C   C94       1.0  0.75831  0.39889  0.89380  1.0000 -0.1094875462
C   C95       1.0  0.60111  0.24169  0.39380  1.0000 -0.1094875462
C   C96       1.0  0.24169  0.60111  0.10620  1.0000 -0.1094875462
C   C97       1.0  0.66577  0.91083  0.02870  1.0000 -0.2005704429
C   C98       1.0  0.91083  0.66577  0.47130  1.0000 -0.2005704429
C   C99       1.0  0.33423  0.08917  0.97130  1.0000 -0.2005704429
C   C100      1.0  0.08917  0.33423  0.52870  1.0000 -0.2005704429
C   C101      1.0  0.63091  0.93509  0.99630  1.0000 0.0766777962
C   C102      1.0  0.93509  0.63091  0.50370  1.0000 0.0766777962
C   C103      1.0  0.36909  0.06491  0.00370  1.0000 0.0766777962
C   C104      1.0  0.06491  0.36909  0.49630  1.0000 0.0766777962
C   C105      1.0  0.67056  0.83744  0.14780  1.0000 -0.1094875462
C   C106      1.0  0.83744  0.67056  0.35220  1.0000 -0.1094875462
C   C107      1.0  0.32944  0.16256  0.85220  1.0000 -0.1094875462
C   C108      1.0  0.16256  0.32944  0.64780  1.0000 -0.1094875462
C   C109      1.0  0.69522  0.81298  0.18050  1.0000 -0.1321895041
C   C110      1.0  0.81298  0.69522  0.31950  1.0000 -0.1321895041
C   C111      1.0  0.30478  0.18702  0.81950  1.0000 -0.1321895041
C   C112      1.0  0.18702  0.30478  0.68050  1.0000 -0.1321895041
C   C113      1.0  0.72610  0.78170  0.21830  1.0000 0.0461661143
C   C114      1.0  0.78170  0.72610  0.28170  1.0000 0.0461661143
C   C115      1.0  0.27390  0.21830  0.78170  1.0000 0.0461661143
C   C116      1.0  0.21830  0.27390  0.71830  1.0000 0.0461661143
C   C117      1.0  0.68351  0.72989  0.30760  1.0000 0.0308013753
C   C118      1.0  0.72989  0.68351  0.19240  1.0000 0.0308013753
C   C119      1.0  0.31649  0.27011  0.69240  1.0000 0.0308013753
C   C120      1.0  0.27011  0.31649  0.80760  1.0000 0.0308013753
C   C121      1.0  0.69956  0.71304  0.15790  1.0000 0.017309476
C   C122      1.0  0.71304  0.69956  0.34210  1.0000 0.017309476
C   C123      1.0  0.30044  0.28696  0.84210  1.0000 0.017309476
C   C124      1.0  0.28696  0.30044  0.65790  1.0000 0.017309476
C   C125      1.0  0.63524  0.86296  0.10990  1.0000 0.1679218121
C   C126      1.0  0.86296  0.63524  0.39010  1.0000 0.1679218121
C   C127      1.0  0.36476  0.13704  0.89010  1.0000 0.1679218121
C   C128      1.0  0.13704  0.36476  0.60990  1.0000 0.1679218121
C   C129      1.0  0.89442  0.95358  0.21540  1.0000 -0.1399927824
C   C130      1.0  0.95358  0.89442  0.28460  1.0000 -0.1399927824
C   C131      1.0  0.10558  0.04642  0.78460  1.0000 -0.1399927824
C   C132      1.0  0.04642  0.10558  0.71540  1.0000 -0.1399927824
C   C133      1.0  0.62255  0.71225  0.35490  1.0000 -0.1399927824
C   C134      1.0  0.71225  0.62255  0.14510  1.0000 -0.1399927824
C   C135      1.0  0.37745  0.28775  0.64510  1.0000 -0.1399927824
C   C136      1.0  0.28775  0.37745  0.85490  1.0000 -0.1399927824
C   C137      1.0  0.58877  0.66183  0.43460  1.0000 -0.1094875462
C   C138      1.0  0.66183  0.58877  0.06540  1.0000 -0.1094875462
C   C139      1.0  0.41123  0.33817  0.56540  1.0000 -0.1094875462
C   C140      1.0  0.33817  0.41123  0.93460  1.0000 -0.1094875462
C   C141      1.0  0.61626  0.63034  0.46860  1.0000 -0.116048611
C   C142      1.0  0.63034  0.61626  0.03140  1.0000 -0.116048611
C   C143      1.0  0.38374  0.36966  0.53140  1.0000 -0.116048611
C   C144      1.0  0.36966  0.38374  0.96860  1.0000 -0.116048611
C   C145      1.0  0.98834  0.01826  0.23260  1.0000 -0.0997613829
C   C146      1.0  0.01826  0.98834  0.26740  1.0000 -0.0997613829
C   C147      1.0  0.01166  0.98174  0.76740  1.0000 -0.0997613829
C   C148      1.0  0.98174  0.01166  0.73260  1.0000 -0.0997613829
C   C149      1.0  0.65046  0.67994  0.07890  1.0000 -0.1460298553
C   C150      1.0  0.67994  0.65046  0.42110  1.0000 -0.1460298553
C   C151      1.0  0.34954  0.32006  0.92110  1.0000 -0.1460298553
C   C152      1.0  0.32006  0.34954  0.57890  1.0000 -0.1460298553
C   C153      1.0  0.83218  0.86202  0.23260  1.0000 0.017309476
C   C154      1.0  0.86202  0.83218  0.26740  1.0000 0.017309476
C   C155      1.0  0.16782  0.13798  0.76740  1.0000 0.017309476
C   C156      1.0  0.13798  0.16782  0.73260  1.0000 0.017309476
N   N1        1.0  0.56796  0.91384  0.04000  1.0000 -0.2103754051
N   N2        1.0  0.91384  0.56796  0.46000  1.0000 -0.2103754051
N   N3        1.0  0.43204  0.08616  0.96000  1.0000 -0.2103754051
N   N4        1.0  0.08616  0.43204  0.54000  1.0000 -0.2103754051
O   O1        1.0  0.44562  0.89428  0.89827  1.0000 -0.5030929215
O   O2        1.0  0.89428  0.44562  0.60173  1.0000 -0.5030929215
O   O3        1.0  0.55438  0.10572  0.10173  1.0000 -0.5030929215
O   O4        1.0  0.10572  0.55438  0.39827  1.0000 -0.5030929215
O   O5        1.0  0.12034  0.58214  0.58158  1.0000 -0.522861264
O   O6        1.0  0.58214  0.12034  0.91842  1.0000 -0.522861264
O   O7        1.0  0.87966  0.41786  0.41842  1.0000 -0.522861264
O   O8        1.0  0.41786  0.87966  0.08158  1.0000 -0.522861264
O   O9        1.0  0.39522  0.94342  0.89309  1.0000 -0.506820447
O   O10       1.0  0.94342  0.39522  0.60691  1.0000 -0.506820447
O   O11       1.0  0.60478  0.05658  0.10691  1.0000 -0.506820447
O   O12       1.0  0.05658  0.60478  0.39309  1.0000 -0.506820447
O   O13       1.0  0.07493  0.63625  0.57670  1.0000 -0.4911887713
O   O14       1.0  0.63625  0.07493  0.92330  1.0000 -0.4911887713
O   O15       1.0  0.92507  0.36375  0.42330  1.0000 -0.4911887713
O   O16       1.0  0.36375  0.92507  0.07670  1.0000 -0.4911887713
