# DDEC6 charges by PACMAN v1.1 (https://github.com/mtap-research/PACMAN-charge/)
data_2016[Ag][nan]3[FSR]5
_chemical_formula_sum              "Ag16 H64 C96 N16 O32"
_cell_length_a       19.7564
_cell_length_b       19.7564
_cell_length_c       19.7564
_cell_angle_alpha    158.964
_cell_angle_beta     106.052
_cell_angle_gamma    77.8858

_symmetry_space_group_name_H-M    "P 1"
_symmetry_Int_Tables_number       1

loop_
  _symmetry_equiv_pos_as_xyz
  'x, y, z'

loop_
  _atom_site_type_symbol
  _atom_site_label
  _atom_site_symmetry_multiplicity
  _atom_site_fract_x
  _atom_site_fract_y
  _atom_site_fract_z
  _atom_site_occupancy
  _atom_site_charge
Ag  Ag1       1.0  0.06070  0.48593  0.96525  1.0000 0.364438852
Ag  Ag2       1.0  0.02068  0.09545  0.53475  1.0000 0.364438852
Ag  Ag3       1.0  0.47932  0.01407  0.07477  1.0000 0.364438852
Ag  Ag4       1.0  0.43930  0.40455  0.42523  1.0000 0.364438852
Ag  Ag5       1.0  0.93930  0.51407  0.03475  1.0000 0.364438852
Ag  Ag6       1.0  0.97932  0.90455  0.46525  1.0000 0.3651146197
Ag  Ag7       1.0  0.52068  0.98593  0.92523  1.0000 0.3651146197
Ag  Ag8       1.0  0.56070  0.59545  0.57477  1.0000 0.364438852
Ag  Ag9       1.0  0.92673  0.01201  0.97042  1.0000 0.408911986
Ag  Ag10      1.0  0.54159  0.95631  0.52958  1.0000 0.408911986
Ag  Ag11      1.0  0.95841  0.48799  0.41472  1.0000 0.408911986
Ag  Ag12      1.0  0.57327  0.54369  0.08528  1.0000 0.408911986
Ag  Ag13      1.0  0.07327  0.98799  0.02958  1.0000 0.408911986
Ag  Ag14      1.0  0.45841  0.04369  0.47042  1.0000 0.408911986
Ag  Ag15      1.0  0.04159  0.51201  0.58528  1.0000 0.408911986
Ag  Ag16      1.0  0.42673  0.45631  0.91472  1.0000 0.408911986
H   H1        1.0  0.19850  0.28250  0.82380  1.0000 0.1201933716
H   H2        1.0  0.95870  0.37470  0.67620  1.0000 0.1201933716
H   H3        1.0  0.54130  0.21750  0.41600  1.0000 0.1201933716
H   H4        1.0  0.30150  0.12530  0.08400  1.0000 0.1201933716
H   H5        1.0  0.80150  0.71750  0.17620  1.0000 0.1201933716
H   H6        1.0  0.04130  0.62530  0.32380  1.0000 0.1201933716
H   H7        1.0  0.45870  0.78250  0.58400  1.0000 0.1201933716
H   H8        1.0  0.69850  0.87470  0.91600  1.0000 0.1201933716
H   H9        1.0  0.31010  0.27050  0.80080  1.0000 0.1201933716
H   H10       1.0  0.96970  0.50930  0.69920  1.0000 0.1201933716
H   H11       1.0  0.53030  0.22950  0.53960  1.0000 0.1201933716
H   H12       1.0  0.18990  0.99070  0.96040  1.0000 0.1201933716
H   H13       1.0  0.68990  0.72950  0.19920  1.0000 0.1201933716
H   H14       1.0  0.03030  0.49070  0.30080  1.0000 0.1201933716
H   H15       1.0  0.46970  0.77050  0.46040  1.0000 0.1201933716
H   H16       1.0  0.81010  0.00930  0.03960  1.0000 0.1201933716
H   H17       1.0  0.27660  0.63000  0.98560  1.0000 0.1201933716
H   H18       1.0  0.14440  0.29100  0.51440  1.0000 0.1201933716
H   H19       1.0  0.35560  0.87000  0.14660  1.0000 0.1201933716
H   H20       1.0  0.22340  0.20900  0.35340  1.0000 0.1201933716
H   H21       1.0  0.72340  0.37000  0.01440  1.0000 0.1201933716
H   H22       1.0  0.85560  0.70900  0.48560  1.0000 0.1201933716
H   H23       1.0  0.64440  0.13000  0.85340  1.0000 0.1201933716
H   H24       1.0  0.77660  0.79100  0.64660  1.0000 0.1201933716
H   H25       1.0  0.16550  0.64500  0.01150  1.0000 0.1201933716
H   H26       1.0  0.13350  0.15400  0.48850  1.0000 0.1201933716
H   H27       1.0  0.36650  0.85500  0.02050  1.0000 0.1201933716
H   H28       1.0  0.33450  0.34600  0.47950  1.0000 0.1201933716
H   H29       1.0  0.83450  0.35500  0.98850  1.0000 0.1201933716
H   H30       1.0  0.86650  0.84600  0.51150  1.0000 0.1201933716
H   H31       1.0  0.63350  0.14500  0.97950  1.0000 0.1201933716
H   H32       1.0  0.66550  0.65400  0.52050  1.0000 0.1201933716
H   H33       1.0  0.83910  0.90510  0.22880  1.0000 0.1201933716
H   H34       1.0  0.17630  0.61030  0.27120  1.0000 0.1201933716
H   H35       1.0  0.32370  0.59490  0.43400  1.0000 0.1201933716
H   H36       1.0  0.66090  0.88970  0.06600  1.0000 0.1201933716
H   H37       1.0  0.16090  0.09490  0.77120  1.0000 0.1201933716
H   H38       1.0  0.82370  0.38970  0.72880  1.0000 0.1201933716
H   H39       1.0  0.67630  0.40510  0.56600  1.0000 0.1201933716
H   H40       1.0  0.33910  0.11030  0.93400  1.0000 0.1201933716
H   H41       1.0  0.80170  0.09590  0.31220  1.0000 0.1108409331
H   H42       1.0  0.28370  0.48950  0.18780  1.0000 0.1108409331
H   H43       1.0  0.21630  0.40410  0.20580  1.0000 0.1108409331
H   H44       1.0  0.69830  0.01050  0.29420  1.0000 0.1108409331
H   H45       1.0  0.19830  0.90410  0.68780  1.0000 0.1108409331
H   H46       1.0  0.71630  0.51050  0.81220  1.0000 0.1108409331
H   H47       1.0  0.78370  0.59590  0.79420  1.0000 0.1108409331
H   H48       1.0  0.30170  0.98950  0.70580  1.0000 0.1108409331
H   H49       1.0  0.86470  0.14340  0.27430  1.0000 0.1108409331
H   H50       1.0  0.36910  0.59040  0.22570  1.0000 0.1108409331
H   H51       1.0  0.13090  0.35660  0.22130  1.0000 0.1108409331
H   H52       1.0  0.63530  0.90960  0.27870  1.0000 0.1108409331
H   H53       1.0  0.13530  0.85660  0.72570  1.0000 0.1108409331
H   H54       1.0  0.63090  0.40960  0.77430  1.0000 0.1108409331
H   H55       1.0  0.86910  0.64340  0.77870  1.0000 0.1108409331
H   H56       1.0  0.36470  0.09040  0.72130  1.0000 0.1108409331
H   H57       1.0  0.00490  0.81040  0.06990  1.0000 0.1201933716
H   H58       1.0  0.24050  0.93500  0.43010  1.0000 0.1201933716
H   H59       1.0  0.25950  0.68960  0.69450  1.0000 0.1201933716
H   H60       1.0  0.49510  0.56500  0.80550  1.0000 0.1201933716
H   H61       1.0  0.99510  0.18960  0.93010  1.0000 0.1201933716
H   H62       1.0  0.75950  0.06500  0.56990  1.0000 0.1201933716
H   H63       1.0  0.74050  0.31040  0.30550  1.0000 0.1201933716
H   H64       1.0  0.50490  0.43500  0.19450  1.0000 0.1201933716
C   C1        1.0  0.21381  0.35653  0.85908  1.0000 0.0419389491
C   C2        1.0  0.99745  0.35473  0.64092  1.0000 0.0419389491
C   C3        1.0  0.50255  0.14347  0.35728  1.0000 0.0419389491
C   C4        1.0  0.28619  0.14527  0.14272  1.0000 0.0419389491
C   C5        1.0  0.78619  0.64347  0.14092  1.0000 0.0419389491
C   C6        1.0  0.00255  0.64527  0.35908  1.0000 0.0419389491
C   C7        1.0  0.49745  0.85653  0.64272  1.0000 0.0419389491
C   C8        1.0  0.71381  0.85473  0.85728  1.0000 0.0419389491
C   C9        1.0  0.28096  0.34965  0.84551  1.0000 0.0294204533
C   C10       1.0  0.00414  0.43545  0.65449  1.0000 0.0294204533
C   C11       1.0  0.49586  0.15035  0.43131  1.0000 0.0294204533
C   C12       1.0  0.21904  0.06455  0.06869  1.0000 0.0294204533
C   C13       1.0  0.71904  0.65035  0.15449  1.0000 0.0294204533
C   C14       1.0  0.99586  0.56455  0.34551  1.0000 0.0294204533
C   C15       1.0  0.50414  0.84965  0.56869  1.0000 0.0294204533
C   C16       1.0  0.78096  0.93545  0.93131  1.0000 0.0294204533
C   C17       1.0  0.26156  0.55798  0.95278  1.0000 0.0014663861
C   C18       1.0  0.10520  0.30878  0.54722  1.0000 0.0014663861
C   C19       1.0  0.39480  0.94202  0.20358  1.0000 0.0014663861
C   C20       1.0  0.23844  0.19122  0.29642  1.0000 0.0014663861
C   C21       1.0  0.73844  0.44202  0.04722  1.0000 0.0014663861
C   C22       1.0  0.89480  0.69122  0.45278  1.0000 0.0014663861
C   C23       1.0  0.60520  0.05798  0.79642  1.0000 0.0014663861
C   C24       1.0  0.76156  0.80878  0.70358  1.0000 0.0014663861
C   C25       1.0  0.19468  0.56635  0.96753  1.0000 0.0294204533
C   C26       1.0  0.09882  0.22715  0.53247  1.0000 0.0294204533
C   C27       1.0  0.40118  0.93365  0.12833  1.0000 0.0294204533
C   C28       1.0  0.30532  0.27285  0.37167  1.0000 0.0294204533
C   C29       1.0  0.80532  0.43365  0.03247  1.0000 0.0294204533
C   C30       1.0  0.90118  0.77285  0.46753  1.0000 0.0294204533
C   C31       1.0  0.59882  0.06635  0.87167  1.0000 0.0294204533
C   C32       1.0  0.69468  0.72715  0.62833  1.0000 0.0294204533
C   C33       1.0  0.95335  0.72337  0.09678  1.0000 0.5343003475
C   C34       1.0  0.12659  0.85657  0.40322  1.0000 0.5343003475
C   C35       1.0  0.37341  0.77663  0.72998  1.0000 0.5343003475
C   C36       1.0  0.54665  0.64343  0.77002  1.0000 0.5343003475
C   C37       1.0  0.04665  0.27663  0.90322  1.0000 0.5343003475
C   C38       1.0  0.87341  0.14343  0.59678  1.0000 0.5343003475
C   C39       1.0  0.62659  0.22337  0.27002  1.0000 0.5343003475
C   C40       1.0  0.45335  0.35657  0.22998  1.0000 0.5343003475
C   C41       1.0  0.92635  0.84063  0.14332  1.0000 -0.0292444614
C   C42       1.0  0.19731  0.78303  0.35668  1.0000 -0.0292444614
C   C43       1.0  0.30269  0.65937  0.58572  1.0000 -0.0292444614
C   C44       1.0  0.57365  0.71697  0.91428  1.0000 -0.0292444614
C   C45       1.0  0.07365  0.15937  0.85668  1.0000 -0.0292444614
C   C46       1.0  0.80269  0.21697  0.64332  1.0000 -0.0292444614
C   C47       1.0  0.69731  0.34063  0.41428  1.0000 -0.0292444614
C   C48       1.0  0.42635  0.28303  0.08572  1.0000 -0.0292444614
C   C49       1.0  0.86528  0.92485  0.21403  1.0000 -0.1035514048
C   C50       1.0  0.21082  0.65125  0.28597  1.0000 -0.1035514048
C   C51       1.0  0.28918  0.57515  0.44043  1.0000 -0.1035514048
C   C52       1.0  0.63472  0.84875  0.05957  1.0000 -0.1035514048
C   C53       1.0  0.13472  0.07515  0.78597  1.0000 -0.1035514048
C   C54       1.0  0.78918  0.34875  0.71403  1.0000 -0.1035514048
C   C55       1.0  0.71082  0.42485  0.55957  1.0000 -0.1035514048
C   C56       1.0  0.36528  0.15125  0.94043  1.0000 -0.1035514048
C   C57       1.0  0.84280  0.03778  0.26282  1.0000 -0.1098915765
C   C58       1.0  0.27496  0.57998  0.23718  1.0000 -0.1098915765
C   C59       1.0  0.22504  0.46222  0.30502  1.0000 -0.1098915765
C   C60       1.0  0.65720  0.92002  0.19498  1.0000 -0.1098915765
C   C61       1.0  0.15720  0.96222  0.73718  1.0000 -0.1098915765
C   C62       1.0  0.72504  0.42002  0.76282  1.0000 -0.1098915765
C   C63       1.0  0.77496  0.53778  0.69498  1.0000 -0.1098915765
C   C64       1.0  0.34280  0.07998  0.80502  1.0000 -0.1098915765
C   C65       1.0  0.88017  0.06531  0.23946  1.0000 -0.1098915765
C   C66       1.0  0.32585  0.64071  0.26054  1.0000 -0.1098915765
C   C67       1.0  0.17415  0.43469  0.31486  1.0000 -0.1098915765
C   C68       1.0  0.61983  0.85929  0.18514  1.0000 -0.1098915765
C   C69       1.0  0.11983  0.93469  0.76054  1.0000 -0.1098915765
C   C70       1.0  0.67415  0.35929  0.73946  1.0000 -0.1098915765
C   C71       1.0  0.82585  0.56531  0.68514  1.0000 -0.1098915765
C   C72       1.0  0.38017  0.14071  0.81486  1.0000 -0.1098915765
C   C73       1.0  0.94077  0.97891  0.16466  1.0000 -0.0292444614
C   C74       1.0  0.31425  0.77611  0.33534  1.0000 -0.0292444614
C   C75       1.0  0.18575  0.52109  0.46186  1.0000 -0.0292444614
C   C76       1.0  0.55923  0.72389  0.03814  1.0000 -0.0292444614
C   C77       1.0  0.05923  0.02109  0.83534  1.0000 -0.0292444614
C   C78       1.0  0.68575  0.22389  0.66466  1.0000 -0.0292444614
C   C79       1.0  0.81425  0.47891  0.53814  1.0000 -0.0292444614
C   C80       1.0  0.44077  0.27611  0.96186  1.0000 -0.0292444614
C   C81       1.0  0.96373  0.86784  0.11849  1.0000 -0.1363404234
C   C82       1.0  0.24935  0.84524  0.38151  1.0000 -0.1363404234
C   C83       1.0  0.25065  0.63216  0.59589  1.0000 -0.1363404234
C   C84       1.0  0.53627  0.65476  0.90411  1.0000 -0.1363404234
C   C85       1.0  0.03627  0.13216  0.88151  1.0000 -0.1363404234
C   C86       1.0  0.75065  0.15476  0.61849  1.0000 -0.1363404234
C   C87       1.0  0.74935  0.36784  0.40411  1.0000 -0.1363404234
C   C88       1.0  0.46373  0.34524  0.09589  1.0000 -0.1363404234
C   C89       1.0  0.97911  0.00365  0.13206  1.0000 0.5451482737
C   C90       1.0  0.37159  0.84705  0.36794  1.0000 0.5451482737
C   C91       1.0  0.12841  0.49635  0.47546  1.0000 0.5451482737
C   C92       1.0  0.52089  0.65295  0.02454  1.0000 0.5449452602
C   C93       1.0  0.02089  0.99635  0.86794  1.0000 0.5451482737
C   C94       1.0  0.62841  0.15295  0.63206  1.0000 0.5451482737
C   C95       1.0  0.87159  0.50365  0.52454  1.0000 0.5451482737
C   C96       1.0  0.47911  0.34705  0.97546  1.0000 0.5451482737
N   N1        1.0  0.17018  0.46614  0.92124  1.0000 -0.1606225169
N   N2        1.0  0.04490  0.24894  0.57876  1.0000 -0.1606225169
N   N3        1.0  0.45510  0.03386  0.20404  1.0000 -0.1606225169
N   N4        1.0  0.32982  0.25106  0.29596  1.0000 -0.1606225169
N   N5        1.0  0.82982  0.53386  0.07876  1.0000 -0.1606225169
N   N6        1.0  0.95510  0.75106  0.42124  1.0000 -0.1606225169
N   N7        1.0  0.54490  0.96614  0.79596  1.0000 -0.1606225169
N   N8        1.0  0.67018  0.74894  0.70404  1.0000 -0.1606225169
N   N9        1.0  0.30573  0.45062  0.89331  1.0000 -0.1363404234
N   N10       1.0  0.05731  0.41242  0.60669  1.0000 -0.1363404234
N   N11       1.0  0.44269  0.04938  0.35511  1.0000 -0.1363404234
N   N12       1.0  0.19427  0.08758  0.14489  1.0000 -0.1346958674
N   N13       1.0  0.69427  0.54938  0.10669  1.0000 -0.1346958674
N   N14       1.0  0.94269  0.58758  0.39331  1.0000 -0.1363404234
N   N15       1.0  0.55731  0.95062  0.64489  1.0000 -0.1363404234
N   N16       1.0  0.80573  0.91242  0.85511  1.0000 -0.1363404234
O   O1        1.0  0.00994  0.65762  0.03952  1.0000 -0.5007687903
O   O2        1.0  0.11810  0.97042  0.46048  1.0000 -0.5007687903
O   O3        1.0  0.38190  0.84238  0.85232  1.0000 -0.5007687903
O   O4        1.0  0.49006  0.52958  0.64768  1.0000 -0.5007687903
O   O5        1.0  0.99006  0.34238  0.96048  1.0000 -0.5007687903
O   O6        1.0  0.88190  0.02958  0.53952  1.0000 -0.5007687903
O   O7        1.0  0.61810  0.15762  0.14768  1.0000 -0.5007687903
O   O8        1.0  0.50994  0.47042  0.35232  1.0000 -0.5007687903
O   O9        1.0  0.91701  0.70224  0.12017  1.0000 -0.5147282875
O   O10       1.0  0.08207  0.79684  0.37983  1.0000 -0.52193888
O   O11       1.0  0.41793  0.79776  0.71477  1.0000 -0.5147282875
O   O12       1.0  0.58299  0.70316  0.78523  1.0000 -0.5147282875
O   O13       1.0  0.08299  0.29776  0.87983  1.0000 -0.5147282875
O   O14       1.0  0.91793  0.20316  0.62017  1.0000 -0.5147282875
O   O15       1.0  0.58207  0.20224  0.28523  1.0000 -0.5147282875
O   O16       1.0  0.41701  0.29684  0.21477  1.0000 -0.5147282875
O   O17       1.0  0.03422  0.92575  0.06727  1.0000 -0.52193888
O   O18       1.0  0.35848  0.96695  0.43273  1.0000 -0.52193888
O   O19       1.0  0.14152  0.57425  0.60847  1.0000 -0.52193888
O   O20       1.0  0.46578  0.53305  0.89153  1.0000 -0.52193888
O   O21       1.0  0.96578  0.07425  0.93273  1.0000 -0.52193888
O   O22       1.0  0.64152  0.03305  0.56727  1.0000 -0.52193888
O   O23       1.0  0.85848  0.42575  0.39153  1.0000 -0.52193888
O   O24       1.0  0.53422  0.46695  0.10847  1.0000 -0.52193888
O   O25       1.0  0.95343  0.10006  0.16997  1.0000 -0.5448053277
O   O26       1.0  0.43009  0.78346  0.33003  1.0000 -0.5448053277
O   O27       1.0  0.06991  0.39994  0.35337  1.0000 -0.5448053277
O   O28       1.0  0.54657  0.71654  0.14663  1.0000 -0.5452667869
O   O29       1.0  0.04657  0.89994  0.83003  1.0000 -0.5452667869
O   O30       1.0  0.56991  0.21654  0.66997  1.0000 -0.5452667869
O   O31       1.0  0.93009  0.60006  0.64663  1.0000 -0.5448053277
O   O32       1.0  0.45343  0.28346  0.85337  1.0000 -0.5448053277
