# DDEC6 charges by PACMAN v1.1 (https://github.com/mtap-research/PACMAN-charge/)
data_2016[Ga][nan]3[FSR]7
_chemical_formula_sum              "Ga4 H16 C32 O20"
_cell_length_a       12.1334
_cell_length_b       12.1334
_cell_length_c       12.1334
_cell_angle_alpha    104.049
_cell_angle_beta     104.049
_cell_angle_gamma    120.965

_symmetry_space_group_name_H-M    "P 1"
_symmetry_Int_Tables_number       1

loop_
  _symmetry_equiv_pos_as_xyz
  'x, y, z'

loop_
  _atom_site_type_symbol
  _atom_site_label
  _atom_site_symmetry_multiplicity
  _atom_site_fract_x
  _atom_site_fract_y
  _atom_site_fract_z
  _atom_site_occupancy
  _atom_site_charge
Ga  Ga1       1.0  0.30728  0.30728  0.61456  1.0000 1.4314240324
Ga  Ga2       1.0  0.69272  0.69272  0.38544  1.0000 1.4314240324
Ga  Ga3       1.0  0.94272  0.05728  0.50000  1.0000 1.4314240324
Ga  Ga4       1.0  0.55728  0.44272  0.50000  1.0000 1.4314240324
H   H1        1.0  0.31660  0.37500  0.44160  1.0000 0.4034813451
H   H2        1.0  0.93340  0.87500  0.55840  1.0000 0.4034813451
H   H3        1.0  0.12500  0.06660  0.44160  1.0000 0.4034813451
H   H4        1.0  0.62500  0.68340  0.55840  1.0000 0.4034813451
H   H5        1.0  0.62450  0.12450  0.50000  1.0000 0.1412184345
H   H6        1.0  0.37450  0.37450  0.00000  1.0000 0.1412184345
H   H7        1.0  0.62550  0.62550  0.00000  1.0000 0.1412184345
H   H8        1.0  0.87550  0.37550  0.50000  1.0000 0.1412184345
H   H9        1.0  0.26900  0.94990  0.55590  1.0000 0.1200307267
H   H10       1.0  0.39400  0.71310  0.44410  1.0000 0.1200307267
H   H11       1.0  0.96310  0.01900  0.81910  1.0000 0.1200307267
H   H12       1.0  0.19990  0.14400  0.18090  1.0000 0.1200307267
H   H13       1.0  0.98100  0.03690  0.18090  1.0000 0.1200307267
H   H14       1.0  0.85600  0.80010  0.81910  1.0000 0.1200307267
H   H15       1.0  0.28690  0.60600  0.55590  1.0000 0.1200307267
H   H16       1.0  0.05010  0.73100  0.44410  1.0000 0.1200307267
C   C1        1.0  0.45580  0.18810  0.54830  1.0000 0.6048049735
C   C2        1.0  0.63980  0.90750  0.45170  1.0000 0.6048049735
C   C3        1.0  0.15750  0.20580  0.76770  1.0000 0.6048049735
C   C4        1.0  0.43810  0.38980  0.23230  1.0000 0.6048049735
C   C5        1.0  0.79420  0.84250  0.23230  1.0000 0.6048049735
C   C6        1.0  0.61020  0.56190  0.76770  1.0000 0.6048049735
C   C7        1.0  0.09250  0.36020  0.54830  1.0000 0.6048049735
C   C8        1.0  0.81190  0.54420  0.45170  1.0000 0.6048049735
C   C9        1.0  0.44520  0.05930  0.52310  1.0000 -0.0733010718
C   C10       1.0  0.53620  0.92210  0.47690  1.0000 -0.0733010718
C   C11       1.0  0.17210  0.19520  0.88590  1.0000 -0.0733010718
C   C12       1.0  0.30930  0.28620  0.11410  1.0000 -0.0733010718
C   C13       1.0  0.80480  0.82790  0.11410  1.0000 -0.0733010718
C   C14       1.0  0.71380  0.69070  0.88590  1.0000 -0.0733010718
C   C15       1.0  0.07790  0.46380  0.52310  1.0000 -0.0733010718
C   C16       1.0  0.94070  0.55480  0.47690  1.0000 -0.0733010718
C   C17       1.0  0.54670  0.04670  0.50000  1.0000 -0.0733010718
C   C18       1.0  0.29670  0.29670  0.00000  1.0000 -0.0733010718
C   C19       1.0  0.70330  0.70330  0.00000  1.0000 -0.0733010718
C   C20       1.0  0.95330  0.45330  0.50000  1.0000 -0.0733010718
C   C21       1.0  0.33140  0.94060  0.53040  1.0000 -0.1326027946
C   C22       1.0  0.41020  0.80100  0.46960  1.0000 -0.1326027946
C   C23       1.0  0.05100  0.08140  0.89080  1.0000 -0.1326027946
C   C24       1.0  0.19060  0.16020  0.10920  1.0000 -0.1326027946
C   C25       1.0  0.91860  0.94900  0.10920  1.0000 -0.1326027946
C   C26       1.0  0.83980  0.80940  0.89080  1.0000 -0.1326027946
C   C27       1.0  0.19900  0.58980  0.53040  1.0000 -0.1326027946
C   C28       1.0  0.05940  0.66860  0.46960  1.0000 -0.1326027946
C   C29       1.0  0.31280  0.81280  0.50000  1.0000 0.0777312102
C   C30       1.0  0.06280  0.06280  0.00000  1.0000 0.0777312102
C   C31       1.0  0.93720  0.93720  0.00000  1.0000 0.0777312102
C   C32       1.0  0.18720  0.68720  0.50000  1.0000 0.0777312102
O   O1        1.0  0.39598  0.20960  0.61334  1.0000 -0.5530531747
O   O2        1.0  0.59626  0.78264  0.38666  1.0000 -0.5530531747
O   O3        1.0  0.03264  0.14598  0.68638  1.0000 -0.5530531747
O   O4        1.0  0.45960  0.34626  0.31362  1.0000 -0.5530531747
O   O5        1.0  0.85402  0.96736  0.31362  1.0000 -0.5530531747
O   O6        1.0  0.65374  0.54040  0.68638  1.0000 -0.5530531747
O   O7        1.0  0.21736  0.40374  0.61334  1.0000 -0.5530531747
O   O8        1.0  0.79040  0.60402  0.38666  1.0000 -0.5530531747
O   O9        1.0  0.37180  0.37500  0.49680  1.0000 -0.8671764327
O   O10       1.0  0.87820  0.87500  0.50320  1.0000 -0.8671764327
O   O11       1.0  0.12500  0.12180  0.49680  1.0000 -0.8671764327
O   O12       1.0  0.62500  0.62820  0.50320  1.0000 -0.8671764327
O   O13       1.0  0.52170  0.26430  0.49920  1.0000 -0.522567418
O   O14       1.0  0.76510  0.02250  0.50080  1.0000 -0.522567418
O   O15       1.0  0.27250  0.27170  0.75740  1.0000 -0.522567418
O   O16       1.0  0.51430  0.51510  0.24260  1.0000 -0.522567418
O   O17       1.0  0.72830  0.72750  0.24260  1.0000 -0.522567418
O   O18       1.0  0.48490  0.48570  0.75740  1.0000 -0.522567418
O   O19       1.0  0.97750  0.23490  0.49920  1.0000 -0.522567418
O   O20       1.0  0.73570  0.47830  0.50080  1.0000 -0.522567418
