# DDEC6 charges by PACMAN v1.1 (https://github.com/mtap-research/PACMAN-charge/)
data_2016[Co][sqc]3[FSR]3
_chemical_formula_sum              "Co2 H48 C60 N6 O12"
_cell_length_a       11.2867
_cell_length_b       13.8357
_cell_length_c       14.8608
_cell_angle_alpha    85.209
_cell_angle_beta     110.258
_cell_angle_gamma    106.091

_symmetry_space_group_name_H-M    "P 1"
_symmetry_Int_Tables_number       1

loop_
  _symmetry_equiv_pos_as_xyz
  'x, y, z'

loop_
  _atom_site_type_symbol
  _atom_site_label
  _atom_site_symmetry_multiplicity
  _atom_site_fract_x
  _atom_site_fract_y
  _atom_site_fract_z
  _atom_site_occupancy
  _atom_site_charge
Co  Co1       1.0  0.50000  0.00000  0.00000  1.0000 0.879471324
Co  Co2       1.0  0.50000  0.50000  0.00000  1.0000 0.879471324
H   H1        1.0  0.39660  0.80240  0.72450  1.0000 0.1209943142
H   H2        1.0  0.60340  0.19760  0.27550  1.0000 0.1209943142
H   H3        1.0  0.48860  0.90020  0.61880  1.0000 0.1209943142
H   H4        1.0  0.51140  0.09980  0.38120  1.0000 0.1209943142
H   H5        1.0  0.78400  0.76920  0.70390  1.0000 0.1209943142
H   H6        1.0  0.21600  0.23080  0.29610  1.0000 0.1209943142
H   H7        1.0  0.68950  0.66800  0.80680  1.0000 0.1209943142
H   H8        1.0  0.31050  0.33200  0.19320  1.0000 0.1209943142
H   H9        1.0  0.41950  0.77460  0.31610  1.0000 0.1209943142
H   H10       1.0  0.58050  0.22540  0.68390  1.0000 0.1209943142
H   H11       1.0  0.50500  0.78090  0.48130  1.0000 0.1209943142
H   H12       1.0  0.49500  0.21910  0.51870  1.0000 0.1209943142
H   H13       1.0  0.78170  0.03330  0.46800  1.0000 0.1209943142
H   H14       1.0  0.21830  0.96670  0.53200  1.0000 0.1209943142
H   H15       1.0  0.69530  0.02500  0.30360  1.0000 0.1209943142
H   H16       1.0  0.30470  0.97500  0.69640  1.0000 0.1209943142
H   H17       1.0  0.22230  0.47290  0.84470  1.0000 0.1106632319
H   H18       1.0  0.77770  0.52710  0.15530  1.0000 0.1106632319
H   H19       1.0  0.04690  0.35040  0.75370  1.0000 0.1292771718
H   H20       1.0  0.95310  0.64960  0.24630  1.0000 0.1292771718
H   H21       1.0  0.27400  0.15960  0.83120  1.0000 0.1209943142
H   H22       1.0  0.72600  0.84040  0.16880  1.0000 0.1209943142
H   H23       1.0  0.43890  0.28570  0.92320  1.0000 0.0908049416
H   H24       1.0  0.56110  0.71430  0.07680  1.0000 0.0908049416
H   H25       1.0  0.88430  0.20070  0.75440  1.0000 0.1209943142
H   H26       1.0  0.11570  0.79930  0.24560  1.0000 0.1209943142
H   H27       1.0  0.71130  0.06580  0.67840  1.0000 0.1292771718
H   H28       1.0  0.28870  0.93420  0.32160  1.0000 0.1292771718
H   H29       1.0  0.95830  0.94640  0.61430  1.0000 0.1292771718
H   H30       1.0  0.04170  0.05360  0.38570  1.0000 0.1292771718
H   H31       1.0  0.13070  0.08150  0.68960  1.0000 0.1209943142
H   H32       1.0  0.86930  0.91850  0.31040  1.0000 0.1209943142
H   H33       1.0  0.21900  0.95520  0.86840  1.0000 0.1106632319
H   H34       1.0  0.78100  0.04480  0.13160  1.0000 0.1106632319
H   H35       1.0  0.01340  0.94620  0.86610  1.0000 0.1209943142
H   H36       1.0  0.98660  0.05380  0.13390  1.0000 0.1209943142
H   H37       1.0  0.17140  0.06470  0.13110  1.0000 0.1209943142
H   H38       1.0  0.82860  0.93530  0.86890  1.0000 0.1209943142
H   H39       1.0  0.37280  0.07190  0.12510  1.0000 0.1106632319
H   H40       1.0  0.62720  0.92810  0.87490  1.0000 0.1106632319
H   H41       1.0  0.68310  0.16060  0.04260  1.0000 0.3483300032
H   H42       1.0  0.31690  0.83940  0.95740  1.0000 0.3483300032
H   H43       1.0  0.56920  0.19000  0.99560  1.0000 0.3483300032
H   H44       1.0  0.43080  0.81000  0.00440  1.0000 0.3483300032
H   H45       1.0  0.65690  0.39370  0.03570  1.0000 0.3436103087
H   H46       1.0  0.34310  0.60630  0.96430  1.0000 0.3436103087
H   H47       1.0  0.62480  0.41410  0.93840  1.0000 0.3483300032
H   H48       1.0  0.37520  0.58590  0.06160  1.0000 0.3483300032
C   C1        1.0  0.47900  0.66470  0.84985  1.0000 0.5631227117
C   C2        1.0  0.52100  0.33530  0.15015  1.0000 0.5631227117
C   C3        1.0  0.53510  0.72630  0.77792  1.0000 -0.0300857652
C   C4        1.0  0.46490  0.27370  0.22208  1.0000 -0.0300857652
C   C5        1.0  0.47430  0.79560  0.72060  1.0000 -0.0918517129
C   C6        1.0  0.52570  0.20440  0.27940  1.0000 -0.0918517129
C   C7        1.0  0.52990  0.85460  0.65760  1.0000 -0.1896868605
C   C8        1.0  0.47010  0.14540  0.34240  1.0000 -0.1896868605
C   C9        1.0  0.64640  0.84570  0.65260  1.0000 0.1678254526
C   C10       1.0  0.35360  0.15430  0.34740  1.0000 0.1678254526
C   C11       1.0  0.70630  0.77590  0.70810  1.0000 -0.1896868605
C   C12       1.0  0.29370  0.22410  0.29190  1.0000 -0.1896868605
C   C13       1.0  0.65000  0.71570  0.77020  1.0000 -0.0918517129
C   C14       1.0  0.35000  0.28430  0.22980  1.0000 -0.0918517129
C   C15       1.0  0.49680  0.89500  0.18489  1.0000 0.5472231131
C   C16       1.0  0.50320  0.10500  0.81511  1.0000 0.5472231131
C   C17       1.0  0.54820  0.89870  0.29181  1.0000 -0.0520116243
C   C18       1.0  0.45180  0.10130  0.70819  1.0000 -0.0520116243
C   C19       1.0  0.49250  0.82630  0.34660  1.0000 -0.0918517129
C   C20       1.0  0.50750  0.17370  0.65340  1.0000 -0.0918517129
C   C21       1.0  0.54380  0.82990  0.44580  1.0000 -0.2043286044
C   C22       1.0  0.45620  0.17010  0.55420  1.0000 -0.2043286044
C   C23       1.0  0.65420  0.90740  0.49320  1.0000 0.2101101648
C   C24       1.0  0.34580  0.09260  0.50680  1.0000 0.2101101648
C   C25       1.0  0.70940  0.98090  0.43790  1.0000 -0.2128847915
C   C26       1.0  0.29060  0.01910  0.56210  1.0000 -0.2128847915
C   C27       1.0  0.65710  0.97590  0.33930  1.0000 -0.1057571251
C   C28       1.0  0.34290  0.02410  0.66070  1.0000 -0.1057571251
C   C29       1.0  0.23170  0.40830  0.84360  1.0000 0.1012120225
C   C30       1.0  0.76830  0.59170  0.15640  1.0000 0.1012120225
C   C31       1.0  0.12540  0.33510  0.78810  1.0000 -0.1896868605
C   C32       1.0  0.87460  0.66490  0.21190  1.0000 -0.1896868605
C   C33       1.0  0.13820  0.23840  0.78450  1.0000 0.1106632319
C   C34       1.0  0.86180  0.76160  0.21550  1.0000 0.1106632319
C   C35       1.0  0.25960  0.22210  0.83440  1.0000 -0.1822774538
C   C36       1.0  0.74040  0.77790  0.16560  1.0000 -0.1822774538
C   C37       1.0  0.35890  0.29890  0.88900  1.0000 0.0779774782
C   C38       1.0  0.64110  0.70110  0.11100  1.0000 0.0779774782
C   C39       1.0  0.02610  0.15500  0.73110  1.0000 0.0488185209
C   C40       1.0  0.97390  0.84500  0.26890  1.0000 0.0488185209
C   C41       1.0  0.89970  0.14970  0.72670  1.0000 -0.1293933396
C   C42       1.0  0.10030  0.85030  0.27330  1.0000 -0.1293933396
C   C43       1.0  0.79580  0.06870  0.68120  1.0000 -0.1656001884
C   C44       1.0  0.20420  0.93130  0.31880  1.0000 -0.1656001884
C   C45       1.0  0.81820  0.99280  0.64010  1.0000 0.1622955125
C   C46       1.0  0.18180  0.00720  0.35990  1.0000 0.1622955125
C   C47       1.0  0.94340  0.99730  0.64270  1.0000 -0.1822774538
C   C48       1.0  0.05660  0.00270  0.35730  1.0000 -0.1822774538
C   C49       1.0  0.04660  0.07830  0.68800  1.0000 -0.1293933396
C   C50       1.0  0.95340  0.92170  0.31200  1.0000 -0.1293933396
C   C51       1.0  0.20900  0.97700  0.92220  1.0000 0.0686653402
C   C52       1.0  0.79100  0.02300  0.07780  1.0000 0.0686653402
C   C53       1.0  0.08510  0.97150  0.92030  1.0000 -0.1896868605
C   C54       1.0  0.91490  0.02850  0.07970  1.0000 -0.1896868605
C   C55       1.0  0.06640  0.00360  0.99900  1.0000 0.1106632319
C   C56       1.0  0.93360  0.99640  0.00100  1.0000 0.1106632319
C   C57       1.0  0.17820  0.04170  0.07660  1.0000 -0.1896868605
C   C58       1.0  0.82180  0.95830  0.92340  1.0000 -0.1896868605
C   C59       1.0  0.29910  0.04520  0.07260  1.0000 0.1012120225
C   C60       1.0  0.70090  0.95480  0.92740  1.0000 0.1012120225
N   N1        1.0  0.71010  0.91023  0.59249  1.0000 -0.1822774538
N   N2        1.0  0.28990  0.08977  0.40751  1.0000 -0.1822774538
N   N3        1.0  0.34710  0.39110  0.89585  1.0000 -0.2512401123
N   N4        1.0  0.65290  0.60890  0.10415  1.0000 -0.2512401123
N   N5        1.0  0.31610  0.01234  0.99755  1.0000 -0.2512401123
N   N6        1.0  0.68390  0.98766  0.00245  1.0000 -0.2512401123
O   O1        1.0  0.38740  0.68830  0.86547  1.0000 -0.563293435
O   O2        1.0  0.61260  0.31170  0.13453  1.0000 -0.563293435
O   O3        1.0  0.52880  0.59526  0.88929  1.0000 -0.5727642058
O   O4        1.0  0.47120  0.40474  0.11071  1.0000 -0.5727642058
O   O5        1.0  0.40470  0.82122  0.14232  1.0000 -0.5727642058
O   O6        1.0  0.59530  0.17878  0.85768  1.0000 -0.5727642058
O   O7        1.0  0.55050  0.96758  0.14275  1.0000 -0.5727642058
O   O8        1.0  0.44950  0.03242  0.85725  1.0000 -0.5727642058
O   O9        1.0  0.60370  0.15168  0.03826  1.0000 -0.6780617613
O   O10       1.0  0.39630  0.84832  0.96174  1.0000 -0.6780617613
O   O11       1.0  0.64671  0.43935  0.99390  1.0000 -0.6590080637
O   O12       1.0  0.35329  0.56065  0.00610  1.0000 -0.6590080637
