# DDEC6 charges by PACMAN v1.1 (https://github.com/mtap-research/PACMAN-charge/)
data_2016[Pr][nan]3[FSR]1
_chemical_formula_sum              "Pr6 H22 C68 O56"
_cell_length_a       9.417
_cell_length_b       15.289
_cell_length_c       16.75
_cell_angle_alpha    111.022
_cell_angle_beta     100.709
_cell_angle_gamma    89.359

_symmetry_space_group_name_H-M    "P 1"
_symmetry_Int_Tables_number       1

loop_
  _symmetry_equiv_pos_as_xyz
  'x, y, z'

loop_
  _atom_site_type_symbol
  _atom_site_label
  _atom_site_symmetry_multiplicity
  _atom_site_fract_x
  _atom_site_fract_y
  _atom_site_fract_z
  _atom_site_occupancy
  _atom_site_charge
Pr  Pr1       1.0  0.91617  0.82785  0.89228  1.0000 2.0185045978
Pr  Pr2       1.0  0.08383  0.17215  0.10772  1.0000 2.0185045978
Pr  Pr3       1.0  0.61673  0.76151  0.47817  1.0000 2.0858039638
Pr  Pr4       1.0  0.38327  0.23849  0.52183  1.0000 2.0858039638
Pr  Pr5       1.0  0.49906  0.67764  0.10905  1.0000 2.0056881687
Pr  Pr6       1.0  0.50094  0.32236  0.89095  1.0000 2.0049049637
H   H1        1.0  0.29640  0.48890  0.45720  1.0000 0.3901916524
H   H2        1.0  0.70360  0.51110  0.54280  1.0000 0.3901916524
H   H3        1.0  0.28270  0.01450  0.88840  1.0000 0.1391262027
H   H4        1.0  0.71730  0.98550  0.11160  1.0000 0.1391262027
H   H5        1.0  0.58890  0.98390  0.74440  1.0000 0.1298175237
H   H6        1.0  0.41110  0.01610  0.25560  1.0000 0.1298175237
H   H7        1.0  0.37450  0.67580  0.62650  1.0000 0.1298175237
H   H8        1.0  0.62550  0.32420  0.37350  1.0000 0.1298175237
H   H9        1.0  0.40220  0.46040  0.70940  1.0000 0.1298175237
H   H10       1.0  0.59780  0.53960  0.29060  1.0000 0.1298175237
H   H11       1.0  0.43930  0.72250  0.88360  1.0000 0.1391262027
H   H12       1.0  0.56070  0.27750  0.11640  1.0000 0.1391262027
H   H13       1.0  0.86370  0.49190  0.11290  1.0000 0.1458005986
H   H14       1.0  0.13630  0.50810  0.88710  1.0000 0.1458005986
H   H15       1.0  0.26570  0.50430  0.24930  1.0000 0.1298175237
H   H16       1.0  0.73430  0.49570  0.75070  1.0000 0.1298175237
H   H17       1.0  0.01370  0.77350  0.12140  1.0000 0.1391262027
H   H18       1.0  0.98630  0.22650  0.87860  1.0000 0.1391262027
H   H19       1.0  0.14330  0.03470  0.28730  1.0000 0.1391262027
H   H20       1.0  0.85670  0.96530  0.71270  1.0000 0.1391262027
H   H21       1.0  0.18070  0.82080  0.37160  1.0000 0.1298175237
H   H22       1.0  0.81930  0.17920  0.62840  1.0000 0.1298175237
C   C1        1.0  0.63460  0.80660  0.70450  1.0000 0.649779447
C   C2        1.0  0.36540  0.19340  0.29550  1.0000 0.649779447
C   C3        1.0  0.51840  0.86260  0.74990  1.0000 -0.0575897846
C   C4        1.0  0.48160  0.13740  0.25010  1.0000 -0.0575897846
C   C5        1.0  0.41670  0.82070  0.77830  1.0000 0.0091213874
C   C6        1.0  0.58330  0.17930  0.22170  1.0000 0.0091213874
C   C7        1.0  0.32520  0.88020  0.82930  1.0000 -0.0417933393
C   C8        1.0  0.67480  0.11980  0.17070  1.0000 -0.0417933393
C   C9        1.0  0.33900  0.97620  0.85130  1.0000 -0.090797719
C   C10       1.0  0.66100  0.02380  0.14870  1.0000 -0.090797719
C   C11       1.0  0.43570  0.01710  0.81890  1.0000 0.0027408765
C   C12       1.0  0.56430  0.98290  0.18110  1.0000 0.0091213874
C   C13       1.0  0.52460  0.95840  0.76740  1.0000 -0.1017391899
C   C14       1.0  0.47540  0.04160  0.23260  1.0000 -0.1017391899
C   C15       1.0  0.20550  0.84170  0.85500  1.0000 0.5738651535
C   C16       1.0  0.79450  0.15830  0.14500  1.0000 0.5738651535
C   C17       1.0  0.44860  0.12100  0.84320  1.0000 0.5400152585
C   C18       1.0  0.55140  0.87900  0.15680  1.0000 0.5400152585
C   C19       1.0  0.40970  0.71800  0.75870  1.0000 0.0653958401
C   C20       1.0  0.59030  0.28200  0.24130  1.0000 0.0653958401
C   C21       1.0  0.38750  0.65370  0.67220  1.0000 -0.1262973243
C   C22       1.0  0.61250  0.34630  0.32780  1.0000 -0.1262973243
C   C23       1.0  0.38470  0.55900  0.65440  1.0000 -0.0474408188
C   C24       1.0  0.61530  0.44100  0.34560  1.0000 -0.0474408188
C   C25       1.0  0.40340  0.52490  0.72210  1.0000 -0.090797719
C   C26       1.0  0.59660  0.47510  0.27790  1.0000 -0.090797719
C   C27       1.0  0.42370  0.58550  0.80800  1.0000 -0.0326383276
C   C28       1.0  0.57630  0.41450  0.19200  1.0000 -0.0326383276
C   C29       1.0  0.42630  0.68140  0.82590  1.0000 -0.1017391899
C   C30       1.0  0.57370  0.31860  0.17410  1.0000 -0.1017391899
C   C31       1.0  0.36050  0.49030  0.56350  1.0000 0.5958857319
C   C32       1.0  0.63950  0.50970  0.43650  1.0000 0.5958857319
C   C33       1.0  0.44540  0.54970  0.88080  1.0000 0.649779447
C   C34       1.0  0.55460  0.45030  0.11920  1.0000 0.649779447
C   C35       1.0  0.35100  0.67520  0.29120  1.0000 0.6380446187
C   C36       1.0  0.64900  0.32480  0.70880  1.0000 0.6380446187
C   C37       1.0  0.19880  0.63010  0.25000  1.0000 -0.0575897846
C   C38       1.0  0.80120  0.36990  0.75000  1.0000 -0.0575897846
C   C39       1.0  0.08140  0.67800  0.22410  1.0000 0.0223450853
C   C40       1.0  0.91860  0.32200  0.77590  1.0000 0.0223450853
C   C41       1.0  0.95180  0.62340  0.17540  1.0000 -0.0417933393
C   C42       1.0  0.04820  0.37660  0.82460  1.0000 -0.0417933393
C   C43       1.0  0.94630  0.52660  0.14980  1.0000 -0.090797719
C   C44       1.0  0.05370  0.47340  0.85020  1.0000 -0.090797719
C   C45       1.0  0.06130  0.47960  0.17790  1.0000 0.0027408765
C   C46       1.0  0.93870  0.52040  0.82210  1.0000 -0.000559069
C   C47       1.0  0.18780  0.53360  0.22910  1.0000 -0.1017391899
C   C48       1.0  0.81220  0.46640  0.77090  1.0000 -0.1017391899
C   C49       1.0  0.81310  0.66410  0.15020  1.0000 0.5738651535
C   C50       1.0  0.18690  0.33590  0.84980  1.0000 0.5738651535
C   C51       1.0  0.05720  0.37540  0.15120  1.0000 0.5400152585
C   C52       1.0  0.94280  0.62460  0.84880  1.0000 0.5400152585
C   C53       1.0  0.09470  0.78080  0.24350  1.0000 0.0491251057
C   C54       1.0  0.90530  0.21920  0.75650  1.0000 0.0491251057
C   C55       1.0  0.05300  0.81500  0.17720  1.0000 -0.1091475164
C   C56       1.0  0.94700  0.18500  0.82280  1.0000 -0.1091475164
C   C57       1.0  0.06890  0.91150  0.19280  1.0000 -0.0177836682
C   C58       1.0  0.93110  0.08850  0.80720  1.0000 -0.0177836682
C   C59       1.0  0.13090  0.97080  0.27600  1.0000 -0.090797719
C   C60       1.0  0.86910  0.02920  0.72400  1.0000 -0.090797719
C   C61       1.0  0.17430  0.93820  0.34170  1.0000 -0.0177836682
C   C62       1.0  0.82570  0.06180  0.65830  1.0000 -0.0177836682
C   C63       1.0  0.15410  0.84280  0.32620  1.0000 -0.1154265323
C   C64       1.0  0.84590  0.15720  0.67380  1.0000 -0.1154265323
C   C65       1.0  0.02810  0.94950  0.12130  1.0000 0.6380446187
C   C66       1.0  0.97190  0.05050  0.87870  1.0000 0.6380446187
C   C67       1.0  0.23960  0.00830  0.43330  1.0000 0.5958857319
C   C68       1.0  0.76040  0.99170  0.56670  1.0000 0.5958857319
O   O1        1.0  0.74940  0.80440  0.75320  1.0000 -0.5689853648
O   O2        1.0  0.25060  0.19560  0.24680  1.0000 -0.5689853648
O   O3        1.0  0.60750  0.76470  0.62360  1.0000 -0.5988361308
O   O4        1.0  0.39250  0.23530  0.37640  1.0000 -0.5988361308
O   O5        1.0  0.10870  0.78610  0.79670  1.0000 -0.5689853648
O   O6        1.0  0.89130  0.21390  0.20330  1.0000 -0.5689853648
O   O7        1.0  0.19490  0.87120  0.93530  1.0000 -0.4992333034
O   O8        1.0  0.80510  0.12880  0.06470  1.0000 -0.4897519866
O   O9        1.0  0.50790  0.15140  0.79570  1.0000 -0.5205078342
O   O10       1.0  0.49210  0.84860  0.20430  1.0000 -0.5205078342
O   O11       1.0  0.41020  0.17340  0.90930  1.0000 -0.4818408706
O   O12       1.0  0.58980  0.82660  0.09070  1.0000 -0.4818408706
O   O13       1.0  0.32770  0.52950  0.50500  1.0000 -0.4242872813
O   O14       1.0  0.67230  0.47050  0.49500  1.0000 -0.4242872813
O   O15       1.0  0.36700  0.40650  0.54400  1.0000 -0.5802892863
O   O16       1.0  0.63300  0.59350  0.45600  1.0000 -0.590207976
O   O17       1.0  0.42700  0.46170  0.86180  1.0000 -0.6312482127
O   O18       1.0  0.57300  0.53830  0.13820  1.0000 -0.6312482127
O   O19       1.0  0.48330  0.60720  0.95690  1.0000 -0.5802892863
O   O20       1.0  0.51670  0.39280  0.04310  1.0000 -0.5802892863
O   O21       1.0  0.40090  0.68350  0.36710  1.0000 -0.6073780277
O   O22       1.0  0.59910  0.31650  0.63290  1.0000 -0.6073780277
O   O23       1.0  0.41610  0.69860  0.24270  1.0000 -0.5689853648
O   O24       1.0  0.58390  0.30140  0.75730  1.0000 -0.5689853648
O   O25       1.0  0.75420  0.72120  0.20770  1.0000 -0.4992333034
O   O26       1.0  0.24580  0.27880  0.79230  1.0000 -0.4992333034
O   O27       1.0  0.75220  0.63590  0.07120  1.0000 -0.4992333034
O   O28       1.0  0.24780  0.36410  0.92880  1.0000 -0.4992333034
O   O29       1.0  0.96800  0.32470  0.08730  1.0000 -0.4897519866
O   O30       1.0  0.03200  0.67530  0.91270  1.0000 -0.4818408706
O   O31       1.0  0.15040  0.34160  0.19500  1.0000 -0.5689853648
O   O32       1.0  0.84960  0.65840  0.80500  1.0000 -0.5689853648
O   O33       1.0  0.98630  0.89020  0.04450  1.0000 -0.5988361308
O   O34       1.0  0.01370  0.10980  0.95550  1.0000 -0.5988361308
O   O35       1.0  0.03590  0.03450  0.14090  1.0000 -0.590207976
O   O36       1.0  0.96410  0.96550  0.85910  1.0000 -0.590207976
O   O37       1.0  0.26480  0.09120  0.43900  1.0000 -0.6312482127
O   O38       1.0  0.73520  0.90880  0.56100  1.0000 -0.6312482127
O   O39       1.0  0.26530  0.98060  0.49550  1.0000 -0.3640972146
O   O40       1.0  0.73470  0.01940  0.50450  1.0000 -0.3640972146
O   O41       1.0  0.72840  0.94860  0.94430  1.0000 -0.2477447534
O   O42       1.0  0.27160  0.05140  0.05570  1.0000 -0.2477447534
O   O43       1.0  0.73290  0.76140  0.95450  1.0000 -0.1091475164
O   O44       1.0  0.26710  0.23860  0.04550  1.0000 -0.1091475164
O   O45       1.0  0.39680  0.84390  0.53120  1.0000 -0.321605272
O   O46       1.0  0.60320  0.15610  0.46880  1.0000 -0.321605272
O   O47       1.0  0.55650  0.86430  0.39100  1.0000 -0.1262973243
O   O48       1.0  0.44350  0.13570  0.60900  1.0000 -0.1262973243
O   O49       1.0  0.77300  0.71060  0.36830  1.0000 -0.3365820268
O   O50       1.0  0.22700  0.28940  0.63170  1.0000 -0.3365820268
O   O51       1.0  0.86260  0.73320  0.54210  1.0000 -0.2477447534
O   O52       1.0  0.13740  0.26680  0.45790  1.0000 -0.2477447534
O   O53       1.0  0.27550  0.74160  0.04130  1.0000 -0.1688805962
O   O54       1.0  0.72450  0.25840  0.95870  1.0000 -0.1688805962
O   O55       1.0  0.27400  0.55630  0.05160  1.0000 -0.2389619419
O   O56       1.0  0.72600  0.44370  0.94840  1.0000 -0.2389619419
