# DDEC6 charges by PACMAN v1.1 (https://github.com/mtap-research/PACMAN-charge/)
data_2016[Cu][tfw]2[FSR]2
_chemical_formula_sum              "Cu4 H28 C34 N20 O8"
_cell_length_a       13.9702
_cell_length_b       13.9702
_cell_length_c       9.3005
_cell_angle_alpha    77.8914
_cell_angle_beta     102.109
_cell_angle_gamma    141.266

_symmetry_space_group_name_H-M    "P 1"
_symmetry_Int_Tables_number       1

loop_
  _symmetry_equiv_pos_as_xyz
  'x, y, z'

loop_
  _atom_site_type_symbol
  _atom_site_label
  _atom_site_symmetry_multiplicity
  _atom_site_fract_x
  _atom_site_fract_y
  _atom_site_fract_z
  _atom_site_occupancy
  _atom_site_charge
Cu  Cu1       1.0  0.64120  0.01720  0.93800  1.0000 0.6092706994
Cu  Cu2       1.0  0.01720  0.64120  0.56200  1.0000 0.6092706994
Cu  Cu3       1.0  0.35880  0.98280  0.06200  1.0000 0.6092706994
Cu  Cu4       1.0  0.98280  0.35880  0.43800  1.0000 0.6092706994
H   H1        1.0  0.70497  0.93731  0.17348  1.0000 0.1099307786
H   H2        1.0  0.93731  0.70497  0.32652  1.0000 0.1099307786
H   H3        1.0  0.29503  0.06269  0.82652  1.0000 0.1099307786
H   H4        1.0  0.06269  0.29503  0.67348  1.0000 0.1099307786
H   H5        1.0  0.63874  0.74548  0.34177  1.0000 0.1480539069
H   H6        1.0  0.74548  0.63874  0.15823  1.0000 0.1480539069
H   H7        1.0  0.36126  0.25452  0.65823  1.0000 0.1480539069
H   H8        1.0  0.25452  0.36126  0.84177  1.0000 0.1480539069
H   H9        1.0  0.23552  0.43032  0.08942  1.0000 0.1449351684
H   H10       1.0  0.43032  0.23552  0.41058  1.0000 0.1449351684
H   H11       1.0  0.76448  0.56968  0.91058  1.0000 0.1449351684
H   H12       1.0  0.56968  0.76448  0.58942  1.0000 0.1449351684
H   H13       1.0  0.31527  0.63283  0.92929  1.0000 0.1099307786
H   H14       1.0  0.63283  0.31527  0.57071  1.0000 0.1099307786
H   H15       1.0  0.68473  0.36717  0.07071  1.0000 0.1099307786
H   H16       1.0  0.36717  0.68473  0.42929  1.0000 0.1099307786
H   H17       1.0  0.30384  0.39678  0.39555  1.0000 0.1321784482
H   H18       1.0  0.39678  0.30383  0.10445  1.0000 0.1321784482
H   H19       1.0  0.69617  0.60321  0.60445  1.0000 0.1321784482
H   H20       1.0  0.60321  0.69616  0.89555  1.0000 0.1321784482
H   H21       1.0  0.46794  0.47856  0.39976  1.0000 0.1021273956
H   H22       1.0  0.47856  0.46794  0.10024  1.0000 0.1021273956
H   H23       1.0  0.53206  0.52144  0.60024  1.0000 0.1021273956
H   H24       1.0  0.52144  0.53206  0.89976  1.0000 0.1021273956
H   H25       1.0  0.23183  0.28017  0.18336  1.0000 0.1099307786
H   H26       1.0  0.28017  0.23183  0.31664  1.0000 0.1099307786
H   H27       1.0  0.76817  0.71983  0.81664  1.0000 0.1099307786
H   H28       1.0  0.71983  0.76817  0.68336  1.0000 0.1099307786
C   C1        1.0  0.93780  0.23600  0.18660  1.0000 0.5277051703
C   C2        1.0  0.23600  0.93780  0.31340  1.0000 0.5277051703
C   C3        1.0  0.06220  0.76400  0.81340  1.0000 0.5277051703
C   C4        1.0  0.76400  0.06220  0.68660  1.0000 0.5277051703
C   C5        1.0  0.79520  0.18180  0.19470  1.0000 0.1321784482
C   C6        1.0  0.18180  0.79520  0.30530  1.0000 0.1321784482
C   C7        1.0  0.20480  0.81820  0.80530  1.0000 0.1321784482
C   C8        1.0  0.81820  0.20480  0.69470  1.0000 0.1321784482
C   C9        1.0  0.60790  0.83210  0.15660  1.0000 0.0739548356
C   C10       1.0  0.83210  0.60790  0.34340  1.0000 0.0739548356
C   C11       1.0  0.39210  0.16790  0.84340  1.0000 0.0739548356
C   C12       1.0  0.16790  0.39210  0.65660  1.0000 0.0739548356
C   C13       1.0  0.57040  0.71960  0.25770  1.0000 -0.2050938829
C   C14       1.0  0.71960  0.57040  0.24230  1.0000 -0.2050938829
C   C15       1.0  0.42960  0.28040  0.74230  1.0000 -0.2050938829
C   C16       1.0  0.28040  0.42960  0.75770  1.0000 -0.2050938829
C   C17       1.0  0.42946  0.56794  0.23142  1.0000 0.1753089503
C   C18       1.0  0.56794  0.42946  0.26858  1.0000 0.1745661572
C   C19       1.0  0.57054  0.43206  0.76858  1.0000 0.1745661572
C   C20       1.0  0.43206  0.57054  0.73142  1.0000 0.1745661572
C   C21       1.0  0.33320  0.53460  0.10860  1.0000 -0.1905205622
C   C22       1.0  0.53460  0.33320  0.39140  1.0000 -0.1905205622
C   C23       1.0  0.66680  0.46540  0.89140  1.0000 -0.1905205622
C   C24       1.0  0.46540  0.66680  0.60860  1.0000 -0.1905205622
C   C25       1.0  0.38160  0.65580  0.01410  1.0000 0.0948289782
C   C26       1.0  0.65580  0.38160  0.48590  1.0000 0.0948289782
C   C27       1.0  0.61840  0.34420  0.98590  1.0000 0.0948289782
C   C28       1.0  0.34420  0.61840  0.51410  1.0000 0.0948289782
C   C29       1.0  0.38071  0.43929  0.33668  1.0000 -0.2530583962
C   C30       1.0  0.43929  0.38071  0.16332  1.0000 -0.2530583962
C   C31       1.0  0.61929  0.56071  0.66332  1.0000 -0.2530583962
C   C32       1.0  0.56071  0.61929  0.83668  1.0000 -0.2530583962
C   C33       1.0  0.31590  0.31590  0.25000  1.0000 -0.1327749267
C   C34       1.0  0.68410  0.68410  0.75000  1.0000 -0.1327749267
N   N1        1.0  0.79210  0.23290  0.29640  1.0000 -0.2009660465
N   N2        1.0  0.23290  0.79210  0.20360  1.0000 -0.2009660465
N   N3        1.0  0.20790  0.76710  0.70360  1.0000 -0.2009660465
N   N4        1.0  0.76710  0.20790  0.79640  1.0000 -0.2009660465
N   N5        1.0  0.65250  0.16670  0.27900  1.0000 -0.0580429292
N   N6        1.0  0.16670  0.65250  0.22100  1.0000 -0.0580429292
N   N7        1.0  0.34750  0.83330  0.72100  1.0000 -0.0580429292
N   N8        1.0  0.83330  0.34750  0.77900  1.0000 -0.0580429292
N   N9        1.0  0.57520  0.07780  0.16800  1.0000 -0.0580429292
N   N10       1.0  0.07780  0.57520  0.33200  1.0000 -0.0654949992
N   N11       1.0  0.42480  0.92220  0.83200  1.0000 -0.0580429292
N   N12       1.0  0.92220  0.42480  0.66800  1.0000 -0.0654949992
N   N13       1.0  0.66280  0.08620  0.11450  1.0000 -0.2009660465
N   N14       1.0  0.08620  0.66280  0.38550  1.0000 -0.2009660465
N   N15       1.0  0.33720  0.91380  0.88550  1.0000 -0.2009660465
N   N16       1.0  0.91380  0.33720  0.61450  1.0000 -0.2009660465
N   N17       1.0  0.51750  0.80390  0.03650  1.0000 -0.2009660465
N   N18       1.0  0.80390  0.51750  0.46350  1.0000 -0.2009660465
N   N19       1.0  0.48250  0.19610  0.96350  1.0000 -0.2009660465
N   N20       1.0  0.19610  0.48250  0.53650  1.0000 -0.2009660465
O   O1        1.0  0.94190  0.19870  0.08160  1.0000 -0.5258487686
O   O2        1.0  0.19870  0.94190  0.41840  1.0000 -0.5258487686
O   O3        1.0  0.05810  0.80130  0.91840  1.0000 -0.5258487686
O   O4        1.0  0.80130  0.05810  0.58160  1.0000 -0.5258487686
O   O5        1.0  0.04010  0.31590  0.29100  1.0000 -0.5061581358
O   O6        1.0  0.31590  0.04010  0.20900  1.0000 -0.5061581358
O   O7        1.0  0.95990  0.68410  0.70900  1.0000 -0.5061581358
O   O8        1.0  0.68410  0.95990  0.79100  1.0000 -0.5061581358
