# DDEC6 charges by PACMAN v1.1 (https://github.com/mtap-research/PACMAN-charge/)
data_2016[Cd][nan]2[FSR]3
_chemical_formula_sum              "Cd4 H100 C128 N28 O20"
_cell_length_a       17.2922
_cell_length_b       17.2922
_cell_length_c       21.692
_cell_angle_alpha    81.9703
_cell_angle_beta     98.0297
_cell_angle_gamma    145.964

_symmetry_space_group_name_H-M    "P 1"
_symmetry_Int_Tables_number       1

loop_
  _symmetry_equiv_pos_as_xyz
  'x, y, z'

loop_
  _atom_site_type_symbol
  _atom_site_label
  _atom_site_symmetry_multiplicity
  _atom_site_fract_x
  _atom_site_fract_y
  _atom_site_fract_z
  _atom_site_occupancy
  _atom_site_charge
Cd  Cd1       1.0  0.51905  0.03659  0.64610  1.0000 0.7996416197
Cd  Cd2       1.0  0.03659  0.51905  0.85390  1.0000 0.7996416197
Cd  Cd3       1.0  0.48095  0.96341  0.35390  1.0000 0.7996416197
Cd  Cd4       1.0  0.96341  0.48095  0.14610  1.0000 0.7996416197
H   H1        1.0  0.73280  0.04300  0.66630  1.0000 0.1084592378
H   H2        1.0  0.04300  0.73280  0.83370  1.0000 0.1084592378
H   H3        1.0  0.26720  0.95700  0.33370  1.0000 0.1084592378
H   H4        1.0  0.95700  0.26720  0.16630  1.0000 0.1084592378
H   H5        1.0  0.48540  0.89960  0.52470  1.0000 0.1312236786
H   H6        1.0  0.89960  0.48540  0.97530  1.0000 0.1312236786
H   H7        1.0  0.51460  0.10040  0.47530  1.0000 0.1312236786
H   H8        1.0  0.10040  0.51460  0.02470  1.0000 0.1312236786
H   H9        1.0  0.56050  0.86390  0.45430  1.0000 0.1312236786
H   H10       1.0  0.86390  0.56050  0.04570  1.0000 0.1312236786
H   H11       1.0  0.43950  0.13610  0.54570  1.0000 0.1312236786
H   H12       1.0  0.13610  0.43950  0.95430  1.0000 0.1312236786
H   H13       1.0  0.71720  0.97320  0.46860  1.0000 0.1312236786
H   H14       1.0  0.97320  0.71720  0.03140  1.0000 0.1312236786
H   H15       1.0  0.28280  0.02680  0.53140  1.0000 0.1312236786
H   H16       1.0  0.02680  0.28280  0.96860  1.0000 0.1312236786
H   H17       1.0  0.41380  0.63360  0.53780  1.0000 0.1190234713
H   H18       1.0  0.63360  0.41380  0.96220  1.0000 0.1190234713
H   H19       1.0  0.58620  0.36640  0.46220  1.0000 0.1190234713
H   H20       1.0  0.36640  0.58620  0.03780  1.0000 0.1190234713
H   H21       1.0  0.36120  0.45760  0.54320  1.0000 0.1084592378
H   H22       1.0  0.45760  0.36120  0.95680  1.0000 0.1084592378
H   H23       1.0  0.63880  0.54240  0.45680  1.0000 0.1084592378
H   H24       1.0  0.54240  0.63880  0.04320  1.0000 0.1084592378
H   H25       1.0  0.73830  0.86670  0.44280  1.0000 0.1190234713
H   H26       1.0  0.86670  0.73830  0.05720  1.0000 0.1190234713
H   H27       1.0  0.26170  0.13330  0.55720  1.0000 0.1190234713
H   H28       1.0  0.13330  0.26170  0.94280  1.0000 0.1190234713
H   H29       1.0  0.69000  0.69640  0.45390  1.0000 0.1190234713
H   H30       1.0  0.69640  0.69000  0.04610  1.0000 0.1190234713
H   H31       1.0  0.31000  0.30360  0.54610  1.0000 0.1190234713
H   H32       1.0  0.30360  0.31000  0.95390  1.0000 0.1190234713
H   H33       1.0  0.51750  0.63050  0.68480  1.0000 0.1190234713
H   H34       1.0  0.63050  0.51750  0.81520  1.0000 0.1190234713
H   H35       1.0  0.48250  0.36950  0.31520  1.0000 0.1190234713
H   H36       1.0  0.36950  0.48250  0.18480  1.0000 0.1190234713
H   H37       1.0  0.61620  0.61400  0.84850  1.0000 0.1190234713
H   H38       1.0  0.61400  0.61620  0.65150  1.0000 0.1190234713
H   H39       1.0  0.38380  0.38600  0.15150  1.0000 0.1190234713
H   H40       1.0  0.38600  0.38380  0.34850  1.0000 0.1190234713
H   H41       1.0  0.53240  0.64800  0.88840  1.0000 0.1190234713
H   H42       1.0  0.64800  0.53240  0.61160  1.0000 0.1190234713
H   H43       1.0  0.46760  0.35200  0.11160  1.0000 0.1190234713
H   H44       1.0  0.35200  0.46760  0.38840  1.0000 0.1190234713
H   H45       1.0  0.46500  0.69920  0.72090  1.0000 0.1190234713
H   H46       1.0  0.69920  0.46500  0.77910  1.0000 0.1190234713
H   H47       1.0  0.53500  0.30080  0.27910  1.0000 0.1190234713
H   H48       1.0  0.30080  0.53500  0.22090  1.0000 0.1190234713
H   H49       1.0  0.50450  0.76050  0.87880  1.0000 0.1374714814
H   H50       1.0  0.76050  0.50450  0.62120  1.0000 0.1374714814
H   H51       1.0  0.49550  0.23950  0.12120  1.0000 0.1374714814
H   H52       1.0  0.23950  0.49550  0.37880  1.0000 0.1374714814
H   H53       1.0  0.37120  0.66260  0.83480  1.0000 0.1312236786
H   H54       1.0  0.66260  0.37120  0.66520  1.0000 0.1312236786
H   H55       1.0  0.62880  0.33740  0.16520  1.0000 0.1312236786
H   H56       1.0  0.33740  0.62880  0.33480  1.0000 0.1312236786
H   H57       1.0  0.76640  0.15720  0.76080  1.0000 0.1190234713
H   H58       1.0  0.15720  0.76640  0.73920  1.0000 0.1190234713
H   H59       1.0  0.23360  0.84280  0.23920  1.0000 0.1190234713
H   H60       1.0  0.84280  0.23360  0.26080  1.0000 0.1190234713
H   H61       1.0  0.37660  0.78740  0.75110  1.0000 0.1190234713
H   H62       1.0  0.78740  0.37660  0.74890  1.0000 0.1190234713
H   H63       1.0  0.62340  0.21260  0.24890  1.0000 0.1190234713
H   H64       1.0  0.21260  0.62340  0.25110  1.0000 0.1190234713
H   H65       1.0  0.55300  0.12680  0.78300  1.0000 0.1084592378
H   H66       1.0  0.12680  0.55300  0.71700  1.0000 0.1084592378
H   H67       1.0  0.44700  0.87320  0.21700  1.0000 0.1084592378
H   H68       1.0  0.87320  0.44700  0.28300  1.0000 0.1084592378
H   H69       1.0  0.31220  0.01700  0.64420  1.0000 0.0982010891
H   H70       1.0  0.01700  0.31220  0.85580  1.0000 0.0982010891
H   H71       1.0  0.68780  0.98300  0.35580  1.0000 0.0982010891
H   H72       1.0  0.98300  0.68780  0.14420  1.0000 0.0982010891
H   H73       1.0  0.21980  0.02740  0.70350  1.0000 0.1374714814
H   H74       1.0  0.02740  0.21980  0.79650  1.0000 0.1374714814
H   H75       1.0  0.78020  0.97260  0.29650  1.0000 0.1374714814
H   H76       1.0  0.97260  0.78020  0.20350  1.0000 0.1374714814
H   H77       1.0  0.29830  0.08610  0.80700  1.0000 0.1190234713
H   H78       1.0  0.08610  0.29830  0.69300  1.0000 0.1190234713
H   H79       1.0  0.70170  0.91390  0.19300  1.0000 0.1190234713
H   H80       1.0  0.91390  0.70170  0.30700  1.0000 0.1190234713
H   H81       1.0  0.51380  0.22580  0.88180  1.0000 0.1084592378
H   H82       1.0  0.22580  0.51380  0.61820  1.0000 0.1084592378
H   H83       1.0  0.48620  0.77420  0.11820  1.0000 0.1084592378
H   H84       1.0  0.77420  0.48620  0.38180  1.0000 0.1084592378
H   H85       1.0  0.57040  0.18800  0.87950  1.0000 0.1084592378
H   H86       1.0  0.18800  0.57040  0.62050  1.0000 0.1084592378
H   H87       1.0  0.42960  0.81200  0.12050  1.0000 0.1084592378
H   H88       1.0  0.81200  0.42960  0.37950  1.0000 0.1084592378
H   H89       1.0  0.60750  0.22990  0.98120  1.0000 0.1190234713
H   H90       1.0  0.22990  0.60750  0.51880  1.0000 0.1190234713
H   H91       1.0  0.39250  0.77010  0.01880  1.0000 0.1190234713
H   H92       1.0  0.77010  0.39250  0.48120  1.0000 0.1190234713
H   H93       1.0  0.21700  0.83200  0.98500  1.0000 0.1312236786
H   H94       1.0  0.83200  0.21700  0.51500  1.0000 0.1312236786
H   H95       1.0  0.78300  0.16800  0.01500  1.0000 0.1312236786
H   H96       1.0  0.16800  0.78300  0.48500  1.0000 0.1312236786
H   H97       1.0  0.46630  0.99250  0.13840  1.0000 0.1084592378
H   H98       1.0  0.99250  0.46630  0.36160  1.0000 0.1084592378
H   H99       1.0  0.53370  0.00750  0.86160  1.0000 0.1084592378
H   H100      1.0  0.00750  0.53370  0.63840  1.0000 0.1084592378
C   C1        1.0  0.68710  0.00590  0.62760  1.0000 0.1374714814
C   C2        1.0  0.00590  0.68710  0.87240  1.0000 0.1374714814
C   C3        1.0  0.31290  0.99410  0.37240  1.0000 0.1374714814
C   C4        1.0  0.99410  0.31290  0.12760  1.0000 0.1374714814
C   C5        1.0  0.55160  0.92840  0.55230  1.0000 0.1190234713
C   C6        1.0  0.92840  0.55160  0.94770  1.0000 0.1190234713
C   C7        1.0  0.44840  0.07160  0.44770  1.0000 0.1190234713
C   C8        1.0  0.07160  0.44840  0.05230  1.0000 0.1190234713
C   C9        1.0  0.62560  0.89060  0.48490  1.0000 -0.1887105785
C   C10       1.0  0.89060  0.62560  0.01510  1.0000 -0.1887105785
C   C11       1.0  0.37440  0.10940  0.51510  1.0000 -0.1887105785
C   C12       1.0  0.10940  0.37440  0.98490  1.0000 -0.1887105785
C   C13       1.0  0.59140  0.77720  0.49390  1.0000 0.0982010891
C   C14       1.0  0.77720  0.59140  0.00610  1.0000 0.0982010891
C   C15       1.0  0.40860  0.22280  0.50610  1.0000 0.0982010891
C   C16       1.0  0.22280  0.40860  0.99390  1.0000 0.0982010891
C   C17       1.0  0.47300  0.64960  0.52090  1.0000 -0.1600943141
C   C18       1.0  0.64960  0.47300  0.97910  1.0000 -0.1600943141
C   C19       1.0  0.52700  0.35040  0.47910  1.0000 -0.1600943141
C   C20       1.0  0.35040  0.52700  0.02090  1.0000 -0.1600943141
C   C21       1.0  0.44010  0.54170  0.52310  1.0000 -0.172416751
C   C22       1.0  0.54170  0.44010  0.97690  1.0000 -0.172416751
C   C23       1.0  0.55990  0.45830  0.47690  1.0000 -0.172416751
C   C24       1.0  0.45830  0.55990  0.02310  1.0000 -0.172416751
C   C25       1.0  0.66350  0.78630  0.46600  1.0000 -0.1504447616
C   C26       1.0  0.78630  0.66350  0.03400  1.0000 -0.1504447616
C   C27       1.0  0.33650  0.21370  0.53400  1.0000 -0.1504447616
C   C28       1.0  0.21370  0.33650  0.96600  1.0000 -0.1504447616
C   C29       1.0  0.63050  0.68010  0.47060  1.0000 -0.1600943141
C   C30       1.0  0.68010  0.63050  0.02940  1.0000 -0.1600943141
C   C31       1.0  0.36950  0.31990  0.52940  1.0000 -0.1600943141
C   C32       1.0  0.31990  0.36950  0.97060  1.0000 -0.1600943141
C   C33       1.0  0.51800  0.55620  0.49760  1.0000 0.0618090306
C   C34       1.0  0.55620  0.51800  0.00240  1.0000 0.0618090306
C   C35       1.0  0.48200  0.44380  0.50240  1.0000 0.0618090306
C   C36       1.0  0.44380  0.48200  0.99760  1.0000 0.0618090306
C   C37       1.0  0.56880  0.60860  0.76450  1.0000 0.0732851133
C   C38       1.0  0.60860  0.56880  0.73550  1.0000 0.0732851133
C   C39       1.0  0.43120  0.39140  0.23550  1.0000 0.0732851133
C   C40       1.0  0.39140  0.43120  0.26450  1.0000 0.0732851133
C   C41       1.0  0.52580  0.63860  0.72750  1.0000 -0.1504447616
C   C42       1.0  0.63860  0.52580  0.77250  1.0000 -0.1504447616
C   C43       1.0  0.47420  0.36140  0.27250  1.0000 -0.1504447616
C   C44       1.0  0.36140  0.47420  0.22750  1.0000 -0.1504447616
C   C45       1.0  0.57810  0.62390  0.82100  1.0000 -0.1284414611
C   C46       1.0  0.62390  0.57810  0.67900  1.0000 -0.1284414611
C   C47       1.0  0.42190  0.37610  0.17900  1.0000 -0.1284414611
C   C48       1.0  0.37610  0.42190  0.32100  1.0000 -0.1284414611
C   C49       1.0  0.53740  0.65460  0.84550  1.0000 -0.172416751
C   C50       1.0  0.65460  0.53740  0.65450  1.0000 -0.172416751
C   C51       1.0  0.46260  0.34540  0.15450  1.0000 -0.172416751
C   C52       1.0  0.34540  0.46260  0.34550  1.0000 -0.172416751
C   C53       1.0  0.49380  0.67980  0.74880  1.0000 -0.1785393625
C   C54       1.0  0.67980  0.49380  0.75120  1.0000 -0.1785393625
C   C55       1.0  0.50620  0.32020  0.25120  1.0000 -0.1785393625
C   C56       1.0  0.32020  0.50620  0.24880  1.0000 -0.1785393625
C   C57       1.0  0.50340  0.69240  0.80920  1.0000 0.0982010891
C   C58       1.0  0.69240  0.50340  0.69080  1.0000 0.0982010891
C   C59       1.0  0.49660  0.30760  0.19080  1.0000 0.0982010891
C   C60       1.0  0.30760  0.49660  0.30920  1.0000 0.0982010891
C   C61       1.0  0.47070  0.73810  0.83560  1.0000 -0.1887105785
C   C62       1.0  0.73810  0.47070  0.66440  1.0000 -0.1887105785
C   C63       1.0  0.52930  0.26190  0.16440  1.0000 -0.1887105785
C   C64       1.0  0.26190  0.52930  0.33560  1.0000 -0.1887105785
C   C65       1.0  0.68240  0.06240  0.76760  1.0000 0.1374714814
C   C66       1.0  0.06240  0.68240  0.73240  1.0000 0.1374714814
C   C67       1.0  0.31760  0.93760  0.23240  1.0000 0.1374714814
C   C68       1.0  0.93760  0.31760  0.26760  1.0000 0.1374714814
C   C69       1.0  0.47090  0.86330  0.76140  1.0000 0.1084592378
C   C70       1.0  0.86330  0.47090  0.73860  1.0000 0.1084592378
C   C71       1.0  0.52910  0.13670  0.23860  1.0000 0.1084592378
C   C72       1.0  0.13670  0.52910  0.26140  1.0000 0.1084592378
C   C73       1.0  0.48490  0.10650  0.76690  1.0000 -0.0004862393
C   C74       1.0  0.10650  0.48490  0.73310  1.0000 -0.0004862393
C   C75       1.0  0.51510  0.89350  0.23310  1.0000 -0.0004862393
C   C76       1.0  0.89350  0.51510  0.26690  1.0000 -0.0004862393
C   C77       1.0  0.34420  0.04220  0.68540  1.0000 0.0531897976
C   C78       1.0  0.04220  0.34420  0.81460  1.0000 0.0531897976
C   C79       1.0  0.65580  0.95780  0.31460  1.0000 0.0531897976
C   C80       1.0  0.95780  0.65580  0.18540  1.0000 0.0531897976
C   C81       1.0  0.28730  0.04730  0.72050  1.0000 -0.1504447616
C   C82       1.0  0.04730  0.28730  0.77950  1.0000 -0.1504447616
C   C83       1.0  0.71270  0.95270  0.27950  1.0000 -0.1504447616
C   C84       1.0  0.95270  0.71270  0.22050  1.0000 -0.1504447616
C   C85       1.0  0.33530  0.08330  0.78180  1.0000 -0.0993391208
C   C86       1.0  0.08330  0.33530  0.71820  1.0000 -0.0993391208
C   C87       1.0  0.66470  0.91670  0.21820  1.0000 -0.0993391208
C   C88       1.0  0.91670  0.66470  0.28180  1.0000 -0.0993391208
C   C89       1.0  0.43620  0.11480  0.80580  1.0000 0.0427272052
C   C90       1.0  0.11480  0.43620  0.69420  1.0000 0.0427272052
C   C91       1.0  0.56380  0.88520  0.19420  1.0000 0.0427272052
C   C92       1.0  0.88520  0.56380  0.30580  1.0000 0.0427272052
C   C93       1.0  0.48910  0.15390  0.87230  1.0000 -0.0576938472
C   C94       1.0  0.15390  0.48910  0.62770  1.0000 -0.0576938472
C   C95       1.0  0.51090  0.84610  0.12770  1.0000 -0.0576938472
C   C96       1.0  0.84610  0.51090  0.37230  1.0000 -0.0576938472
C   C97       1.0  0.41110  0.03230  0.97240  1.0000 0.2455572218
C   C98       1.0  0.03230  0.41110  0.52760  1.0000 0.2455572218
C   C99       1.0  0.58890  0.96770  0.02760  1.0000 0.2455572218
C   C100      1.0  0.96770  0.58890  0.47240  1.0000 0.2455572218
C   C101      1.0  0.53660  0.14440  0.00250  1.0000 -0.261127079
C   C102      1.0  0.14440  0.53660  0.49750  1.0000 -0.261127079
C   C103      1.0  0.46340  0.85560  0.99750  1.0000 -0.261127079
C   C104      1.0  0.85560  0.46340  0.50250  1.0000 -0.261127079
C   C105      1.0  0.30330  0.90670  0.00500  1.0000 -0.2214905515
C   C106      1.0  0.90670  0.30330  0.49500  1.0000 -0.2214905515
C   C107      1.0  0.69670  0.09330  0.99500  1.0000 -0.2214905515
C   C108      1.0  0.09330  0.69670  0.50500  1.0000 -0.2214905515
C   C109      1.0  0.20850  0.75430  0.10160  1.0000 0.5356930003
C   C110      1.0  0.75430  0.20850  0.39840  1.0000 0.5356930003
C   C111      1.0  0.79150  0.24570  0.89840  1.0000 0.5356930003
C   C112      1.0  0.24570  0.79150  0.60160  1.0000 0.5356930003
C   C113      1.0  0.32330  0.89130  0.06730  1.0000 -0.0061865689
C   C114      1.0  0.89130  0.32330  0.43270  1.0000 -0.0061865689
C   C115      1.0  0.67670  0.10870  0.93270  1.0000 -0.0061865689
C   C116      1.0  0.10870  0.67670  0.56730  1.0000 -0.0061865689
C   C117      1.0  0.45160  0.00280  0.09710  1.0000 -0.172416751
C   C118      1.0  0.00280  0.45160  0.40290  1.0000 -0.172416751
C   C119      1.0  0.54840  0.99720  0.90290  1.0000 -0.172416751
C   C120      1.0  0.99720  0.54840  0.59710  1.0000 -0.172416751
C   C121      1.0  0.55870  0.13090  0.06520  1.0000 0.0107673036
C   C122      1.0  0.13090  0.55870  0.43480  1.0000 0.0107673036
C   C123      1.0  0.44130  0.86910  0.93480  1.0000 0.0107673036
C   C124      1.0  0.86910  0.44130  0.56520  1.0000 0.0107673036
C   C125      1.0  0.69850  0.25210  0.09760  1.0000 0.52541482
C   C126      1.0  0.25210  0.69850  0.40240  1.0000 0.52541482
C   C127      1.0  0.30150  0.74790  0.90240  1.0000 0.52541482
C   C128      1.0  0.74790  0.30150  0.59760  1.0000 0.52541482
N   N1        1.0  0.44193  0.07127  0.70720  1.0000 -0.2346736908
N   N2        1.0  0.07127  0.44193  0.79280  1.0000 -0.2346736908
N   N3        1.0  0.55807  0.92873  0.29280  1.0000 -0.2346736908
N   N4        1.0  0.92873  0.55807  0.20720  1.0000 -0.2346736908
N   N5        1.0  0.56084  0.98936  0.73880  1.0000 -0.3252404526
N   N6        1.0  0.98936  0.56084  0.76120  1.0000 -0.3252404526
N   N7        1.0  0.43916  0.01064  0.26120  1.0000 -0.3252404526
N   N8        1.0  0.01064  0.43916  0.23880  1.0000 -0.3252404526
N   N9        1.0  0.67020  0.98680  0.80570  1.0000 -0.261127079
N   N10       1.0  0.98680  0.67020  0.69430  1.0000 -0.261127079
N   N11       1.0  0.32980  0.01320  0.19430  1.0000 -0.261127079
N   N12       1.0  0.01320  0.32980  0.30570  1.0000 -0.261127079
N   N13       1.0  0.53250  0.85810  0.80130  1.0000 0.1670636341
N   N14       1.0  0.85810  0.53250  0.69870  1.0000 0.1670636341
N   N15       1.0  0.46750  0.14190  0.19870  1.0000 0.1670636341
N   N16       1.0  0.14190  0.46750  0.30130  1.0000 0.1670636341
N   N17       1.0  0.58970  0.97970  0.60590  1.0000 -0.3198047772
N   N18       1.0  0.97970  0.58970  0.89410  1.0000 -0.3198047772
N   N19       1.0  0.41030  0.02030  0.39410  1.0000 -0.3198047772
N   N20       1.0  0.02030  0.41030  0.10590  1.0000 -0.3198047772
N   N21       1.0  0.71270  0.97550  0.59040  1.0000 -0.261127079
N   N22       1.0  0.97550  0.71270  0.90960  1.0000 -0.261127079
N   N23       1.0  0.28730  0.02450  0.40960  1.0000 -0.261127079
N   N24       1.0  0.02450  0.28730  0.09040  1.0000 -0.261127079
N   N25       1.0  0.62200  0.92300  0.54240  1.0000 0.1815980032
N   N26       1.0  0.92300  0.62200  0.95760  1.0000 0.1815980032
N   N27       1.0  0.37800  0.07700  0.45760  1.0000 0.1815980032
N   N28       1.0  0.07700  0.37800  0.04240  1.0000 0.1815980032
O   O1        1.0  0.23108  0.73332  0.15370  1.0000 -0.5697922006
O   O2        1.0  0.73332  0.23108  0.34630  1.0000 -0.5697922006
O   O3        1.0  0.76892  0.26668  0.84630  1.0000 -0.5697922006
O   O4        1.0  0.26668  0.76892  0.65370  1.0000 -0.5697922006
O   O5        1.0  0.08942  0.66238  0.07610  1.0000 -0.5403900241
O   O6        1.0  0.66238  0.08942  0.42390  1.0000 -0.5403900241
O   O7        1.0  0.91058  0.33762  0.92390  1.0000 -0.5403900241
O   O8        1.0  0.33762  0.91058  0.57610  1.0000 -0.5403900241
O   O9        1.0  0.72060  0.23700  0.15150  1.0000 -0.5403900241
O   O10       1.0  0.23700  0.72060  0.34850  1.0000 -0.5403900241
O   O11       1.0  0.27940  0.76300  0.84850  1.0000 -0.5403900241
O   O12       1.0  0.76300  0.27940  0.65150  1.0000 -0.5403900241
O   O13       1.0  0.78815  0.36585  0.06840  1.0000 -0.5403900241
O   O14       1.0  0.36585  0.78815  0.43160  1.0000 -0.5403900241
O   O15       1.0  0.21185  0.63415  0.93160  1.0000 -0.5403900241
O   O16       1.0  0.63415  0.21185  0.56840  1.0000 -0.5403900241
O   O17       1.0  0.38160  0.03340  0.91010  1.0000 -0.172416751
O   O18       1.0  0.03340  0.38160  0.58990  1.0000 -0.172416751
O   O19       1.0  0.61840  0.96660  0.08990  1.0000 -0.172416751
O   O20       1.0  0.96660  0.61840  0.41010  1.0000 -0.172416751
