# DDEC6 charges by PACMAN v1.1 (https://github.com/mtap-research/PACMAN-charge/)
data_2016[Cu][gis]2[FSR]1
_chemical_formula_sum              "Cu8 H120 C128 N24 O40"
_cell_length_a       20.5661
_cell_length_b       20.5661
_cell_length_c       28.728
_cell_angle_alpha    47.8251
_cell_angle_beta     132.175
_cell_angle_gamma    151.88

_symmetry_space_group_name_H-M    "P 1"
_symmetry_Int_Tables_number       1

loop_
  _symmetry_equiv_pos_as_xyz
  'x, y, z'

loop_
  _atom_site_type_symbol
  _atom_site_label
  _atom_site_symmetry_multiplicity
  _atom_site_fract_x
  _atom_site_fract_y
  _atom_site_fract_z
  _atom_site_occupancy
  _atom_site_charge
Cu  Cu1       1.0  0.71724  0.56790  0.91503  1.0000 0.7650510107
Cu  Cu2       1.0  0.56790  0.71724  0.58497  1.0000 0.7650510107
Cu  Cu3       1.0  0.28276  0.43210  0.08497  1.0000 0.7650510107
Cu  Cu4       1.0  0.43210  0.28276  0.41503  1.0000 0.7650510107
Cu  Cu5       1.0  0.69954  0.51246  0.76511  1.0000 0.7650510107
Cu  Cu6       1.0  0.51246  0.69954  0.73489  1.0000 0.7650510107
Cu  Cu7       1.0  0.30046  0.48754  0.23489  1.0000 0.7650510107
Cu  Cu8       1.0  0.48754  0.30046  0.26511  1.0000 0.7650510107
H   H1        1.0  0.27010  0.15910  0.02730  1.0000 0.2961025199
H   H2        1.0  0.15910  0.27010  0.47270  1.0000 0.2961025199
H   H3        1.0  0.72990  0.84090  0.97270  1.0000 0.2961025199
H   H4        1.0  0.84090  0.72990  0.52730  1.0000 0.2961025199
H   H5        1.0  0.92330  0.87990  0.89650  1.0000 0.1115134197
H   H6        1.0  0.87990  0.92330  0.60350  1.0000 0.1115134197
H   H7        1.0  0.07670  0.12010  0.10350  1.0000 0.1115134197
H   H8        1.0  0.12010  0.07670  0.39650  1.0000 0.1115134197
H   H9        1.0  0.08000  0.04100  0.95290  1.0000 0.1387369034
H   H10       1.0  0.04100  0.08000  0.54710  1.0000 0.1387369034
H   H11       1.0  0.92000  0.95900  0.04710  1.0000 0.1387369034
H   H12       1.0  0.95900  0.92000  0.45290  1.0000 0.1387369034
H   H13       1.0  0.96340  0.72960  0.11540  1.0000 0.1387369034
H   H14       1.0  0.72960  0.96340  0.38460  1.0000 0.1387369034
H   H15       1.0  0.03660  0.27040  0.88460  1.0000 0.1387369034
H   H16       1.0  0.27040  0.03660  0.61540  1.0000 0.1387369034
H   H17       1.0  0.81210  0.57850  0.05410  1.0000 0.1115134197
H   H18       1.0  0.57850  0.81210  0.44590  1.0000 0.1115134197
H   H19       1.0  0.18790  0.42150  0.94590  1.0000 0.1115134197
H   H20       1.0  0.42150  0.18790  0.55410  1.0000 0.1115134197
H   H21       1.0  0.99560  0.28640  0.02100  1.0000 0.1115134197
H   H22       1.0  0.28640  0.99560  0.47900  1.0000 0.1115134197
H   H23       1.0  0.00440  0.71360  0.97900  1.0000 0.1115134197
H   H24       1.0  0.71360  0.00440  0.52100  1.0000 0.1115134197
H   H25       1.0  0.89240  0.33960  0.95980  1.0000 0.1311709818
H   H26       1.0  0.33960  0.89240  0.54020  1.0000 0.1311709818
H   H27       1.0  0.10760  0.66040  0.04020  1.0000 0.1311709818
H   H28       1.0  0.66040  0.10760  0.45980  1.0000 0.1311709818
H   H29       1.0  0.03350  0.57470  0.92330  1.0000 0.1387369034
H   H30       1.0  0.57470  0.03350  0.57670  1.0000 0.1387369034
H   H31       1.0  0.96650  0.42530  0.07670  1.0000 0.1387369034
H   H32       1.0  0.42530  0.96650  0.42330  1.0000 0.1387369034
H   H33       1.0  0.37740  0.69120  0.01460  1.0000 0.1311709818
H   H34       1.0  0.69120  0.37740  0.48540  1.0000 0.1311709818
H   H35       1.0  0.62260  0.30880  0.98540  1.0000 0.1311709818
H   H36       1.0  0.30880  0.62260  0.51460  1.0000 0.1311709818
H   H37       1.0  0.25850  0.81330  0.91700  1.0000 0.2961025199
H   H38       1.0  0.81330  0.25850  0.58300  1.0000 0.2961025199
H   H39       1.0  0.74150  0.18670  0.08300  1.0000 0.2961025199
H   H40       1.0  0.18670  0.74150  0.41700  1.0000 0.2961025199
H   H41       1.0  0.47020  0.22540  0.84530  1.0000 0.1115134197
H   H42       1.0  0.22540  0.47020  0.65470  1.0000 0.1115134197
H   H43       1.0  0.52980  0.77460  0.15470  1.0000 0.1115134197
H   H44       1.0  0.77460  0.52980  0.34530  1.0000 0.1115134197
H   H45       1.0  0.37360  0.01120  0.90970  1.0000 0.1387369034
H   H46       1.0  0.01120  0.37360  0.59030  1.0000 0.1387369034
H   H47       1.0  0.62640  0.98880  0.09030  1.0000 0.1387369034
H   H48       1.0  0.98880  0.62640  0.40970  1.0000 0.1387369034
H   H49       1.0  0.65340  0.14440  0.88400  1.0000 0.1387369034
H   H50       1.0  0.14440  0.65340  0.61600  1.0000 0.1387369034
H   H51       1.0  0.34660  0.85560  0.11600  1.0000 0.1387369034
H   H52       1.0  0.85560  0.34660  0.38400  1.0000 0.1387369034
H   H53       1.0  0.74240  0.35520  0.82060  1.0000 0.1115134197
H   H54       1.0  0.35520  0.74240  0.67940  1.0000 0.1115134197
H   H55       1.0  0.25760  0.64480  0.17940  1.0000 0.1115134197
H   H56       1.0  0.64480  0.25760  0.32060  1.0000 0.1115134197
H   H57       1.0  0.25670  0.21130  0.65640  1.0000 0.1311709818
H   H58       1.0  0.21130  0.25670  0.84360  1.0000 0.1311709818
H   H59       1.0  0.74330  0.78870  0.34360  1.0000 0.1311709818
H   H60       1.0  0.78870  0.74330  0.15640  1.0000 0.1311709818
H   H61       1.0  0.23870  0.19890  0.70920  1.0000 0.1387369034
H   H62       1.0  0.19890  0.23870  0.79080  1.0000 0.1387369034
H   H63       1.0  0.76130  0.80110  0.29080  1.0000 0.1387369034
H   H64       1.0  0.80110  0.76130  0.20920  1.0000 0.1387369034
H   H65       1.0  0.13510  0.17430  0.63900  1.0000 0.1311709818
H   H66       1.0  0.17430  0.13510  0.86100  1.0000 0.1311709818
H   H67       1.0  0.86490  0.82570  0.36100  1.0000 0.1311709818
H   H68       1.0  0.82570  0.86490  0.13900  1.0000 0.1311709818
H   H69       1.0  0.20110  0.36670  0.62090  1.0000 0.1387369034
H   H70       1.0  0.36670  0.20110  0.87910  1.0000 0.1387369034
H   H71       1.0  0.79890  0.63330  0.37910  1.0000 0.1387369034
H   H72       1.0  0.63330  0.79890  0.12090  1.0000 0.1387369034
H   H73       1.0  0.29020  0.37420  0.69400  1.0000 0.1474226469
H   H74       1.0  0.37420  0.29020  0.80600  1.0000 0.1474226469
H   H75       1.0  0.70980  0.62580  0.30600  1.0000 0.1474226469
H   H76       1.0  0.62580  0.70980  0.19400  1.0000 0.1474226469
H   H77       1.0  0.36510  0.51510  0.63780  1.0000 0.1115134197
H   H78       1.0  0.51510  0.36510  0.86220  1.0000 0.1115134197
H   H79       1.0  0.63490  0.48490  0.36220  1.0000 0.1115134197
H   H80       1.0  0.48490  0.63490  0.13780  1.0000 0.1115134197
H   H81       1.0  0.69710  0.52430  0.18760  1.0000 0.1115134197
H   H82       1.0  0.52430  0.69710  0.31240  1.0000 0.1115134197
H   H83       1.0  0.30290  0.47570  0.81240  1.0000 0.1115134197
H   H84       1.0  0.47570  0.30290  0.68760  1.0000 0.1115134197
H   H85       1.0  0.70020  0.56960  0.09020  1.0000 0.1311709818
H   H86       1.0  0.56960  0.70020  0.40980  1.0000 0.1311709818
H   H87       1.0  0.29980  0.43040  0.90980  1.0000 0.1311709818
H   H88       1.0  0.43040  0.29980  0.59020  1.0000 0.1311709818
H   H89       1.0  0.49800  0.39320  0.03150  1.0000 0.1387369034
H   H90       1.0  0.39320  0.49800  0.46850  1.0000 0.1387369034
H   H91       1.0  0.50200  0.60680  0.96850  1.0000 0.1387369034
H   H92       1.0  0.60680  0.50200  0.53150  1.0000 0.1387369034
H   H93       1.0  0.29950  0.13270  0.17280  1.0000 0.1311709818
H   H94       1.0  0.13270  0.29950  0.32720  1.0000 0.1311709818
H   H95       1.0  0.70050  0.86730  0.82720  1.0000 0.1311709818
H   H96       1.0  0.86730  0.70050  0.67280  1.0000 0.1311709818
H   H97       1.0  0.13140  0.90040  0.88310  1.0000 0.1311709818
H   H98       1.0  0.90040  0.13140  0.61690  1.0000 0.1311709818
H   H99       1.0  0.86860  0.09960  0.11690  1.0000 0.1311709818
H   H100      1.0  0.09960  0.86860  0.38310  1.0000 0.1311709818
H   H101      1.0  0.18630  0.00270  0.81800  1.0000 0.1311709818
H   H102      1.0  0.00270  0.18630  0.68200  1.0000 0.1311709818
H   H103      1.0  0.81370  0.99730  0.18200  1.0000 0.1311709818
H   H104      1.0  0.99730  0.81370  0.31800  1.0000 0.1311709818
H   H105      1.0  0.09000  0.96960  0.82750  1.0000 0.1387369034
H   H106      1.0  0.96960  0.09000  0.67250  1.0000 0.1387369034
H   H107      1.0  0.91000  0.03040  0.17250  1.0000 0.1387369034
H   H108      1.0  0.03040  0.91000  0.32750  1.0000 0.1387369034
H   H109      1.0  0.93210  0.90110  0.72350  1.0000 0.1474226469
H   H110      1.0  0.90110  0.93210  0.77650  1.0000 0.1474226469
H   H111      1.0  0.06790  0.09890  0.27650  1.0000 0.1474226469
H   H112      1.0  0.09890  0.06790  0.22350  1.0000 0.1474226469
H   H113      1.0  0.01170  0.91450  0.71350  1.0000 0.1387369034
H   H114      1.0  0.91450  0.01170  0.78650  1.0000 0.1387369034
H   H115      1.0  0.98830  0.08550  0.28650  1.0000 0.1387369034
H   H116      1.0  0.08550  0.98830  0.21350  1.0000 0.1387369034
H   H117      1.0  0.84650  0.76810  0.71320  1.0000 0.1115134197
H   H118      1.0  0.76810  0.84650  0.78680  1.0000 0.1115134197
H   H119      1.0  0.15350  0.23190  0.28680  1.0000 0.1115134197
H   H120      1.0  0.23190  0.15350  0.21320  1.0000 0.1115134197
C   C1        1.0  0.32338  0.43542  0.56643  1.0000 0.5590070819
C   C2        1.0  0.43542  0.32338  0.93357  1.0000 0.5590070819
C   C3        1.0  0.67662  0.56458  0.43357  1.0000 0.5590070819
C   C4        1.0  0.56458  0.67662  0.06643  1.0000 0.5590070819
C   C5        1.0  0.33430  0.38630  0.63940  1.0000 0.0104412956
C   C6        1.0  0.38630  0.33430  0.86060  1.0000 0.0104412956
C   C7        1.0  0.66570  0.61370  0.36060  1.0000 0.0104412956
C   C8        1.0  0.61370  0.66570  0.13940  1.0000 0.0104412956
C   C9        1.0  0.48779  0.47501  0.67738  1.0000 0.5590070819
C   C10       1.0  0.47501  0.48779  0.82262  1.0000 0.5590070819
C   C11       1.0  0.51221  0.52499  0.32262  1.0000 0.5590070819
C   C12       1.0  0.52499  0.51221  0.17738  1.0000 0.5590070819
C   C13       1.0  0.93203  0.84917  0.94172  1.0000 0.1019393054
C   C14       1.0  0.84917  0.93203  0.55828  1.0000 0.1019393054
C   C15       1.0  0.06797  0.15083  0.05828  1.0000 0.1019393054
C   C16       1.0  0.15083  0.06797  0.44172  1.0000 0.1019393054
C   C17       1.0  0.02597  0.94623  0.97495  1.0000 -0.1594050566
C   C18       1.0  0.94623  0.02597  0.52505  1.0000 -0.1594050566
C   C19       1.0  0.97403  0.05377  0.02505  1.0000 -0.1594050566
C   C20       1.0  0.05377  0.97403  0.47495  1.0000 -0.1594050566
C   C21       1.0  0.04031  0.90369  0.04066  1.0000 0.0222728499
C   C22       1.0  0.90369  0.04031  0.45934  1.0000 0.0222728499
C   C23       1.0  0.95969  0.09631  0.95934  1.0000 0.0222728499
C   C24       1.0  0.09631  0.95969  0.54066  1.0000 0.0222728499
C   C25       1.0  0.13924  0.99896  0.08214  1.0000 0.4538169985
C   C26       1.0  0.99896  0.13924  0.41786  1.0000 0.4538169985
C   C27       1.0  0.86076  0.00104  0.91786  1.0000 0.4538169985
C   C28       1.0  0.00104  0.86076  0.58214  1.0000 0.4538169985
C   C29       1.0  0.37939  0.24281  0.09785  1.0000 0.2025728745
C   C30       1.0  0.24281  0.37939  0.40215  1.0000 0.2025728745
C   C31       1.0  0.62061  0.75719  0.90215  1.0000 0.2025728745
C   C32       1.0  0.75719  0.62061  0.59785  1.0000 0.2025728745
C   C33       1.0  0.95767  0.76333  0.07038  1.0000 -0.1765132214
C   C34       1.0  0.76333  0.95767  0.42962  1.0000 -0.1765132214
C   C35       1.0  0.04233  0.23667  0.92962  1.0000 -0.1765132214
C   C36       1.0  0.23667  0.04233  0.57038  1.0000 -0.1765132214
C   C37       1.0  0.86703  0.67377  0.03333  1.0000 0.0635108088
C   C38       1.0  0.67377  0.86703  0.46667  1.0000 0.0635108088
C   C39       1.0  0.13297  0.32623  0.96667  1.0000 0.0635108088
C   C40       1.0  0.32623  0.13297  0.53333  1.0000 0.0635108088
C   C41       1.0  0.05395  0.38245  0.00676  1.0000 0.0391198282
C   C42       1.0  0.38245  0.05395  0.49324  1.0000 0.0391198282
C   C43       1.0  0.94605  0.61755  0.99324  1.0000 0.0391198282
C   C44       1.0  0.61755  0.94605  0.50676  1.0000 0.0391198282
C   C45       1.0  0.99256  0.41364  0.97030  1.0000 -0.1157869438
C   C46       1.0  0.41364  0.99256  0.52970  1.0000 -0.1157869438
C   C47       1.0  0.00744  0.58636  0.02970  1.0000 -0.1157869438
C   C48       1.0  0.58636  0.00744  0.47030  1.0000 -0.1157869438
C   C49       1.0  0.07558  0.55222  0.94870  1.0000 -0.1319295431
C   C50       1.0  0.55222  0.07558  0.55130  1.0000 -0.1319295431
C   C51       1.0  0.92442  0.44778  0.05130  1.0000 -0.1319295431
C   C52       1.0  0.44778  0.92442  0.44870  1.0000 -0.1319295431
C   C53       1.0  0.22220  0.65940  0.96429  1.0000 0.2025728745
C   C54       1.0  0.65940  0.22220  0.53571  1.0000 0.2025728745
C   C55       1.0  0.77780  0.34060  0.03571  1.0000 0.2025728745
C   C56       1.0  0.34060  0.77780  0.46429  1.0000 0.2025728745
C   C57       1.0  0.27742  0.61958  0.00256  1.0000 -0.0013605503
C   C58       1.0  0.61958  0.27742  0.49744  1.0000 -0.0013605503
C   C59       1.0  0.72258  0.38042  0.99744  1.0000 -0.0013605503
C   C60       1.0  0.38042  0.72258  0.50256  1.0000 -0.0013605503
C   C61       1.0  0.84752  0.68828  0.83265  1.0000 0.5590070819
C   C62       1.0  0.68828  0.84752  0.66735  1.0000 0.5590070819
C   C63       1.0  0.15248  0.31172  0.16735  1.0000 0.5590070819
C   C64       1.0  0.31172  0.15248  0.33265  1.0000 0.5590070819
C   C65       1.0  0.50886  0.20914  0.85370  1.0000 0.1019393054
C   C66       1.0  0.20914  0.50886  0.64630  1.0000 0.1019393054
C   C67       1.0  0.49114  0.79086  0.14630  1.0000 0.1019393054
C   C68       1.0  0.79086  0.49114  0.35370  1.0000 0.1019393054
C   C69       1.0  0.44966  0.08034  0.89191  1.0000 -0.1594050566
C   C70       1.0  0.08034  0.44966  0.60809  1.0000 -0.1594050566
C   C71       1.0  0.55034  0.91966  0.10809  1.0000 -0.1594050566
C   C72       1.0  0.91966  0.55034  0.39191  1.0000 -0.1594050566
C   C73       1.0  0.50235  0.05365  0.90384  1.0000 0.0222728499
C   C74       1.0  0.05365  0.50235  0.59616  1.0000 0.0222728499
C   C75       1.0  0.49765  0.94635  0.09616  1.0000 0.0222728499
C   C76       1.0  0.94635  0.49765  0.40384  1.0000 0.0222728499
C   C77       1.0  0.44622  0.91738  0.94491  1.0000 0.4538169985
C   C78       1.0  0.91738  0.44622  0.55509  1.0000 0.4538169985
C   C79       1.0  0.55378  0.08262  0.05509  1.0000 0.4538169985
C   C80       1.0  0.08262  0.55378  0.44491  1.0000 0.4538169985
C   C81       1.0  0.61417  0.15903  0.87670  1.0000 -0.1718877668
C   C82       1.0  0.15903  0.61417  0.62330  1.0000 -0.1718877668
C   C83       1.0  0.38583  0.84097  0.12330  1.0000 -0.1718877668
C   C84       1.0  0.84097  0.38583  0.37670  1.0000 -0.1718877668
C   C85       1.0  0.66699  0.28441  0.83930  1.0000 0.0520112252
C   C86       1.0  0.28441  0.66699  0.66070  1.0000 0.0520112252
C   C87       1.0  0.33301  0.71559  0.16070  1.0000 0.0520112252
C   C88       1.0  0.71559  0.33301  0.33930  1.0000 0.0520112252
C   C89       1.0  0.23203  0.22857  0.66312  1.0000 -0.451746541
C   C90       1.0  0.22857  0.23203  0.83688  1.0000 -0.451746541
C   C91       1.0  0.76797  0.77143  0.33688  1.0000 -0.451746541
C   C92       1.0  0.77143  0.76797  0.16312  1.0000 -0.451746541
C   C93       1.0  0.29396  0.41304  0.64892  1.0000 -0.451746541
C   C94       1.0  0.41304  0.29396  0.85108  1.0000 -0.451746541
C   C95       1.0  0.70604  0.58696  0.35108  1.0000 -0.451746541
C   C96       1.0  0.58696  0.70604  0.14892  1.0000 -0.451746541
C   C97       1.0  0.61428  0.45192  0.16410  1.0000 0.0520112252
C   C98       1.0  0.45192  0.61428  0.33590  1.0000 0.0520112252
C   C99       1.0  0.38572  0.54808  0.83590  1.0000 0.0520112252
C   C100      1.0  0.54808  0.38572  0.66410  1.0000 0.0520112252
C   C101      1.0  0.61679  0.47901  0.10650  1.0000 -0.1157869438
C   C102      1.0  0.47901  0.61679  0.39350  1.0000 -0.1157869438
C   C103      1.0  0.38321  0.52099  0.89350  1.0000 -0.1157869438
C   C104      1.0  0.52099  0.38321  0.60650  1.0000 -0.1157869438
C   C105      1.0  0.49818  0.37482  0.07200  1.0000 -0.1319295431
C   C106      1.0  0.37482  0.49818  0.42800  1.0000 -0.1319295431
C   C107      1.0  0.50182  0.62518  0.92800  1.0000 -0.1319295431
C   C108      1.0  0.62518  0.50182  0.57200  1.0000 -0.1319295431
C   C109      1.0  0.38191  0.22229  0.15571  1.0000 -0.0059470912
C   C110      1.0  0.22229  0.38191  0.34429  1.0000 -0.0059470912
C   C111      1.0  0.61809  0.77771  0.84429  1.0000 -0.0059470912
C   C112      1.0  0.77771  0.61809  0.65571  1.0000 -0.0059470912
C   C113      1.0  0.99989  0.74131  0.81688  1.0000 0.5590070819
C   C114      1.0  0.74131  0.99989  0.68312  1.0000 0.5590070819
C   C115      1.0  0.00011  0.25869  0.18312  1.0000 0.5590070819
C   C116      1.0  0.25869  0.00011  0.31688  1.0000 0.5590070819
C   C117      1.0  0.97422  0.80258  0.80595  1.0000 0.0104412956
C   C118      1.0  0.80258  0.97422  0.69405  1.0000 0.0104412956
C   C119      1.0  0.02578  0.19742  0.19405  1.0000 0.0104412956
C   C120      1.0  0.19742  0.02578  0.30595  1.0000 0.0104412956
C   C121      1.0  0.10745  0.93035  0.83638  1.0000 -0.451746541
C   C122      1.0  0.93035  0.10745  0.66362  1.0000 -0.451746541
C   C123      1.0  0.89255  0.06965  0.16362  1.0000 -0.451746541
C   C124      1.0  0.06965  0.89255  0.33638  1.0000 -0.451746541
C   C125      1.0  0.93782  0.85098  0.73228  1.0000 -0.451746541
C   C126      1.0  0.85098  0.93782  0.76772  1.0000 -0.451746541
C   C127      1.0  0.06218  0.14902  0.26772  1.0000 -0.451746541
C   C128      1.0  0.14902  0.06218  0.23228  1.0000 -0.451746541
N   N1        1.0  0.26228  0.13512  0.06412  1.0000 -0.3654483522
N   N2        1.0  0.13512  0.26228  0.43588  1.0000 -0.3654483522
N   N3        1.0  0.73772  0.86488  0.93588  1.0000 -0.3654483522
N   N4        1.0  0.86488  0.73772  0.56412  1.0000 -0.3654483522
N   N5        1.0  0.49733  0.32527  0.18835  1.0000 -0.2113179604
N   N6        1.0  0.32527  0.49733  0.31165  1.0000 -0.2113179604
N   N7        1.0  0.50267  0.67473  0.81165  1.0000 -0.2113179604
N   N8        1.0  0.67473  0.50267  0.68835  1.0000 -0.2113179604
N   N9        1.0  0.85308  0.71492  0.96968  1.0000 -0.2540288645
N   N10       1.0  0.71492  0.85308  0.53032  1.0000 -0.2540288645
N   N11       1.0  0.14692  0.28508  0.03032  1.0000 -0.2540288645
N   N12       1.0  0.28508  0.14692  0.46968  1.0000 -0.2540288645
N   N13       1.0  0.19590  0.48490  0.02313  1.0000 -0.2113179604
N   N14       1.0  0.48490  0.19590  0.47687  1.0000 -0.2113179604
N   N15       1.0  0.80410  0.51510  0.97687  1.0000 -0.2113179604
N   N16       1.0  0.51510  0.80410  0.52313  1.0000 -0.2113179604
N   N17       1.0  0.30380  0.79980  0.93894  1.0000 -0.3639050091
N   N18       1.0  0.79980  0.30380  0.56106  1.0000 -0.3639050091
N   N19       1.0  0.69620  0.20020  0.06106  1.0000 -0.3639050091
N   N20       1.0  0.20020  0.69620  0.43894  1.0000 -0.3639050091
N   N21       1.0  0.61665  0.31175  0.82806  1.0000 -0.2540288645
N   N22       1.0  0.31175  0.61665  0.67194  1.0000 -0.2540288645
N   N23       1.0  0.38335  0.68825  0.17194  1.0000 -0.2540288645
N   N24       1.0  0.68825  0.38335  0.32806  1.0000 -0.2540288645
O   O1        1.0  0.40357  0.56583  0.53897  1.0000 -0.5517407025
O   O2        1.0  0.56583  0.40357  0.96103  1.0000 -0.5517407025
O   O3        1.0  0.59643  0.43417  0.46103  1.0000 -0.5517407025
O   O4        1.0  0.43417  0.59643  0.03897  1.0000 -0.5517407025
O   O5        1.0  0.59000  0.60800  0.65765  1.0000 -0.5296285565
O   O6        1.0  0.60800  0.59000  0.84235  1.0000 -0.5296285565
O   O7        1.0  0.41000  0.39200  0.34235  1.0000 -0.5296285565
O   O8        1.0  0.39200  0.41000  0.15765  1.0000 -0.5296285565
O   O9        1.0  0.10680  0.95360  0.12824  1.0000 -0.451746541
O   O10       1.0  0.95360  0.10680  0.37176  1.0000 -0.451746541
O   O11       1.0  0.89320  0.04640  0.87176  1.0000 -0.451746541
O   O12       1.0  0.04640  0.89320  0.62824  1.0000 -0.451746541
O   O13       1.0  0.86104  0.72156  0.86504  1.0000 -0.500624072
O   O14       1.0  0.72156  0.86104  0.63496  1.0000 -0.500624072
O   O15       1.0  0.13896  0.27844  0.13496  1.0000 -0.500624072
O   O16       1.0  0.27844  0.13896  0.36504  1.0000 -0.500624072
O   O17       1.0  0.73466  0.56474  0.82273  1.0000 -0.5296285565
O   O18       1.0  0.56474  0.73466  0.67727  1.0000 -0.5296285565
O   O19       1.0  0.26534  0.43526  0.17727  1.0000 -0.5296285565
O   O20       1.0  0.43526  0.26534  0.32273  1.0000 -0.5296285565
O   O21       1.0  0.50679  0.41061  0.72729  1.0000 -0.500624072
O   O22       1.0  0.41061  0.50679  0.77271  1.0000 -0.500624072
O   O23       1.0  0.49321  0.58939  0.27271  1.0000 -0.500624072
O   O24       1.0  0.58939  0.49321  0.22729  1.0000 -0.500624072
O   O25       1.0  0.12106  0.80574  0.84170  1.0000 -0.5366714711
O   O26       1.0  0.80574  0.12106  0.65830  1.0000 -0.5366714711
O   O27       1.0  0.87894  0.19426  0.15830  1.0000 -0.5366714711
O   O28       1.0  0.19426  0.87894  0.34170  1.0000 -0.5366714711
O   O29       1.0  0.23270  0.34670  0.53633  1.0000 -0.5296285565
O   O30       1.0  0.34670  0.23270  0.96367  1.0000 -0.5296285565
O   O31       1.0  0.76730  0.65330  0.46367  1.0000 -0.5296285565
O   O32       1.0  0.65330  0.76730  0.03633  1.0000 -0.5296285565
O   O33       1.0  0.52473  0.91607  0.98005  1.0000 -0.451746541
O   O34       1.0  0.91607  0.52473  0.51995  1.0000 -0.451746541
O   O35       1.0  0.47527  0.08393  0.01995  1.0000 -0.451746541
O   O36       1.0  0.08393  0.47527  0.48005  1.0000 -0.451746541
O   O37       1.0  0.89706  0.63154  0.79560  1.0000 -0.5517407025
O   O38       1.0  0.63154  0.89706  0.70440  1.0000 -0.5517407025
O   O39       1.0  0.10294  0.36846  0.20440  1.0000 -0.5517407025
O   O40       1.0  0.36846  0.10294  0.29560  1.0000 -0.5517407025
