# DDEC6 charges by PACMAN v1.1 (https://github.com/mtap-research/PACMAN-charge/)
data_2016[Co][ant]3[FSR]2
_chemical_formula_sum              "Co6 H84 C100 N8 O32"
_cell_length_a       11.5443
_cell_length_b       11.5443
_cell_length_c       28.5659
_cell_angle_alpha    74.0951
_cell_angle_beta     105.905
_cell_angle_gamma    126.306

_symmetry_space_group_name_H-M    "P 1"
_symmetry_Int_Tables_number       1

loop_
  _symmetry_equiv_pos_as_xyz
  'x, y, z'

loop_
  _atom_site_type_symbol
  _atom_site_label
  _atom_site_symmetry_multiplicity
  _atom_site_fract_x
  _atom_site_fract_y
  _atom_site_fract_z
  _atom_site_occupancy
  _atom_site_charge
Co  Co1       1.0  0.90927  0.90927  0.25000  1.0000 0.8534414163
Co  Co2       1.0  0.09073  0.09073  0.75000  1.0000 0.8534414163
Co  Co3       1.0  0.99771  0.15395  0.33702  1.0000 0.9493128053
Co  Co4       1.0  0.15395  0.99771  0.16298  1.0000 0.9493128053
Co  Co5       1.0  0.00229  0.84605  0.66298  1.0000 0.9493128053
Co  Co6       1.0  0.84605  0.00229  0.83702  1.0000 0.9493128053
H   H1        1.0  0.26660  0.25580  0.34250  1.0000 0.3547480098
H   H2        1.0  0.25580  0.26660  0.15750  1.0000 0.3547480098
H   H3        1.0  0.73340  0.74420  0.65750  1.0000 0.3547480098
H   H4        1.0  0.74420  0.73340  0.84250  1.0000 0.3547480098
H   H5        1.0  0.18740  0.14340  0.31220  1.0000 0.3693051329
H   H6        1.0  0.14340  0.18740  0.18780  1.0000 0.3693051329
H   H7        1.0  0.81260  0.85660  0.68780  1.0000 0.3693051329
H   H8        1.0  0.85660  0.81260  0.81220  1.0000 0.3693051329
H   H9        1.0  0.97290  0.45670  0.21720  1.0000 0.1179457492
H   H10       1.0  0.45670  0.97290  0.28280  1.0000 0.1179457492
H   H11       1.0  0.02710  0.54330  0.78280  1.0000 0.1179457492
H   H12       1.0  0.54330  0.02710  0.71720  1.0000 0.1179457492
H   H13       1.0  0.03120  0.43460  0.06860  1.0000 0.1179457492
H   H14       1.0  0.43460  0.03120  0.43140  1.0000 0.1179457492
H   H15       1.0  0.96880  0.56540  0.93140  1.0000 0.1179457492
H   H16       1.0  0.56540  0.96880  0.56860  1.0000 0.1179457492
H   H17       1.0  0.01430  0.26250  0.13340  1.0000 0.1111334463
H   H18       1.0  0.26250  0.01430  0.36660  1.0000 0.1111334463
H   H19       1.0  0.98570  0.73750  0.86660  1.0000 0.1111334463
H   H20       1.0  0.73750  0.98570  0.63340  1.0000 0.1111334463
H   H21       1.0  0.86670  0.67050  0.06650  1.0000 0.1179457492
H   H22       1.0  0.67050  0.86670  0.43350  1.0000 0.1179457492
H   H23       1.0  0.13330  0.32950  0.93350  1.0000 0.1179457492
H   H24       1.0  0.32950  0.13330  0.56650  1.0000 0.1179457492
H   H25       1.0  0.87560  0.82920  0.99500  1.0000 0.1111334463
H   H26       1.0  0.82920  0.87560  0.50500  1.0000 0.1111334463
H   H27       1.0  0.12440  0.17080  0.00500  1.0000 0.1111334463
H   H28       1.0  0.17080  0.12440  0.49500  1.0000 0.1111334463
H   H29       1.0  0.21460  0.86360  0.96710  1.0000 0.1111334463
H   H30       1.0  0.86360  0.21460  0.53290  1.0000 0.1111334463
H   H31       1.0  0.78540  0.13640  0.03290  1.0000 0.1111334463
H   H32       1.0  0.13640  0.78540  0.46710  1.0000 0.1111334463
H   H33       1.0  0.21150  0.70870  0.03900  1.0000 0.1111334463
H   H34       1.0  0.70870  0.21150  0.46100  1.0000 0.1111334463
H   H35       1.0  0.78850  0.29130  0.96100  1.0000 0.1111334463
H   H36       1.0  0.29130  0.78850  0.53900  1.0000 0.1111334463
H   H37       1.0  0.59300  0.68140  0.27140  1.0000 0.0973286201
H   H38       1.0  0.68140  0.59300  0.22860  1.0000 0.0973286201
H   H39       1.0  0.40700  0.31860  0.72860  1.0000 0.0973286201
H   H40       1.0  0.31860  0.40700  0.77140  1.0000 0.0973286201
H   H41       1.0  0.34490  0.61930  0.23810  1.0000 0.1303755111
H   H42       1.0  0.61930  0.34490  0.26190  1.0000 0.1303755111
H   H43       1.0  0.65510  0.38070  0.76190  1.0000 0.1303755111
H   H44       1.0  0.38070  0.65510  0.73810  1.0000 0.1303755111
H   H45       1.0  0.32480  0.77140  0.17470  1.0000 0.1515582195
H   H46       1.0  0.77140  0.32480  0.32530  1.0000 0.1515582195
H   H47       1.0  0.67520  0.22860  0.82530  1.0000 0.1515582195
H   H48       1.0  0.22860  0.67520  0.67470  1.0000 0.1515582195
H   H49       1.0  0.50890  0.94870  0.13700  1.0000 0.1303755111
H   H50       1.0  0.94870  0.50890  0.36300  1.0000 0.1303755111
H   H51       1.0  0.49110  0.05130  0.86300  1.0000 0.1303755111
H   H52       1.0  0.05130  0.49110  0.63700  1.0000 0.1303755111
H   H53       1.0  0.73210  0.00250  0.17300  1.0000 0.1179457492
H   H54       1.0  0.00250  0.73210  0.32700  1.0000 0.1179457492
H   H55       1.0  0.26790  0.99750  0.82700  1.0000 0.1179457492
H   H56       1.0  0.99750  0.26790  0.67300  1.0000 0.1179457492
H   H57       1.0  0.01500  0.27020  0.42290  1.0000 0.1111334463
H   H58       1.0  0.27020  0.01500  0.07710  1.0000 0.1111334463
H   H59       1.0  0.98500  0.72980  0.57710  1.0000 0.1111334463
H   H60       1.0  0.72980  0.98500  0.92290  1.0000 0.1111334463
H   H61       1.0  0.14850  0.48650  0.45650  1.0000 0.136015351
H   H62       1.0  0.48650  0.14850  0.04350  1.0000 0.136015351
H   H63       1.0  0.85150  0.51350  0.54350  1.0000 0.136015351
H   H64       1.0  0.51350  0.85150  0.95650  1.0000 0.136015351
H   H65       1.0  0.30460  0.70240  0.40940  1.0000 0.1179457492
H   H66       1.0  0.70240  0.30460  0.09060  1.0000 0.1179457492
H   H67       1.0  0.69540  0.29760  0.59060  1.0000 0.1179457492
H   H68       1.0  0.29760  0.69540  0.90940  1.0000 0.1179457492
H   H69       1.0  0.35460  0.68940  0.34000  1.0000 0.136015351
H   H70       1.0  0.68940  0.35460  0.16000  1.0000 0.136015351
H   H71       1.0  0.64540  0.31060  0.66000  1.0000 0.136015351
H   H72       1.0  0.31060  0.64540  0.84000  1.0000 0.136015351
H   H73       1.0  0.21270  0.47570  0.30950  1.0000 0.1111334463
H   H74       1.0  0.47570  0.21270  0.19050  1.0000 0.1111334463
H   H75       1.0  0.78730  0.52430  0.69050  1.0000 0.1111334463
H   H76       1.0  0.52430  0.78730  0.80950  1.0000 0.1111334463
H   H77       1.0  0.92730  0.90870  0.34230  1.0000 0.3693051329
H   H78       1.0  0.90870  0.92730  0.15770  1.0000 0.3693051329
H   H79       1.0  0.07270  0.09130  0.65770  1.0000 0.3693051329
H   H80       1.0  0.09130  0.07270  0.84230  1.0000 0.3693051329
H   H81       1.0  0.80200  0.91600  0.31600  1.0000 0.363505005
H   H82       1.0  0.91600  0.80200  0.18400  1.0000 0.363505005
H   H83       1.0  0.19800  0.08400  0.68400  1.0000 0.363505005
H   H84       1.0  0.08400  0.19800  0.81600  1.0000 0.363505005
C   C1        1.0  0.97570  0.22550  0.22570  1.0000 0.5759720198
C   C2        1.0  0.22550  0.97570  0.27430  1.0000 0.5759720198
C   C3        1.0  0.02430  0.77450  0.77430  1.0000 0.5759720198
C   C4        1.0  0.77450  0.02430  0.72570  1.0000 0.5759720198
C   C5        1.0  0.98920  0.33740  0.18320  1.0000 -0.0530562232
C   C6        1.0  0.33740  0.98920  0.31680  1.0000 -0.0530562232
C   C7        1.0  0.01080  0.66260  0.81680  1.0000 -0.0530562232
C   C8        1.0  0.66260  0.01080  0.68320  1.0000 -0.0530562232
C   C9        1.0  0.98590  0.45250  0.18710  1.0000 -0.1391410743
C   C10       1.0  0.45250  0.98590  0.31290  1.0000 -0.1391410743
C   C11       1.0  0.01410  0.54750  0.81290  1.0000 -0.1391410743
C   C12       1.0  0.54750  0.01410  0.68710  1.0000 -0.1391410743
C   C13       1.0  0.00110  0.56130  0.14850  1.0000 -0.0717621156
C   C14       1.0  0.56130  0.00110  0.35150  1.0000 -0.0717621156
C   C15       1.0  0.99890  0.43870  0.85150  1.0000 -0.0717621156
C   C16       1.0  0.43870  0.99890  0.64850  1.0000 -0.0717621156
C   C17       1.0  0.99790  0.68130  0.15750  1.0000 0.5681148759
C   C18       1.0  0.68130  0.99790  0.34250  1.0000 0.5681148759
C   C19       1.0  0.00210  0.31870  0.84250  1.0000 0.5681148759
C   C20       1.0  0.31870  0.00210  0.65750  1.0000 0.5681148759
C   C21       1.0  0.02120  0.55760  0.10260  1.0000 0.0478765881
C   C22       1.0  0.55760  0.02120  0.39740  1.0000 0.0478765881
C   C23       1.0  0.97880  0.44240  0.89740  1.0000 0.0478765881
C   C24       1.0  0.44240  0.97880  0.60260  1.0000 0.0478765881
C   C25       1.0  0.02170  0.44170  0.09880  1.0000 -0.1472698012
C   C26       1.0  0.44170  0.02170  0.40120  1.0000 -0.1472698012
C   C27       1.0  0.97830  0.55830  0.90120  1.0000 -0.1472698012
C   C28       1.0  0.55830  0.97830  0.59880  1.0000 -0.1472698012
C   C29       1.0  0.00930  0.33650  0.13760  1.0000 -0.1199519978
C   C30       1.0  0.33650  0.00930  0.36240  1.0000 -0.1199519978
C   C31       1.0  0.99070  0.66350  0.86240  1.0000 -0.1199519978
C   C32       1.0  0.66350  0.99070  0.63760  1.0000 -0.1199519978
C   C33       1.0  0.03480  0.66800  0.05890  1.0000 0.0766295037
C   C34       1.0  0.66800  0.03480  0.44110  1.0000 0.0766295037
C   C35       1.0  0.96520  0.33200  0.94110  1.0000 0.0766295037
C   C36       1.0  0.33200  0.96520  0.55890  1.0000 0.0766295037
C   C37       1.0  0.93590  0.70730  0.04640  1.0000 -0.1342009166
C   C38       1.0  0.70730  0.93590  0.45360  1.0000 -0.1342009166
C   C39       1.0  0.06410  0.29270  0.95360  1.0000 -0.1342009166
C   C40       1.0  0.29270  0.06410  0.54640  1.0000 -0.1342009166
C   C41       1.0  0.94150  0.80290  0.00330  1.0000 -0.087095254
C   C42       1.0  0.80290  0.94150  0.49670  1.0000 -0.087095254
C   C43       1.0  0.05850  0.19710  0.99670  1.0000 -0.087095254
C   C44       1.0  0.19710  0.05850  0.50330  1.0000 -0.087095254
C   C45       1.0  0.04450  0.85970  0.97230  1.0000 -0.0411934933
C   C46       1.0  0.85970  0.04450  0.52770  1.0000 -0.0411934933
C   C47       1.0  0.95550  0.14030  0.02770  1.0000 -0.0411934933
C   C48       1.0  0.14030  0.95550  0.47230  1.0000 -0.0411934933
C   C49       1.0  0.03970  0.94970  0.92390  1.0000 0.5614756337
C   C50       1.0  0.94970  0.03970  0.57610  1.0000 0.5614756337
C   C51       1.0  0.96030  0.05030  0.07610  1.0000 0.5614756337
C   C52       1.0  0.05030  0.96030  0.42390  1.0000 0.5614756337
C   C53       1.0  0.14310  0.82410  0.98660  1.0000 -0.1132013732
C   C54       1.0  0.82410  0.14310  0.51340  1.0000 -0.1132013732
C   C55       1.0  0.85690  0.17590  0.01340  1.0000 -0.1132013732
C   C56       1.0  0.17590  0.85690  0.48660  1.0000 -0.1132013732
C   C57       1.0  0.14130  0.72970  0.02990  1.0000 -0.1651491494
C   C58       1.0  0.72970  0.14130  0.47010  1.0000 -0.1651491494
C   C59       1.0  0.85870  0.27030  0.97010  1.0000 -0.1651491494
C   C60       1.0  0.27030  0.85870  0.52990  1.0000 -0.1651491494
C   C61       1.0  0.57780  0.73700  0.24320  1.0000 0.1111334463
C   C62       1.0  0.73700  0.57780  0.25680  1.0000 0.1111334463
C   C63       1.0  0.42220  0.26300  0.75680  1.0000 0.1111334463
C   C64       1.0  0.26300  0.42220  0.74320  1.0000 0.1111334463
C   C65       1.0  0.42540  0.69960  0.22400  1.0000 -0.1594637579
C   C66       1.0  0.69960  0.42540  0.27600  1.0000 -0.1594637579
C   C67       1.0  0.57460  0.30040  0.77600  1.0000 -0.1594637579
C   C68       1.0  0.30040  0.57460  0.72400  1.0000 -0.1594637579
C   C69       1.0  0.41560  0.78700  0.18670  1.0000 -0.0411934933
C   C70       1.0  0.78700  0.41560  0.31330  1.0000 -0.0411934933
C   C71       1.0  0.58440  0.21300  0.81330  1.0000 -0.0411934933
C   C72       1.0  0.21300  0.58440  0.68670  1.0000 -0.0411934933
C   C73       1.0  0.52050  0.89150  0.16550  1.0000 -0.1594637579
C   C74       1.0  0.89150  0.52050  0.33450  1.0000 -0.1594637579
C   C75       1.0  0.47950  0.10850  0.83450  1.0000 -0.1594637579
C   C76       1.0  0.10850  0.47950  0.66550  1.0000 -0.1594637579
C   C77       1.0  0.65350  0.91750  0.18650  1.0000 0.067833989
C   C78       1.0  0.91750  0.65350  0.31350  1.0000 0.067833989
C   C79       1.0  0.34650  0.08250  0.81350  1.0000 0.067833989
C   C80       1.0  0.08250  0.34650  0.68650  1.0000 0.067833989
C   C81       1.0  0.08270  0.35630  0.40570  1.0000 0.0973286201
C   C82       1.0  0.35630  0.08270  0.09430  1.0000 0.0973286201
C   C83       1.0  0.91730  0.64370  0.59430  1.0000 0.0973286201
C   C84       1.0  0.64370  0.91730  0.90570  1.0000 0.0973286201
C   C85       1.0  0.16120  0.48620  0.42580  1.0000 -0.1594637579
C   C86       1.0  0.48620  0.16120  0.07420  1.0000 -0.1594637579
C   C87       1.0  0.83880  0.51380  0.57420  1.0000 -0.1594637579
C   C88       1.0  0.51380  0.83880  0.92580  1.0000 -0.1594637579
C   C89       1.0  0.25770  0.61350  0.39860  1.0000 -0.0411934933
C   C90       1.0  0.61350  0.25770  0.10140  1.0000 -0.0411934933
C   C91       1.0  0.74230  0.38650  0.60140  1.0000 -0.0411934933
C   C92       1.0  0.38650  0.74230  0.89860  1.0000 -0.0411934933
C   C93       1.0  0.28250  0.60730  0.35700  1.0000 -0.1391410743
C   C94       1.0  0.60730  0.28250  0.14300  1.0000 -0.1391410743
C   C95       1.0  0.71750  0.39270  0.64300  1.0000 -0.1391410743
C   C96       1.0  0.39270  0.71750  0.85700  1.0000 -0.1391410743
C   C97       1.0  0.19960  0.47720  0.34000  1.0000 0.067833989
C   C98       1.0  0.47720  0.19960  0.16000  1.0000 0.067833989
C   C99       1.0  0.80040  0.52280  0.66000  1.0000 0.067833989
C   C100      1.0  0.52280  0.80040  0.84000  1.0000 0.067833989
N   N1        1.0  0.68540  0.84200  0.22200  1.0000 -0.2358911754
N   N2        1.0  0.84200  0.68540  0.27800  1.0000 -0.2358911754
N   N3        1.0  0.31460  0.15800  0.77800  1.0000 -0.2358911754
N   N4        1.0  0.15800  0.31460  0.72200  1.0000 -0.2358911754
N   N5        1.0  0.10350  0.35490  0.36280  1.0000 -0.2358911754
N   N6        1.0  0.35490  0.10350  0.13720  1.0000 -0.2358911754
N   N7        1.0  0.89650  0.64510  0.63720  1.0000 -0.2358911754
N   N8        1.0  0.64510  0.89650  0.86280  1.0000 -0.2358911754
O   O1        1.0  0.98435  0.12625  0.21925  1.0000 -0.5771420458
O   O2        1.0  0.12625  0.98435  0.28075  1.0000 -0.5771420458
O   O3        1.0  0.01565  0.87375  0.78075  1.0000 -0.5771420458
O   O4        1.0  0.87375  0.01565  0.71925  1.0000 -0.5771420458
O   O5        1.0  0.95403  0.23417  0.26513  1.0000 -0.5565848359
O   O6        1.0  0.23417  0.95403  0.23487  1.0000 -0.5565848359
O   O7        1.0  0.04597  0.76583  0.73487  1.0000 -0.5565848359
O   O8        1.0  0.76583  0.04597  0.76513  1.0000 -0.5565848359
O   O9        1.0  0.88810  0.64690  0.17280  1.0000 -0.5418311888
O   O10       1.0  0.64690  0.88810  0.32720  1.0000 -0.5418311888
O   O11       1.0  0.11190  0.35310  0.82720  1.0000 -0.5418311888
O   O12       1.0  0.35310  0.11190  0.67280  1.0000 -0.5418311888
O   O13       1.0  0.10813  0.80947  0.14893  1.0000 -0.5699757942
O   O14       1.0  0.80947  0.10813  0.35107  1.0000 -0.5699757942
O   O15       1.0  0.89187  0.19053  0.85107  1.0000 -0.5699757942
O   O16       1.0  0.19053  0.89187  0.64893  1.0000 -0.5699757942
O   O17       1.0  0.14520  0.01320  0.90100  1.0000 -0.5418311888
O   O18       1.0  0.01320  0.14520  0.59900  1.0000 -0.5418311888
O   O19       1.0  0.85480  0.98680  0.09900  1.0000 -0.5418311888
O   O20       1.0  0.98680  0.85480  0.40100  1.0000 -0.5418311888
O   O21       1.0  0.92648  0.94852  0.90838  1.0000 -0.5771420458
O   O22       1.0  0.94852  0.92648  0.59162  1.0000 -0.5771420458
O   O23       1.0  0.07352  0.05148  0.09162  1.0000 -0.5771420458
O   O24       1.0  0.05148  0.07352  0.40838  1.0000 -0.5771420458
O   O25       1.0  0.19276  0.21804  0.31836  1.0000 -0.7017523655
O   O26       1.0  0.21804  0.19276  0.18164  1.0000 -0.7017523655
O   O27       1.0  0.80724  0.78196  0.68164  1.0000 -0.7017523655
O   O28       1.0  0.78196  0.80724  0.81836  1.0000 -0.7017523655
O   O29       1.0  0.88768  0.93692  0.31578  1.0000 -0.7354184398
O   O30       1.0  0.93692  0.88768  0.18422  1.0000 -0.7354184398
O   O31       1.0  0.11232  0.06308  0.68422  1.0000 -0.7354184398
O   O32       1.0  0.06308  0.11232  0.81578  1.0000 -0.7349882731
