# DDEC6 charges by PACMAN v1.1 (https://github.com/mtap-research/PACMAN-charge/)
data_2016[Ag][nan]3[FSR]7
_chemical_formula_sum              "Ag16 H64 C96 N16 O32"
_cell_length_a       19.7412
_cell_length_b       19.7412
_cell_length_c       19.7412
_cell_angle_alpha    159.098
_cell_angle_beta     105.986
_cell_angle_gamma    77.9019

_symmetry_space_group_name_H-M    "P 1"
_symmetry_Int_Tables_number       1

loop_
  _symmetry_equiv_pos_as_xyz
  'x, y, z'

loop_
  _atom_site_type_symbol
  _atom_site_label
  _atom_site_symmetry_multiplicity
  _atom_site_fract_x
  _atom_site_fract_y
  _atom_site_fract_z
  _atom_site_occupancy
  _atom_site_charge
Ag  Ag1       1.0  0.06079  0.48611  0.96540  1.0000 0.3633810848
Ag  Ag2       1.0  0.02071  0.09539  0.53460  1.0000 0.3633810848
Ag  Ag3       1.0  0.47929  0.01389  0.07468  1.0000 0.3633810848
Ag  Ag4       1.0  0.43921  0.40461  0.42532  1.0000 0.3633810848
Ag  Ag5       1.0  0.93921  0.51389  0.03460  1.0000 0.3633810848
Ag  Ag6       1.0  0.97929  0.90461  0.46540  1.0000 0.3633810848
Ag  Ag7       1.0  0.52071  0.98611  0.92532  1.0000 0.3633810848
Ag  Ag8       1.0  0.56079  0.59539  0.57468  1.0000 0.3633810848
Ag  Ag9       1.0  0.92711  0.01583  0.97454  1.0000 0.4055413798
Ag  Ag10      1.0  0.54129  0.95257  0.52546  1.0000 0.4055413798
Ag  Ag11      1.0  0.95871  0.48417  0.41128  1.0000 0.4055413798
Ag  Ag12      1.0  0.57289  0.54743  0.08872  1.0000 0.4055413798
Ag  Ag13      1.0  0.07289  0.98417  0.02546  1.0000 0.4055413798
Ag  Ag14      1.0  0.45871  0.04743  0.47454  1.0000 0.4055413798
Ag  Ag15      1.0  0.04129  0.51583  0.58872  1.0000 0.4055413798
Ag  Ag16      1.0  0.42711  0.45257  0.91128  1.0000 0.4055413798
H   H1        1.0  0.19830  0.27950  0.82160  1.0000 0.120508576
H   H2        1.0  0.95790  0.37670  0.67840  1.0000 0.120508576
H   H3        1.0  0.54210  0.22050  0.41880  1.0000 0.120508576
H   H4        1.0  0.30170  0.12330  0.08120  1.0000 0.120508576
H   H5        1.0  0.80170  0.72050  0.17840  1.0000 0.120508576
H   H6        1.0  0.04210  0.62330  0.32160  1.0000 0.120508576
H   H7        1.0  0.45790  0.77950  0.58120  1.0000 0.120508576
H   H8        1.0  0.69830  0.87670  0.91880  1.0000 0.120508576
H   H9        1.0  0.31050  0.26710  0.79740  1.0000 0.120508576
H   H10       1.0  0.96970  0.51310  0.70260  1.0000 0.120508576
H   H11       1.0  0.53030  0.23290  0.54340  1.0000 0.120508576
H   H12       1.0  0.18950  0.98690  0.95660  1.0000 0.120508576
H   H13       1.0  0.68950  0.73290  0.20260  1.0000 0.120508576
H   H14       1.0  0.03030  0.48690  0.29740  1.0000 0.120508576
H   H15       1.0  0.46970  0.76710  0.45660  1.0000 0.120508576
H   H16       1.0  0.81050  0.01310  0.04340  1.0000 0.120508576
H   H17       1.0  0.27710  0.62940  0.98450  1.0000 0.120508576
H   H18       1.0  0.14490  0.29260  0.51550  1.0000 0.120508576
H   H19       1.0  0.35510  0.87060  0.14770  1.0000 0.120508576
H   H20       1.0  0.22290  0.20740  0.35230  1.0000 0.120508576
H   H21       1.0  0.72290  0.37060  0.01550  1.0000 0.120508576
H   H22       1.0  0.85510  0.70740  0.48450  1.0000 0.120508576
H   H23       1.0  0.64490  0.12940  0.85230  1.0000 0.120508576
H   H24       1.0  0.77710  0.79260  0.64770  1.0000 0.120508576
H   H25       1.0  0.16510  0.64520  0.01050  1.0000 0.120508576
H   H26       1.0  0.13470  0.15460  0.48950  1.0000 0.120508576
H   H27       1.0  0.36530  0.85480  0.01990  1.0000 0.120508576
H   H28       1.0  0.33490  0.34540  0.48010  1.0000 0.120508576
H   H29       1.0  0.83490  0.35480  0.98950  1.0000 0.120508576
H   H30       1.0  0.86530  0.84540  0.51050  1.0000 0.120508576
H   H31       1.0  0.63470  0.14520  0.98010  1.0000 0.120508576
H   H32       1.0  0.66510  0.65460  0.51990  1.0000 0.120508576
H   H33       1.0  0.83830  0.90860  0.23270  1.0000 0.120508576
H   H34       1.0  0.17590  0.60560  0.26730  1.0000 0.120508576
H   H35       1.0  0.32410  0.59140  0.42970  1.0000 0.120508576
H   H36       1.0  0.66170  0.89440  0.07030  1.0000 0.120508576
H   H37       1.0  0.16170  0.09140  0.76730  1.0000 0.120508576
H   H38       1.0  0.82410  0.39440  0.73270  1.0000 0.120508576
H   H39       1.0  0.67590  0.40860  0.57030  1.0000 0.120508576
H   H40       1.0  0.33830  0.10560  0.92970  1.0000 0.120508576
H   H41       1.0  0.80080  0.10030  0.31590  1.0000 0.1118066179
H   H42       1.0  0.28440  0.48490  0.18410  1.0000 0.1118066179
H   H43       1.0  0.21560  0.39970  0.20050  1.0000 0.1118066179
H   H44       1.0  0.69920  0.01510  0.29950  1.0000 0.1118066179
H   H45       1.0  0.19920  0.89970  0.68410  1.0000 0.1118066179
H   H46       1.0  0.71560  0.51510  0.81590  1.0000 0.1118066179
H   H47       1.0  0.78440  0.60030  0.79950  1.0000 0.1118066179
H   H48       1.0  0.30080  0.98490  0.70050  1.0000 0.1118066179
H   H49       1.0  0.86430  0.14700  0.27770  1.0000 0.1118066179
H   H50       1.0  0.36930  0.58660  0.22230  1.0000 0.1118066179
H   H51       1.0  0.13070  0.35300  0.21730  1.0000 0.1118066179
H   H52       1.0  0.63570  0.91340  0.28270  1.0000 0.1118066179
H   H53       1.0  0.13570  0.85300  0.72230  1.0000 0.1118066179
H   H54       1.0  0.63070  0.41340  0.77770  1.0000 0.1118066179
H   H55       1.0  0.86930  0.64700  0.78270  1.0000 0.1118066179
H   H56       1.0  0.36430  0.08660  0.71730  1.0000 0.1118066179
H   H57       1.0  0.00600  0.81360  0.07360  1.0000 0.120508576
H   H58       1.0  0.24000  0.93240  0.42640  1.0000 0.120508576
H   H59       1.0  0.26000  0.68640  0.69240  1.0000 0.120508576
H   H60       1.0  0.49400  0.56760  0.80760  1.0000 0.120508576
H   H61       1.0  0.99400  0.18640  0.92640  1.0000 0.120508576
H   H62       1.0  0.76000  0.06760  0.57360  1.0000 0.120508576
H   H63       1.0  0.74000  0.31360  0.30760  1.0000 0.120508576
H   H64       1.0  0.50600  0.43240  0.19240  1.0000 0.120508576
C   C1        1.0  0.21360  0.35430  0.85710  1.0000 0.0437970919
C   C2        1.0  0.99720  0.35650  0.64290  1.0000 0.0437970919
C   C3        1.0  0.50280  0.14570  0.35930  1.0000 0.0437970919
C   C4        1.0  0.28640  0.14350  0.14070  1.0000 0.0437970919
C   C5        1.0  0.78640  0.64570  0.14290  1.0000 0.0437970919
C   C6        1.0  0.00280  0.64350  0.35710  1.0000 0.0437970919
C   C7        1.0  0.49720  0.85430  0.64070  1.0000 0.0437970919
C   C8        1.0  0.71360  0.85650  0.85930  1.0000 0.0437970919
C   C9        1.0  0.28100  0.34770  0.84330  1.0000 0.0310024807
C   C10       1.0  0.00440  0.43770  0.65670  1.0000 0.0310024807
C   C11       1.0  0.49560  0.15230  0.43330  1.0000 0.0310024807
C   C12       1.0  0.21900  0.06230  0.06670  1.0000 0.0310024807
C   C13       1.0  0.71900  0.65230  0.15670  1.0000 0.0310024807
C   C14       1.0  0.99560  0.56230  0.34330  1.0000 0.0310024807
C   C15       1.0  0.50440  0.84770  0.56670  1.0000 0.0310024807
C   C16       1.0  0.78100  0.93770  0.93330  1.0000 0.0310024807
C   C17       1.0  0.26172  0.55632  0.95100  1.0000 0.0020193
C   C18       1.0  0.10532  0.31072  0.54900  1.0000 0.0020193
C   C19       1.0  0.39468  0.94368  0.20540  1.0000 0.0020193
C   C20       1.0  0.23828  0.18928  0.29460  1.0000 0.0020193
C   C21       1.0  0.73828  0.44368  0.04900  1.0000 0.0020193
C   C22       1.0  0.89468  0.68928  0.45100  1.0000 0.0020193
C   C23       1.0  0.60532  0.05632  0.79460  1.0000 0.0020193
C   C24       1.0  0.76172  0.81072  0.70540  1.0000 0.0020193
C   C25       1.0  0.19459  0.56549  0.96610  1.0000 0.0310024807
C   C26       1.0  0.09939  0.22849  0.53390  1.0000 0.0310024807
C   C27       1.0  0.40061  0.93451  0.12910  1.0000 0.0310024807
C   C28       1.0  0.30541  0.27151  0.37090  1.0000 0.0310024807
C   C29       1.0  0.80541  0.43451  0.03390  1.0000 0.0310024807
C   C30       1.0  0.90061  0.77151  0.46610  1.0000 0.0310024807
C   C31       1.0  0.59939  0.06549  0.87090  1.0000 0.0310024807
C   C32       1.0  0.69459  0.72849  0.62910  1.0000 0.0310024807
C   C33       1.0  0.95370  0.72470  0.09840  1.0000 0.5330286966
C   C34       1.0  0.12630  0.85530  0.40160  1.0000 0.5330286966
C   C35       1.0  0.37370  0.77530  0.72900  1.0000 0.5330286966
C   C36       1.0  0.54630  0.64470  0.77100  1.0000 0.5330286966
C   C37       1.0  0.04630  0.27530  0.90160  1.0000 0.5330286966
C   C38       1.0  0.87370  0.14470  0.59840  1.0000 0.5330286966
C   C39       1.0  0.62630  0.22470  0.27100  1.0000 0.5330286966
C   C40       1.0  0.45370  0.35530  0.22900  1.0000 0.5330286966
C   C41       1.0  0.92612  0.84242  0.14510  1.0000 -0.0240359969
C   C42       1.0  0.19732  0.78102  0.35490  1.0000 -0.0240359969
C   C43       1.0  0.30268  0.65758  0.58370  1.0000 -0.0240359969
C   C44       1.0  0.57388  0.71898  0.91630  1.0000 -0.0240359969
C   C45       1.0  0.07388  0.15758  0.85490  1.0000 -0.0240359969
C   C46       1.0  0.80268  0.21898  0.64510  1.0000 -0.0240359969
C   C47       1.0  0.69732  0.34242  0.41630  1.0000 -0.0240359969
C   C48       1.0  0.42612  0.28102  0.08370  1.0000 -0.0240359969
C   C49       1.0  0.86480  0.92800  0.21720  1.0000 -0.1011935916
C   C50       1.0  0.21080  0.64760  0.28280  1.0000 -0.1011935916
C   C51       1.0  0.28920  0.57200  0.43680  1.0000 -0.1011935916
C   C52       1.0  0.63520  0.85240  0.06320  1.0000 -0.1011935916
C   C53       1.0  0.13520  0.07200  0.78280  1.0000 -0.1011935916
C   C54       1.0  0.78920  0.35240  0.71720  1.0000 -0.1011935916
C   C55       1.0  0.71080  0.42800  0.56320  1.0000 -0.1011935916
C   C56       1.0  0.36480  0.14760  0.93680  1.0000 -0.1011935916
C   C57       1.0  0.84240  0.04120  0.26600  1.0000 -0.1011935916
C   C58       1.0  0.27520  0.57640  0.23400  1.0000 -0.1073898727
C   C59       1.0  0.22480  0.45880  0.30120  1.0000 -0.1073898727
C   C60       1.0  0.65760  0.92360  0.19880  1.0000 -0.1073898727
C   C61       1.0  0.15760  0.95880  0.73400  1.0000 -0.1073898727
C   C62       1.0  0.72480  0.42360  0.76600  1.0000 -0.1073898727
C   C63       1.0  0.77520  0.54120  0.69880  1.0000 -0.1073898727
C   C64       1.0  0.34240  0.07640  0.80120  1.0000 -0.1073898727
C   C65       1.0  0.87990  0.06790  0.24240  1.0000 -0.1073898727
C   C66       1.0  0.32550  0.63750  0.25760  1.0000 -0.1073898727
C   C67       1.0  0.17450  0.43210  0.31200  1.0000 -0.1073898727
C   C68       1.0  0.62010  0.86250  0.18800  1.0000 -0.1073898727
C   C69       1.0  0.12010  0.93210  0.75760  1.0000 -0.1073898727
C   C70       1.0  0.67450  0.36250  0.74240  1.0000 -0.1073898727
C   C71       1.0  0.82550  0.56790  0.68800  1.0000 -0.1073898727
C   C72       1.0  0.37990  0.13750  0.81200  1.0000 -0.1073898727
C   C73       1.0  0.94070  0.98240  0.16810  1.0000 -0.0349615991
C   C74       1.0  0.31430  0.77260  0.33190  1.0000 -0.0349615991
C   C75       1.0  0.18570  0.51760  0.45830  1.0000 -0.0349615991
C   C76       1.0  0.55930  0.72740  0.04170  1.0000 -0.0349615991
C   C77       1.0  0.05930  0.01760  0.83190  1.0000 -0.0351134344
C   C78       1.0  0.68570  0.22740  0.66810  1.0000 -0.0351134344
C   C79       1.0  0.81430  0.48240  0.54170  1.0000 -0.0349615991
C   C80       1.0  0.44070  0.27260  0.95830  1.0000 -0.0349615991
C   C81       1.0  0.96398  0.87078  0.12160  1.0000 -0.1382148956
C   C82       1.0  0.24918  0.84238  0.37840  1.0000 -0.1382148956
C   C83       1.0  0.25082  0.62922  0.59320  1.0000 -0.1382148956
C   C84       1.0  0.53602  0.65762  0.90680  1.0000 -0.1382148956
C   C85       1.0  0.03602  0.12922  0.87840  1.0000 -0.1382148956
C   C86       1.0  0.75082  0.15762  0.62160  1.0000 -0.1382148956
C   C87       1.0  0.74918  0.37078  0.40680  1.0000 -0.1382148956
C   C88       1.0  0.46398  0.34238  0.09320  1.0000 -0.1382148956
C   C89       1.0  0.97910  0.00750  0.13620  1.0000 0.5486707286
C   C90       1.0  0.37130  0.84290  0.36380  1.0000 0.5486707286
C   C91       1.0  0.12870  0.49250  0.47160  1.0000 0.5486707286
C   C92       1.0  0.52090  0.65710  0.02840  1.0000 0.5486707286
C   C93       1.0  0.02090  0.99250  0.86380  1.0000 0.5486707286
C   C94       1.0  0.62870  0.15710  0.63620  1.0000 0.5486707286
C   C95       1.0  0.87130  0.50750  0.52840  1.0000 0.5486707286
C   C96       1.0  0.47910  0.34290  0.97160  1.0000 0.5486707286
N   N1        1.0  0.16993  0.46505  0.91988  1.0000 -0.163238044
N   N2        1.0  0.04517  0.25005  0.58012  1.0000 -0.163238044
N   N3        1.0  0.45483  0.03495  0.20488  1.0000 -0.163238044
N   N4        1.0  0.33007  0.24995  0.29512  1.0000 -0.163238044
N   N5        1.0  0.83007  0.53495  0.08012  1.0000 -0.163238044
N   N6        1.0  0.95483  0.74995  0.41988  1.0000 -0.163238044
N   N7        1.0  0.54517  0.96505  0.79512  1.0000 -0.163238044
N   N8        1.0  0.66993  0.75005  0.70488  1.0000 -0.163238044
N   N9        1.0  0.30583  0.44843  0.89100  1.0000 -0.1382148956
N   N10       1.0  0.05743  0.41483  0.60900  1.0000 -0.1382148956
N   N11       1.0  0.44257  0.05157  0.35740  1.0000 -0.1382148956
N   N12       1.0  0.19417  0.08517  0.14260  1.0000 -0.1382148956
N   N13       1.0  0.69417  0.55157  0.10900  1.0000 -0.1382148956
N   N14       1.0  0.94257  0.58517  0.39100  1.0000 -0.1382148956
N   N15       1.0  0.55743  0.94843  0.64260  1.0000 -0.1382148956
N   N16       1.0  0.80583  0.91483  0.85740  1.0000 -0.1382148956
O   O1        1.0  0.01001  0.65920  0.04101  1.0000 -0.4977507099
O   O2        1.0  0.11819  0.96900  0.45899  1.0000 -0.4977507099
O   O3        1.0  0.38181  0.84080  0.85081  1.0000 -0.4977507099
O   O4        1.0  0.48999  0.53100  0.64919  1.0000 -0.4977507099
O   O5        1.0  0.98999  0.34080  0.95899  1.0000 -0.4977507099
O   O6        1.0  0.88181  0.03100  0.54101  1.0000 -0.4977507099
O   O7        1.0  0.61819  0.15920  0.14919  1.0000 -0.4977507099
O   O8        1.0  0.51001  0.46900  0.35081  1.0000 -0.4977507099
O   O9        1.0  0.91621  0.70245  0.12036  1.0000 -0.5191957756
O   O10       1.0  0.08209  0.79585  0.37964  1.0000 -0.5191957756
O   O11       1.0  0.41791  0.79755  0.71376  1.0000 -0.5191957756
O   O12       1.0  0.58379  0.70415  0.78624  1.0000 -0.5191957756
O   O13       1.0  0.08379  0.29755  0.87964  1.0000 -0.5191957756
O   O14       1.0  0.91791  0.20415  0.62036  1.0000 -0.5191957756
O   O15       1.0  0.58209  0.20245  0.28624  1.0000 -0.5191957756
O   O16       1.0  0.41621  0.29585  0.21376  1.0000 -0.5191957756
O   O17       1.0  0.03472  0.92895  0.07017  1.0000 -0.5283359095
O   O18       1.0  0.35878  0.96455  0.42983  1.0000 -0.5283359095
O   O19       1.0  0.14122  0.57105  0.60577  1.0000 -0.5283359095
O   O20       1.0  0.46528  0.53545  0.89423  1.0000 -0.5283359095
O   O21       1.0  0.96528  0.07105  0.92983  1.0000 -0.5283359095
O   O22       1.0  0.64122  0.03545  0.57017  1.0000 -0.5283359095
O   O23       1.0  0.85878  0.42895  0.39423  1.0000 -0.5283359095
O   O24       1.0  0.53472  0.46455  0.10577  1.0000 -0.5283359095
O   O25       1.0  0.95270  0.10196  0.17154  1.0000 -0.5459233477
O   O26       1.0  0.43042  0.78116  0.32846  1.0000 -0.5459233477
O   O27       1.0  0.06958  0.39804  0.35074  1.0000 -0.5459233477
O   O28       1.0  0.54730  0.71884  0.14926  1.0000 -0.5459233477
O   O29       1.0  0.04730  0.89804  0.82846  1.0000 -0.5459233477
O   O30       1.0  0.56958  0.21884  0.67154  1.0000 -0.5459233477
O   O31       1.0  0.93042  0.60196  0.64926  1.0000 -0.5459233477
O   O32       1.0  0.45270  0.28116  0.85074  1.0000 -0.5459233477
