# DDEC6 charges by PACMAN v1.1 (https://github.com/mtap-research/PACMAN-charge/)
data_2016[Cd][ftb]3[FSR]1
_chemical_formula_sum              "Cd4 H108 C98 N12 O16"
_cell_length_a       12.372
_cell_length_b       12.372
_cell_length_c       20.6839
_cell_angle_alpha    90
_cell_angle_beta     90
_cell_angle_gamma    112.945

_symmetry_space_group_name_H-M    "P 1"
_symmetry_Int_Tables_number       1

loop_
  _symmetry_equiv_pos_as_xyz
  'x, y, z'

loop_
  _atom_site_type_symbol
  _atom_site_label
  _atom_site_symmetry_multiplicity
  _atom_site_fract_x
  _atom_site_fract_y
  _atom_site_fract_z
  _atom_site_occupancy
  _atom_site_charge
Cd  Cd1       1.0  0.95555  0.29933  0.93956  1.0000 0.7581699094
Cd  Cd2       1.0  0.04445  0.70067  0.43956  1.0000 0.7581699094
Cd  Cd3       1.0  0.70067  0.04445  0.56044  1.0000 0.7581699094
Cd  Cd4       1.0  0.29933  0.95555  0.06044  1.0000 0.7581699094
H   H1        1.0  0.05940  0.17200  0.04680  1.0000 0.120191064
H   H2        1.0  0.94060  0.82800  0.54680  1.0000 0.120191064
H   H3        1.0  0.82800  0.94060  0.45320  1.0000 0.120191064
H   H4        1.0  0.17200  0.05940  0.95320  1.0000 0.120191064
H   H5        1.0  0.73530  0.09210  0.99770  1.0000 0.101118606
H   H6        1.0  0.26470  0.90790  0.49770  1.0000 0.101118606
H   H7        1.0  0.90790  0.26470  0.50230  1.0000 0.101118606
H   H8        1.0  0.09210  0.73530  0.00230  1.0000 0.101118606
H   H9        1.0  0.87580  0.48700  0.86560  1.0000 0.101118606
H   H10       1.0  0.12420  0.51300  0.36560  1.0000 0.101118606
H   H11       1.0  0.51300  0.12420  0.63440  1.0000 0.101118606
H   H12       1.0  0.48700  0.87580  0.13440  1.0000 0.101118606
H   H13       1.0  0.16430  0.44030  0.83490  1.0000 0.109326081
H   H14       1.0  0.83570  0.55970  0.33490  1.0000 0.109326081
H   H15       1.0  0.55970  0.83570  0.66510  1.0000 0.109326081
H   H16       1.0  0.44030  0.16430  0.16510  1.0000 0.109326081
H   H17       1.0  0.61770  0.13070  0.80400  1.0000 0.109326081
H   H18       1.0  0.38230  0.86930  0.30400  1.0000 0.109326081
H   H19       1.0  0.86930  0.38230  0.69600  1.0000 0.109326081
H   H20       1.0  0.13070  0.61770  0.19600  1.0000 0.101118606
H   H21       1.0  0.71050  0.10050  0.76430  1.0000 0.129340086
H   H22       1.0  0.28950  0.89950  0.26430  1.0000 0.129340086
H   H23       1.0  0.89950  0.28950  0.73570  1.0000 0.129340086
H   H24       1.0  0.10050  0.71050  0.23570  1.0000 0.129340086
H   H25       1.0  0.35860  0.42480  0.90790  1.0000 0.109326081
H   H26       1.0  0.64140  0.57520  0.40790  1.0000 0.109326081
H   H27       1.0  0.57520  0.64140  0.59210  1.0000 0.109326081
H   H28       1.0  0.42480  0.35860  0.09210  1.0000 0.109326081
H   H29       1.0  0.32790  0.29430  0.92780  1.0000 0.129340086
H   H30       1.0  0.67210  0.70570  0.42780  1.0000 0.129340086
H   H31       1.0  0.70570  0.67210  0.57220  1.0000 0.129340086
H   H32       1.0  0.29430  0.32790  0.07220  1.0000 0.129340086
H   H33       1.0  0.01090  0.01130  0.11000  1.0000 0.1614134604
H   H34       1.0  0.98910  0.98870  0.61000  1.0000 0.1614134604
H   H35       1.0  0.98870  0.98910  0.39000  1.0000 0.1614134604
H   H36       1.0  0.01130  0.01090  0.89000  1.0000 0.1614134604
H   H37       1.0  0.67460  0.92720  0.06100  1.0000 0.129340086
H   H38       1.0  0.32540  0.07280  0.56100  1.0000 0.129340086
H   H39       1.0  0.07280  0.32540  0.43900  1.0000 0.129340086
H   H40       1.0  0.92720  0.67460  0.93900  1.0000 0.129340086
H   H41       1.0  0.91990  0.62550  0.78780  1.0000 0.138999266
H   H42       1.0  0.08010  0.37450  0.28780  1.0000 0.138999266
H   H43       1.0  0.37450  0.08010  0.71220  1.0000 0.138999266
H   H44       1.0  0.62550  0.91990  0.21220  1.0000 0.138999266
H   H45       1.0  0.22340  0.58780  0.75880  1.0000 0.129340086
H   H46       1.0  0.77660  0.41220  0.25880  1.0000 0.129340086
H   H47       1.0  0.41220  0.77660  0.74120  1.0000 0.129340086
H   H48       1.0  0.58780  0.22340  0.24120  1.0000 0.129340086
H   H49       1.0  0.73230  0.33050  0.78060  1.0000 0.0870661749
H   H50       1.0  0.26770  0.66950  0.28060  1.0000 0.0870661749
H   H51       1.0  0.66950  0.26770  0.71940  1.0000 0.0870661749
H   H52       1.0  0.33050  0.73230  0.21940  1.0000 0.0870661749
H   H53       1.0  0.41510  0.48610  0.01220  1.0000 0.0820964402
H   H54       1.0  0.58490  0.51390  0.51220  1.0000 0.0820964402
H   H55       1.0  0.51390  0.58490  0.48780  1.0000 0.0820964402
H   H56       1.0  0.48610  0.41510  0.98780  1.0000 0.0820964402
H   H57       1.0  0.71760  0.81440  0.14620  1.0000 0.109326081
H   H58       1.0  0.28240  0.18560  0.64620  1.0000 0.109326081
H   H59       1.0  0.18560  0.28240  0.35380  1.0000 0.109326081
H   H60       1.0  0.81440  0.71760  0.85380  1.0000 0.109326081
H   H61       1.0  0.84500  0.85900  0.17510  1.0000 0.129340086
H   H62       1.0  0.15500  0.14100  0.67510  1.0000 0.129340086
H   H63       1.0  0.14100  0.15500  0.32490  1.0000 0.129340086
H   H64       1.0  0.85900  0.84500  0.82490  1.0000 0.129340086
H   H65       1.0  0.04780  0.71500  0.68870  1.0000 0.120191064
H   H66       1.0  0.95220  0.28500  0.18870  1.0000 0.120191064
H   H67       1.0  0.28500  0.95220  0.81130  1.0000 0.120191064
H   H68       1.0  0.71500  0.04780  0.31130  1.0000 0.120191064
H   H69       1.0  0.17790  0.72430  0.69010  1.0000 0.120191064
H   H70       1.0  0.82210  0.27570  0.19010  1.0000 0.120191064
H   H71       1.0  0.27570  0.82210  0.80990  1.0000 0.120191064
H   H72       1.0  0.72430  0.17790  0.30990  1.0000 0.120191064
H   H73       1.0  0.90610  0.77350  0.08900  1.0000 0.109326081
H   H74       1.0  0.09390  0.22650  0.58900  1.0000 0.109326081
H   H75       1.0  0.22650  0.09390  0.41100  1.0000 0.109326081
H   H76       1.0  0.77350  0.90610  0.91100  1.0000 0.109326081
H   H77       1.0  0.78130  0.73270  0.05760  1.0000 0.101118606
H   H78       1.0  0.21870  0.26730  0.55760  1.0000 0.101118606
H   H79       1.0  0.26730  0.21870  0.44240  1.0000 0.101118606
H   H80       1.0  0.73270  0.78130  0.94240  1.0000 0.101118606
H   H81       1.0  0.16210  0.90970  0.72110  1.0000 0.101118606
H   H82       1.0  0.83790  0.09030  0.22110  1.0000 0.101118606
H   H83       1.0  0.09030  0.83790  0.77890  1.0000 0.101118606
H   H84       1.0  0.90970  0.16210  0.27890  1.0000 0.101118606
H   H85       1.0  0.82380  0.64120  0.17640  1.0000 0.120191064
H   H86       1.0  0.17620  0.35880  0.67640  1.0000 0.120191064
H   H87       1.0  0.35880  0.17620  0.32360  1.0000 0.120191064
H   H88       1.0  0.64120  0.82380  0.82360  1.0000 0.120191064
H   H89       1.0  0.70130  0.59710  0.14160  1.0000 0.120191064
H   H90       1.0  0.29870  0.40290  0.64160  1.0000 0.120191064
H   H91       1.0  0.40290  0.29870  0.35840  1.0000 0.120191064
H   H92       1.0  0.59710  0.70130  0.85840  1.0000 0.120191064
H   H93       1.0  0.97990  0.58930  0.12660  1.0000 0.138999266
H   H94       1.0  0.02010  0.41070  0.62660  1.0000 0.138999266
H   H95       1.0  0.41070  0.02010  0.37340  1.0000 0.138999266
H   H96       1.0  0.58930  0.97990  0.87340  1.0000 0.138999266
H   H97       1.0  0.66540  0.45920  0.05170  1.0000 0.1507898806
H   H98       1.0  0.33460  0.54080  0.55170  1.0000 0.1507898806
H   H99       1.0  0.54080  0.33460  0.44830  1.0000 0.1507898806
H   H100      1.0  0.45920  0.66540  0.94830  1.0000 0.1507898806
H   H101      1.0  0.03710  0.48230  0.05560  1.0000 0.120191064
H   H102      1.0  0.96290  0.51770  0.55560  1.0000 0.120191064
H   H103      1.0  0.51770  0.96290  0.44440  1.0000 0.120191064
H   H104      1.0  0.48230  0.03710  0.94440  1.0000 0.120191064
H   H105      1.0  0.73160  0.35740  0.98200  1.0000 0.120191064
H   H106      1.0  0.26840  0.64260  0.48200  1.0000 0.120191064
H   H107      1.0  0.64260  0.26840  0.51800  1.0000 0.120191064
H   H108      1.0  0.35740  0.73160  0.01800  1.0000 0.120191064
C   C1        1.0  0.77890  0.18750  0.84940  1.0000 0.5945609709
C   C2        1.0  0.22110  0.81250  0.34940  1.0000 0.5945609709
C   C3        1.0  0.81250  0.22110  0.65060  1.0000 0.5945609709
C   C4        1.0  0.18750  0.77890  0.15060  1.0000 0.5945609709
C   C5        1.0  0.20200  0.35220  0.95380  1.0000 0.598963221
C   C6        1.0  0.79800  0.64780  0.45380  1.0000 0.598963221
C   C7        1.0  0.64780  0.79800  0.54620  1.0000 0.598963221
C   C8        1.0  0.35220  0.20200  0.04620  1.0000 0.598963221
C   C9        1.0  0.98090  0.12170  0.04960  1.0000 0.0820964402
C   C10       1.0  0.01910  0.87830  0.54960  1.0000 0.0820964402
C   C11       1.0  0.87830  0.01910  0.45040  1.0000 0.0820964402
C   C12       1.0  0.12170  0.98090  0.95040  1.0000 0.0820964402
C   C13       1.0  0.79120  0.07520  0.02090  1.0000 0.0621801088
C   C14       1.0  0.20880  0.92480  0.52090  1.0000 0.0621801088
C   C15       1.0  0.92480  0.20880  0.47910  1.0000 0.0621801088
C   C16       1.0  0.07520  0.79120  0.97910  1.0000 0.0621801088
C   C17       1.0  0.94640  0.50680  0.84350  1.0000 0.068599203
C   C18       1.0  0.05360  0.49320  0.34350  1.0000 0.068599203
C   C19       1.0  0.49320  0.05360  0.65650  1.0000 0.068599203
C   C20       1.0  0.50680  0.94640  0.15650  1.0000 0.068599203
C   C21       1.0  0.11580  0.48020  0.82620  1.0000 0.0870661749
C   C22       1.0  0.88420  0.51980  0.32620  1.0000 0.0870661749
C   C23       1.0  0.51980  0.88420  0.67380  1.0000 0.0870661749
C   C24       1.0  0.48020  0.11580  0.17380  1.0000 0.0870661749
C   C25       1.0  0.69900  0.16040  0.79030  1.0000 -0.3420768032
C   C26       1.0  0.30100  0.83960  0.29030  1.0000 -0.3420768032
C   C27       1.0  0.83960  0.30100  0.70970  1.0000 -0.3420768032
C   C28       1.0  0.16040  0.69900  0.20970  1.0000 -0.3420768032
C   C29       1.0  0.32720  0.36840  0.94260  1.0000 -0.3420768032
C   C30       1.0  0.67280  0.63160  0.44260  1.0000 -0.3420768032
C   C31       1.0  0.63160  0.67280  0.55740  1.0000 -0.3420768032
C   C32       1.0  0.36840  0.32720  0.05740  1.0000 -0.3420768032
C   C33       1.0  0.95270  0.02610  0.08790  1.0000 -0.2031418593
C   C34       1.0  0.04730  0.97390  0.58790  1.0000 -0.2031418593
C   C35       1.0  0.97390  0.04730  0.41210  1.0000 -0.2031418593
C   C36       1.0  0.02610  0.95270  0.91210  1.0000 -0.2031418593
C   C37       1.0  0.75370  0.97610  0.05890  1.0000 -0.220677624
C   C38       1.0  0.24630  0.02390  0.55890  1.0000 -0.220677624
C   C39       1.0  0.02390  0.24630  0.44110  1.0000 -0.220677624
C   C40       1.0  0.97610  0.75370  0.94110  1.0000 -0.220677624
C   C41       1.0  0.97310  0.59150  0.79760  1.0000 -0.2115539653
C   C42       1.0  0.02690  0.40850  0.29760  1.0000 -0.2115539653
C   C43       1.0  0.40850  0.02690  0.70240  1.0000 -0.2115539653
C   C44       1.0  0.59150  0.97310  0.20240  1.0000 -0.2115539653
C   C45       1.0  0.15170  0.56870  0.77980  1.0000 -0.220677624
C   C46       1.0  0.84830  0.43130  0.27980  1.0000 -0.220677624
C   C47       1.0  0.43130  0.84830  0.72020  1.0000 -0.220677624
C   C48       1.0  0.56870  0.15170  0.22020  1.0000 -0.220677624
C   C49       1.0  0.72750  0.27250  0.75000  1.0000 -0.1071310626
C   C50       1.0  0.27250  0.72750  0.25000  1.0000 -0.1071310626
C   C51       1.0  0.40920  0.40920  0.00000  1.0000 -0.1071310626
C   C52       1.0  0.59080  0.59080  0.50000  1.0000 -0.1071310626
C   C53       1.0  0.83560  0.95040  0.09400  1.0000 0.1614134604
C   C54       1.0  0.16440  0.04960  0.59400  1.0000 0.1614134604
C   C55       1.0  0.04960  0.16440  0.40600  1.0000 0.1614134604
C   C56       1.0  0.95040  0.83560  0.90600  1.0000 0.1614134604
C   C57       1.0  0.08040  0.62800  0.76490  1.0000 0.1682977094
C   C58       1.0  0.91960  0.37200  0.26490  1.0000 0.1682977094
C   C59       1.0  0.37200  0.91960  0.73510  1.0000 0.1682977094
C   C60       1.0  0.62800  0.08040  0.23510  1.0000 0.1682977094
C   C61       1.0  0.80030  0.84130  0.13520  1.0000 -0.259123175
C   C62       1.0  0.19970  0.15870  0.63520  1.0000 -0.259123175
C   C63       1.0  0.15870  0.19970  0.36480  1.0000 -0.259123175
C   C64       1.0  0.84130  0.80030  0.86480  1.0000 -0.259123175
C   C65       1.0  0.11400  0.72620  0.71680  1.0000 -0.259123175
C   C66       1.0  0.88600  0.27380  0.21680  1.0000 -0.259123175
C   C67       1.0  0.27380  0.88600  0.78320  1.0000 -0.259123175
C   C68       1.0  0.72620  0.11400  0.28320  1.0000 -0.259123175
C   C69       1.0  0.82290  0.74590  0.09850  1.0000 -0.1384978319
C   C70       1.0  0.17710  0.25410  0.59850  1.0000 -0.1384978319
C   C71       1.0  0.25410  0.17710  0.40150  1.0000 -0.1384978319
C   C72       1.0  0.74590  0.82290  0.90150  1.0000 -0.1384978319
C   C73       1.0  0.15270  0.84730  0.75000  1.0000 -0.1335840399
C   C74       1.0  0.84730  0.15270  0.25000  1.0000 -0.1335840399
C   C75       1.0  0.78550  0.62890  0.13460  1.0000 -0.2457296947
C   C76       1.0  0.21450  0.37110  0.63460  1.0000 -0.2457296947
C   C77       1.0  0.37110  0.21450  0.36540  1.0000 -0.2457296947
C   C78       1.0  0.62890  0.78550  0.86540  1.0000 -0.2457296947
C   C79       1.0  0.81870  0.54270  0.09550  1.0000 0.1507898806
C   C80       1.0  0.18130  0.45730  0.59550  1.0000 0.1507898806
C   C81       1.0  0.45730  0.18130  0.40450  1.0000 0.1507898806
C   C82       1.0  0.54270  0.81870  0.90450  1.0000 0.1507898806
C   C83       1.0  0.92620  0.54280  0.09650  1.0000 -0.220677624
C   C84       1.0  0.07380  0.45720  0.59650  1.0000 -0.220677624
C   C85       1.0  0.45720  0.07380  0.40350  1.0000 -0.220677624
C   C86       1.0  0.54280  0.92620  0.90350  1.0000 -0.220677624
C   C87       1.0  0.74350  0.46790  0.05320  1.0000 -0.2319973001
C   C88       1.0  0.25650  0.53210  0.55320  1.0000 -0.2319973001
C   C89       1.0  0.53210  0.25650  0.44680  1.0000 -0.2319973001
C   C90       1.0  0.46790  0.74350  0.94680  1.0000 -0.2319973001
C   C91       1.0  0.96000  0.47660  0.05430  1.0000 0.068599203
C   C92       1.0  0.04000  0.52340  0.55430  1.0000 0.068599203
C   C93       1.0  0.52340  0.04000  0.44570  1.0000 0.068599203
C   C94       1.0  0.47660  0.96000  0.94570  1.0000 0.068599203
C   C95       1.0  0.78390  0.40510  0.01250  1.0000 0.068599203
C   C96       1.0  0.21610  0.59490  0.51250  1.0000 0.068599203
C   C97       1.0  0.59490  0.21610  0.48750  1.0000 0.068599203
C   C98       1.0  0.40510  0.78390  0.98750  1.0000 0.068599203
N   N1        1.0  0.90340  0.14820  0.01560  1.0000 -0.2319973001
N   N2        1.0  0.09660  0.85180  0.51560  1.0000 -0.2350564698
N   N3        1.0  0.85180  0.09660  0.48440  1.0000 -0.2319973001
N   N4        1.0  0.14820  0.90340  0.98440  1.0000 -0.2350564698
N   N5        1.0  0.01480  0.44980  0.85910  1.0000 -0.2319973001
N   N6        1.0  0.98520  0.55020  0.35910  1.0000 -0.2319973001
N   N7        1.0  0.55020  0.98520  0.64090  1.0000 -0.2319973001
N   N8        1.0  0.44980  0.01480  0.14090  1.0000 -0.2319973001
N   N9        1.0  0.88880  0.40620  0.01270  1.0000 -0.2115539653
N   N10       1.0  0.11120  0.59380  0.51270  1.0000 -0.2115539653
N   N11       1.0  0.59380  0.11120  0.48730  1.0000 -0.2115539653
N   N12       1.0  0.40620  0.88880  0.98730  1.0000 -0.2115539653
O   O1        1.0  0.86590  0.15950  0.84960  1.0000 -0.5634435514
O   O2        1.0  0.13410  0.84050  0.34960  1.0000 -0.5634435514
O   O3        1.0  0.84050  0.13410  0.65040  1.0000 -0.5634435514
O   O4        1.0  0.15950  0.86590  0.15040  1.0000 -0.5634435514
O   O5        1.0  0.75830  0.24270  0.89500  1.0000 -0.5897819573
O   O6        1.0  0.24170  0.75730  0.39500  1.0000 -0.5897819573
O   O7        1.0  0.75730  0.24170  0.60500  1.0000 -0.5897819573
O   O8        1.0  0.24270  0.75830  0.10500  1.0000 -0.5897819573
O   O9        1.0  0.12490  0.27490  0.91870  1.0000 -0.5764286319
O   O10       1.0  0.87510  0.72510  0.41870  1.0000 -0.5764286319
O   O11       1.0  0.72510  0.87510  0.58130  1.0000 -0.5764286319
O   O12       1.0  0.27490  0.12490  0.08130  1.0000 -0.5764286319
O   O13       1.0  0.17420  0.41220  0.99270  1.0000 -0.5897819573
O   O14       1.0  0.82580  0.58780  0.49270  1.0000 -0.5897819573
O   O15       1.0  0.58780  0.82580  0.50730  1.0000 -0.5897819573
O   O16       1.0  0.41220  0.17420  0.00730  1.0000 -0.5897819573
