# DDEC6 charges by PACMAN v1.1 (https://github.com/mtap-research/PACMAN-charge/)
data_2016[Cd][nan]3[FSR]9
_chemical_formula_sum              "Cd8 H152 C144 N24 O40"
_cell_length_a       16.3675
_cell_length_b       16.3675
_cell_length_c       17.23
_cell_angle_alpha    90
_cell_angle_beta     90
_cell_angle_gamma    120.744

_symmetry_space_group_name_H-M    "P 1"
_symmetry_Int_Tables_number       1

loop_
  _symmetry_equiv_pos_as_xyz
  'x, y, z'

loop_
  _atom_site_type_symbol
  _atom_site_label
  _atom_site_symmetry_multiplicity
  _atom_site_fract_x
  _atom_site_fract_y
  _atom_site_fract_z
  _atom_site_occupancy
  _atom_site_charge
Cd  Cd1       1.0  0.22702  0.46462  0.77673  1.0000 0.8309515828
Cd  Cd2       1.0  0.77298  0.53538  0.77673  1.0000 0.8309515828
Cd  Cd3       1.0  0.46462  0.22702  0.22327  1.0000 0.8309515828
Cd  Cd4       1.0  0.53538  0.77298  0.22327  1.0000 0.8309515828
Cd  Cd5       1.0  0.27298  0.03538  0.72327  1.0000 0.8309515828
Cd  Cd6       1.0  0.72702  0.96462  0.72327  1.0000 0.8309515828
Cd  Cd7       1.0  0.03538  0.27298  0.27673  1.0000 0.8309515828
Cd  Cd8       1.0  0.96462  0.72702  0.27673  1.0000 0.8309515828
H   H1        1.0  0.98980  0.75200  0.85550  1.0000 0.2828750128
H   H2        1.0  0.01020  0.24800  0.85550  1.0000 0.2828750128
H   H3        1.0  0.75200  0.98980  0.14450  1.0000 0.2828750128
H   H4        1.0  0.24800  0.01020  0.14450  1.0000 0.2828750128
H   H5        1.0  0.51020  0.74800  0.64450  1.0000 0.2828750128
H   H6        1.0  0.48980  0.25200  0.64450  1.0000 0.2828750128
H   H7        1.0  0.74800  0.51020  0.35550  1.0000 0.2828750128
H   H8        1.0  0.25200  0.48980  0.35550  1.0000 0.2828750128
H   H9        1.0  0.04400  0.65440  0.75940  1.0000 0.1494229419
H   H10       1.0  0.95600  0.34560  0.75940  1.0000 0.1494229419
H   H11       1.0  0.65440  0.04400  0.24060  1.0000 0.1494229419
H   H12       1.0  0.34560  0.95600  0.24060  1.0000 0.1494229419
H   H13       1.0  0.45600  0.84560  0.74060  1.0000 0.1494229419
H   H14       1.0  0.54400  0.15440  0.74060  1.0000 0.1494229419
H   H15       1.0  0.84560  0.45600  0.25940  1.0000 0.1494229419
H   H16       1.0  0.15440  0.54400  0.25940  1.0000 0.1494229419
H   H17       1.0  0.29420  0.64920  0.87530  1.0000 0.1110562895
H   H18       1.0  0.70580  0.35080  0.87530  1.0000 0.1110562895
H   H19       1.0  0.64920  0.29420  0.12470  1.0000 0.1110562895
H   H20       1.0  0.35080  0.70580  0.12470  1.0000 0.1110562895
H   H21       1.0  0.20580  0.85080  0.62470  1.0000 0.1110562895
H   H22       1.0  0.79420  0.14920  0.62470  1.0000 0.1110562895
H   H23       1.0  0.85080  0.20580  0.37530  1.0000 0.1110562895
H   H24       1.0  0.14920  0.79420  0.37530  1.0000 0.1110562895
H   H25       1.0  0.23100  0.40340  0.04150  1.0000 0.130065747
H   H26       1.0  0.76900  0.59660  0.04150  1.0000 0.130065747
H   H27       1.0  0.40340  0.23100  0.95850  1.0000 0.130065747
H   H28       1.0  0.59660  0.76900  0.95850  1.0000 0.130065747
H   H29       1.0  0.26900  0.09660  0.45850  1.0000 0.130065747
H   H30       1.0  0.73100  0.90340  0.45850  1.0000 0.130065747
H   H31       1.0  0.09660  0.26900  0.54150  1.0000 0.130065747
H   H32       1.0  0.90340  0.73100  0.54150  1.0000 0.130065747
H   H33       1.0  0.13430  0.31110  0.01470  1.0000 0.130065747
H   H34       1.0  0.86570  0.68890  0.01470  1.0000 0.130065747
H   H35       1.0  0.31110  0.13430  0.98530  1.0000 0.130065747
H   H36       1.0  0.68890  0.86570  0.98530  1.0000 0.130065747
H   H37       1.0  0.36570  0.18890  0.48530  1.0000 0.130065747
H   H38       1.0  0.63430  0.81110  0.48530  1.0000 0.130065747
H   H39       1.0  0.18890  0.36570  0.51470  1.0000 0.130065747
H   H40       1.0  0.81110  0.63430  0.51470  1.0000 0.130065747
H   H41       1.0  0.23560  0.54100  0.09120  1.0000 0.130065747
H   H42       1.0  0.76440  0.45900  0.09120  1.0000 0.130065747
H   H43       1.0  0.54100  0.23560  0.90880  1.0000 0.130065747
H   H44       1.0  0.45900  0.76440  0.90880  1.0000 0.130065747
H   H45       1.0  0.26440  0.95900  0.40880  1.0000 0.130065747
H   H46       1.0  0.73560  0.04100  0.40880  1.0000 0.130065747
H   H47       1.0  0.95900  0.26440  0.59120  1.0000 0.130065747
H   H48       1.0  0.04100  0.73560  0.59120  1.0000 0.130065747
H   H49       1.0  0.14150  0.54570  0.10480  1.0000 0.1201022493
H   H50       1.0  0.85850  0.45430  0.10480  1.0000 0.1201022493
H   H51       1.0  0.54570  0.14150  0.89520  1.0000 0.1201022493
H   H52       1.0  0.45430  0.85850  0.89520  1.0000 0.1201022493
H   H53       1.0  0.35850  0.95430  0.39520  1.0000 0.1201022493
H   H54       1.0  0.64150  0.04570  0.39520  1.0000 0.1201022493
H   H55       1.0  0.95430  0.35850  0.60480  1.0000 0.1201022493
H   H56       1.0  0.04570  0.64150  0.60480  1.0000 0.1201022493
H   H57       1.0  0.18340  0.55640  0.01910  1.0000 0.130065747
H   H58       1.0  0.81660  0.44360  0.01910  1.0000 0.130065747
H   H59       1.0  0.55640  0.18340  0.98090  1.0000 0.130065747
H   H60       1.0  0.44360  0.81660  0.98090  1.0000 0.130065747
H   H61       1.0  0.31660  0.94360  0.48090  1.0000 0.130065747
H   H62       1.0  0.68340  0.05640  0.48090  1.0000 0.130065747
H   H63       1.0  0.94360  0.31660  0.51910  1.0000 0.130065747
H   H64       1.0  0.05640  0.68340  0.51910  1.0000 0.130065747
H   H65       1.0  0.08480  0.54200  0.72840  1.0000 0.1037034878
H   H66       1.0  0.91520  0.45800  0.72840  1.0000 0.1037034878
H   H67       1.0  0.54200  0.08480  0.27160  1.0000 0.1037034878
H   H68       1.0  0.45800  0.91520  0.27160  1.0000 0.1037034878
H   H69       1.0  0.41520  0.95800  0.77160  1.0000 0.1037034878
H   H70       1.0  0.58480  0.04200  0.77160  1.0000 0.1037034878
H   H71       1.0  0.95800  0.41520  0.22840  1.0000 0.1037034878
H   H72       1.0  0.04200  0.58480  0.22840  1.0000 0.1037034878
H   H73       1.0  0.26090  0.76410  0.91230  1.0000 0.1402222336
H   H74       1.0  0.73910  0.23590  0.91230  1.0000 0.1402222336
H   H75       1.0  0.76410  0.26090  0.08770  1.0000 0.1402222336
H   H76       1.0  0.23590  0.73910  0.08770  1.0000 0.1402222336
H   H77       1.0  0.23910  0.73590  0.58770  1.0000 0.1402222336
H   H78       1.0  0.76090  0.26410  0.58770  1.0000 0.1402222336
H   H79       1.0  0.73590  0.23910  0.41230  1.0000 0.1402222336
H   H80       1.0  0.26410  0.76090  0.41230  1.0000 0.1402222336
H   H81       1.0  0.12800  0.80080  0.92170  1.0000 0.1201022493
H   H82       1.0  0.87200  0.19920  0.92170  1.0000 0.1201022493
H   H83       1.0  0.80080  0.12800  0.07830  1.0000 0.1201022493
H   H84       1.0  0.19920  0.87200  0.07830  1.0000 0.1201022493
H   H85       1.0  0.37200  0.69920  0.57830  1.0000 0.1201022493
H   H86       1.0  0.62800  0.30080  0.57830  1.0000 0.1201022493
H   H87       1.0  0.69920  0.37200  0.42170  1.0000 0.1201022493
H   H88       1.0  0.30080  0.62800  0.42170  1.0000 0.1201022493
H   H89       1.0  0.18520  0.86200  0.84760  1.0000 0.1201022493
H   H90       1.0  0.81480  0.13800  0.84760  1.0000 0.1201022493
H   H91       1.0  0.86200  0.18520  0.15240  1.0000 0.1201022493
H   H92       1.0  0.13800  0.81480  0.15240  1.0000 0.1201022493
H   H93       1.0  0.31480  0.63800  0.65240  1.0000 0.1201022493
H   H94       1.0  0.68520  0.36200  0.65240  1.0000 0.1201022493
H   H95       1.0  0.63800  0.31480  0.34760  1.0000 0.1201022493
H   H96       1.0  0.36200  0.68520  0.34760  1.0000 0.1201022493
H   H97       1.0  0.90360  0.82040  0.87000  1.0000 0.1402222336
H   H98       1.0  0.09640  0.17960  0.87000  1.0000 0.1402222336
H   H99       1.0  0.82040  0.90360  0.13000  1.0000 0.1402222336
H   H100      1.0  0.17960  0.09640  0.13000  1.0000 0.1402222336
H   H101      1.0  0.59640  0.67960  0.63000  1.0000 0.1402222336
H   H102      1.0  0.40360  0.32040  0.63000  1.0000 0.1402222336
H   H103      1.0  0.67960  0.59640  0.37000  1.0000 0.1402222336
H   H104      1.0  0.32040  0.40360  0.37000  1.0000 0.1402222336
H   H105      1.0  0.98200  0.88060  0.64590  1.0000 0.1402222336
H   H106      1.0  0.01800  0.11940  0.64590  1.0000 0.1402222336
H   H107      1.0  0.88060  0.98200  0.35410  1.0000 0.1402222336
H   H108      1.0  0.11940  0.01800  0.35410  1.0000 0.1402222336
H   H109      1.0  0.51800  0.61940  0.85410  1.0000 0.1402222336
H   H110      1.0  0.48200  0.38060  0.85410  1.0000 0.1402222336
H   H111      1.0  0.61940  0.51800  0.14590  1.0000 0.1402222336
H   H112      1.0  0.38060  0.48200  0.14590  1.0000 0.1402222336
H   H113      1.0  0.86120  0.91180  0.62950  1.0000 0.1110562895
H   H114      1.0  0.13880  0.08820  0.62950  1.0000 0.1110562895
H   H115      1.0  0.91180  0.86120  0.37050  1.0000 0.1110562895
H   H116      1.0  0.08820  0.13880  0.37050  1.0000 0.1110562895
H   H117      1.0  0.63880  0.58820  0.87050  1.0000 0.1110562895
H   H118      1.0  0.36120  0.41180  0.87050  1.0000 0.1110562895
H   H119      1.0  0.58820  0.63880  0.12950  1.0000 0.1110562895
H   H120      1.0  0.41180  0.36120  0.12950  1.0000 0.1110562895
H   H121      1.0  0.78340  0.85140  0.84650  1.0000 0.1110562895
H   H122      1.0  0.21660  0.14860  0.84650  1.0000 0.1110562895
H   H123      1.0  0.85140  0.78340  0.15350  1.0000 0.1110562895
H   H124      1.0  0.14860  0.21660  0.15350  1.0000 0.1110562895
H   H125      1.0  0.71660  0.64860  0.65350  1.0000 0.1110562895
H   H126      1.0  0.28340  0.35140  0.65350  1.0000 0.1110562895
H   H127      1.0  0.64860  0.71660  0.34650  1.0000 0.1110562895
H   H128      1.0  0.35140  0.28340  0.34650  1.0000 0.1110562895
H   H129      1.0  0.03620  0.42380  0.96450  1.0000 0.130065747
H   H130      1.0  0.96380  0.57620  0.96450  1.0000 0.130065747
H   H131      1.0  0.42380  0.03620  0.03550  1.0000 0.130065747
H   H132      1.0  0.57620  0.96380  0.03550  1.0000 0.130065747
H   H133      1.0  0.46380  0.07620  0.53550  1.0000 0.130065747
H   H134      1.0  0.53620  0.92380  0.53550  1.0000 0.130065747
H   H135      1.0  0.07620  0.46380  0.46450  1.0000 0.130065747
H   H136      1.0  0.92380  0.53620  0.46450  1.0000 0.130065747
H   H137      1.0  0.98260  0.40920  0.04550  1.0000 0.130065747
H   H138      1.0  0.01740  0.59080  0.04550  1.0000 0.130065747
H   H139      1.0  0.40920  0.98260  0.95450  1.0000 0.130065747
H   H140      1.0  0.59080  0.01740  0.95450  1.0000 0.130065747
H   H141      1.0  0.51740  0.09080  0.45450  1.0000 0.130065747
H   H142      1.0  0.48260  0.90920  0.45450  1.0000 0.130065747
H   H143      1.0  0.09080  0.51740  0.54550  1.0000 0.130065747
H   H144      1.0  0.90920  0.48260  0.54550  1.0000 0.130065747
H   H145      1.0  0.98410  0.32170  0.00550  1.0000 0.1201022493
H   H146      1.0  0.01590  0.67830  0.00550  1.0000 0.1201022493
H   H147      1.0  0.32170  0.98410  0.99450  1.0000 0.1201022493
H   H148      1.0  0.67830  0.01590  0.99450  1.0000 0.1201022493
H   H149      1.0  0.51590  0.17830  0.49450  1.0000 0.1201022493
H   H150      1.0  0.48410  0.82170  0.49450  1.0000 0.1201022493
H   H151      1.0  0.17830  0.51590  0.50550  1.0000 0.1201022493
H   H152      1.0  0.82170  0.48410  0.50550  1.0000 0.1201022493
C   C1        1.0  0.09600  0.65520  0.78470  1.0000 -0.1931703275
C   C2        1.0  0.90400  0.34480  0.78470  1.0000 -0.1931703275
C   C3        1.0  0.65520  0.09600  0.21530  1.0000 -0.1931703275
C   C4        1.0  0.34480  0.90400  0.21530  1.0000 -0.1931703275
C   C5        1.0  0.40400  0.84480  0.71530  1.0000 -0.1931703275
C   C6        1.0  0.59600  0.15520  0.71530  1.0000 -0.1931703275
C   C7        1.0  0.84480  0.40400  0.28470  1.0000 -0.1931703275
C   C8        1.0  0.15520  0.59600  0.28470  1.0000 -0.1931703275
C   C9        1.0  0.24200  0.64980  0.85170  1.0000 0.079197582
C   C10       1.0  0.75800  0.35020  0.85170  1.0000 0.079197582
C   C11       1.0  0.64980  0.24200  0.14830  1.0000 0.079197582
C   C12       1.0  0.35020  0.75800  0.14830  1.0000 0.079197582
C   C13       1.0  0.25800  0.85020  0.64830  1.0000 0.079197582
C   C14       1.0  0.74200  0.14980  0.64830  1.0000 0.079197582
C   C15       1.0  0.85020  0.25800  0.35170  1.0000 0.079197582
C   C16       1.0  0.14980  0.74200  0.35170  1.0000 0.079197582
C   C17       1.0  0.14820  0.72260  0.83970  1.0000 0.1494229419
C   C18       1.0  0.85180  0.27740  0.83970  1.0000 0.1494229419
C   C19       1.0  0.72260  0.14820  0.16030  1.0000 0.1494229419
C   C20       1.0  0.27740  0.85180  0.16030  1.0000 0.1494229419
C   C21       1.0  0.35180  0.77740  0.66030  1.0000 0.1494229419
C   C22       1.0  0.64820  0.22260  0.66030  1.0000 0.1494229419
C   C23       1.0  0.77740  0.35180  0.33970  1.0000 0.1494229419
C   C24       1.0  0.22260  0.64820  0.33970  1.0000 0.1494229419
C   C25       1.0  0.19120  0.41500  0.93030  1.0000 0.6206445807
C   C26       1.0  0.80880  0.58500  0.93030  1.0000 0.6206445807
C   C27       1.0  0.41500  0.19120  0.06970  1.0000 0.6206445807
C   C28       1.0  0.58500  0.80880  0.06970  1.0000 0.6206445807
C   C29       1.0  0.30880  0.08500  0.56970  1.0000 0.6206445807
C   C30       1.0  0.69120  0.91500  0.56970  1.0000 0.6206445807
C   C31       1.0  0.08500  0.30880  0.43030  1.0000 0.6206445807
C   C32       1.0  0.91500  0.69120  0.43030  1.0000 0.6206445807
C   C33       1.0  0.17010  0.38150  0.01400  1.0000 -0.388867244
C   C34       1.0  0.82990  0.61850  0.01400  1.0000 -0.388867244
C   C35       1.0  0.38150  0.17010  0.98600  1.0000 -0.388867244
C   C36       1.0  0.61850  0.82990  0.98600  1.0000 -0.388867244
C   C37       1.0  0.32990  0.11850  0.48600  1.0000 -0.388867244
C   C38       1.0  0.67010  0.88150  0.48600  1.0000 -0.388867244
C   C39       1.0  0.11850  0.32990  0.51400  1.0000 -0.388867244
C   C40       1.0  0.88150  0.67010  0.51400  1.0000 -0.388867244
C   C41       1.0  0.11310  0.41690  0.05810  1.0000 0.1761163374
C   C42       1.0  0.88690  0.58310  0.05810  1.0000 0.1761163374
C   C43       1.0  0.41690  0.11310  0.94190  1.0000 0.1742931718
C   C44       1.0  0.58310  0.88690  0.94190  1.0000 0.1761163374
C   C45       1.0  0.38690  0.08310  0.44190  1.0000 0.1761163374
C   C46       1.0  0.61310  0.91690  0.44190  1.0000 0.1761163374
C   C47       1.0  0.08310  0.38690  0.55810  1.0000 0.1761163374
C   C48       1.0  0.91690  0.61310  0.55810  1.0000 0.1761163374
C   C49       1.0  0.17390  0.52470  0.06930  1.0000 -0.4636078364
C   C50       1.0  0.82610  0.47530  0.06930  1.0000 -0.4636078364
C   C51       1.0  0.52470  0.17390  0.93070  1.0000 -0.4636078364
C   C52       1.0  0.47530  0.82610  0.93070  1.0000 -0.4636078364
C   C53       1.0  0.32610  0.97530  0.43070  1.0000 -0.4636078364
C   C54       1.0  0.67390  0.02470  0.43070  1.0000 -0.4636078364
C   C55       1.0  0.97530  0.32610  0.56930  1.0000 -0.4636078364
C   C56       1.0  0.02470  0.67390  0.56930  1.0000 -0.4636078364
C   C57       1.0  0.12120  0.58800  0.76680  1.0000 0.0713162442
C   C58       1.0  0.87880  0.41200  0.76680  1.0000 0.0713162442
C   C59       1.0  0.58800  0.12120  0.23320  1.0000 0.0713162442
C   C60       1.0  0.41200  0.87880  0.23320  1.0000 0.0713162442
C   C61       1.0  0.37880  0.91200  0.73320  1.0000 0.0713162442
C   C62       1.0  0.62120  0.08800  0.73320  1.0000 0.0713162442
C   C63       1.0  0.91200  0.37880  0.26680  1.0000 0.0713162442
C   C64       1.0  0.08800  0.62120  0.26680  1.0000 0.0713162442
C   C65       1.0  0.22290  0.71890  0.87380  1.0000 -0.2106811216
C   C66       1.0  0.77710  0.28110  0.87380  1.0000 -0.2106811216
C   C67       1.0  0.71890  0.22290  0.12620  1.0000 -0.2106811216
C   C68       1.0  0.28110  0.77710  0.12620  1.0000 -0.2106811216
C   C69       1.0  0.27710  0.78110  0.62620  1.0000 -0.2106811216
C   C70       1.0  0.72290  0.21890  0.62620  1.0000 -0.2106811216
C   C71       1.0  0.78110  0.27710  0.37380  1.0000 -0.2106811216
C   C72       1.0  0.21890  0.72290  0.37380  1.0000 -0.2106811216
C   C73       1.0  0.95830  0.85070  0.76140  1.0000 0.0327584298
C   C74       1.0  0.04170  0.14930  0.76140  1.0000 0.0327584298
C   C75       1.0  0.85070  0.95830  0.23860  1.0000 0.0327584298
C   C76       1.0  0.14930  0.04170  0.23860  1.0000 0.0327584298
C   C77       1.0  0.54170  0.64930  0.73860  1.0000 0.0327584298
C   C78       1.0  0.45830  0.35070  0.73860  1.0000 0.0327584298
C   C79       1.0  0.64930  0.54170  0.26140  1.0000 0.0327584298
C   C80       1.0  0.35070  0.45830  0.26140  1.0000 0.0327584298
C   C81       1.0  0.13050  0.80030  0.86430  1.0000 -0.1170825435
C   C82       1.0  0.86950  0.19970  0.86430  1.0000 -0.1170825435
C   C83       1.0  0.80030  0.13050  0.13570  1.0000 -0.1170825435
C   C84       1.0  0.19970  0.86950  0.13570  1.0000 -0.1170825435
C   C85       1.0  0.36950  0.69970  0.63570  1.0000 -0.1170825435
C   C86       1.0  0.63050  0.30030  0.63570  1.0000 -0.1170825435
C   C87       1.0  0.69970  0.36950  0.36430  1.0000 -0.1170825435
C   C88       1.0  0.30030  0.63050  0.36430  1.0000 -0.1170825435
C   C89       1.0  0.04620  0.84600  0.77530  1.0000 0.4594589883
C   C90       1.0  0.95380  0.15400  0.77530  1.0000 0.4594589883
C   C91       1.0  0.84600  0.04620  0.22470  1.0000 0.4594589883
C   C92       1.0  0.15400  0.95380  0.22470  1.0000 0.4594589883
C   C93       1.0  0.45380  0.65400  0.72470  1.0000 0.4594589883
C   C94       1.0  0.54620  0.34600  0.72470  1.0000 0.4594589883
C   C95       1.0  0.65400  0.45380  0.27530  1.0000 0.4594589883
C   C96       1.0  0.34600  0.54620  0.27530  1.0000 0.4594589883
C   C97       1.0  0.89690  0.84050  0.81990  1.0000 -0.1744436881
C   C98       1.0  0.10310  0.15950  0.81990  1.0000 -0.1744436881
C   C99       1.0  0.84050  0.89690  0.18010  1.0000 -0.1744436881
C   C100      1.0  0.15950  0.10310  0.18010  1.0000 -0.1744436881
C   C101      1.0  0.60310  0.65950  0.68010  1.0000 -0.1744436881
C   C102      1.0  0.39690  0.34050  0.68010  1.0000 -0.1744436881
C   C103      1.0  0.65950  0.60310  0.31990  1.0000 -0.1744436881
C   C104      1.0  0.34050  0.39690  0.31990  1.0000 -0.1744436881
C   C105      1.0  0.94310  0.87590  0.68860  1.0000 -0.1593815012
C   C106      1.0  0.05690  0.12410  0.68860  1.0000 -0.1593815012
C   C107      1.0  0.87590  0.94310  0.31140  1.0000 -0.1593815012
C   C108      1.0  0.12410  0.05690  0.31140  1.0000 -0.1593815012
C   C109      1.0  0.55690  0.62410  0.81140  1.0000 -0.1593815012
C   C110      1.0  0.44310  0.37590  0.81140  1.0000 -0.1593815012
C   C111      1.0  0.62410  0.55690  0.18860  1.0000 -0.1593815012
C   C112      1.0  0.37590  0.44310  0.18860  1.0000 -0.1593815012
C   C113      1.0  0.87100  0.89400  0.67950  1.0000 0.0643482489
C   C114      1.0  0.12900  0.10600  0.67950  1.0000 0.0643482489
C   C115      1.0  0.89400  0.87100  0.32050  1.0000 0.0643482489
C   C116      1.0  0.10600  0.12900  0.32050  1.0000 0.0643482489
C   C117      1.0  0.62900  0.60600  0.82050  1.0000 0.0643482489
C   C118      1.0  0.37100  0.39400  0.82050  1.0000 0.0643482489
C   C119      1.0  0.60600  0.62900  0.17950  1.0000 0.0643482489
C   C120      1.0  0.39400  0.37100  0.17950  1.0000 0.0643482489
C   C121      1.0  0.82570  0.85930  0.80560  1.0000 0.0852425286
C   C122      1.0  0.17430  0.14070  0.80560  1.0000 0.0852425286
C   C123      1.0  0.85930  0.82570  0.19440  1.0000 0.0852425286
C   C124      1.0  0.14070  0.17430  0.19440  1.0000 0.0852425286
C   C125      1.0  0.67430  0.64070  0.69440  1.0000 0.0852425286
C   C126      1.0  0.32570  0.35930  0.69440  1.0000 0.0852425286
C   C127      1.0  0.64070  0.67430  0.30560  1.0000 0.0852425286
C   C128      1.0  0.35930  0.32570  0.30560  1.0000 0.0852425286
C   C129      1.0  0.02050  0.39050  0.01440  1.0000 -0.4636078364
C   C130      1.0  0.97950  0.60950  0.01440  1.0000 -0.4636078364
C   C131      1.0  0.39050  0.02050  0.98560  1.0000 -0.4636078364
C   C132      1.0  0.60950  0.97950  0.98560  1.0000 -0.4636078364
C   C133      1.0  0.47950  0.10950  0.48560  1.0000 -0.4636078364
C   C134      1.0  0.52050  0.89050  0.48560  1.0000 -0.4636078364
C   C135      1.0  0.10950  0.47950  0.51440  1.0000 -0.4636078364
C   C136      1.0  0.89050  0.52050  0.51440  1.0000 -0.4636078364
C   C137      1.0  0.08710  0.36390  0.13580  1.0000 0.5249474758
C   C138      1.0  0.91290  0.63610  0.13580  1.0000 0.5249474758
C   C139      1.0  0.36390  0.08710  0.86420  1.0000 0.5249474758
C   C140      1.0  0.63610  0.91290  0.86420  1.0000 0.5249474758
C   C141      1.0  0.41290  0.13610  0.36420  1.0000 0.5249474758
C   C142      1.0  0.58710  0.86390  0.36420  1.0000 0.5249474758
C   C143      1.0  0.13610  0.41290  0.63580  1.0000 0.5249474758
C   C144      1.0  0.86390  0.58710  0.63580  1.0000 0.5249474758
N   N1        1.0  0.19161  0.58339  0.79900  1.0000 -0.2293823621
N   N2        1.0  0.80839  0.41661  0.79900  1.0000 -0.2293823621
N   N3        1.0  0.58339  0.19161  0.20100  1.0000 -0.2293823621
N   N4        1.0  0.41661  0.80839  0.20100  1.0000 -0.2293823621
N   N5        1.0  0.30839  0.91661  0.70100  1.0000 -0.2293823621
N   N6        1.0  0.69161  0.08339  0.70100  1.0000 -0.2293823621
N   N7        1.0  0.91661  0.30839  0.29900  1.0000 -0.2293823621
N   N8        1.0  0.08339  0.69161  0.29900  1.0000 -0.2293823621
N   N9        1.0  0.04474  0.79286  0.83420  1.0000 -0.3130029662
N   N10       1.0  0.95526  0.20714  0.83420  1.0000 -0.3130029662
N   N11       1.0  0.79286  0.04474  0.16580  1.0000 -0.3130029662
N   N12       1.0  0.20714  0.95526  0.16580  1.0000 -0.3130029662
N   N13       1.0  0.45526  0.70714  0.66580  1.0000 -0.3130029662
N   N14       1.0  0.54474  0.29286  0.66580  1.0000 -0.3130029662
N   N15       1.0  0.70714  0.45526  0.33420  1.0000 -0.3130029662
N   N16       1.0  0.29286  0.54474  0.33420  1.0000 -0.3130029662
N   N17       1.0  0.81367  0.88793  0.73680  1.0000 -0.2293823621
N   N18       1.0  0.18633  0.11207  0.73680  1.0000 -0.2293823621
N   N19       1.0  0.88793  0.81367  0.26320  1.0000 -0.2293823621
N   N20       1.0  0.11207  0.18633  0.26320  1.0000 -0.2293823621
N   N21       1.0  0.68633  0.61207  0.76320  1.0000 -0.2293823621
N   N22       1.0  0.31367  0.38793  0.76320  1.0000 -0.2293823621
N   N23       1.0  0.61207  0.68633  0.23680  1.0000 -0.2293823621
N   N24       1.0  0.38793  0.31367  0.23680  1.0000 -0.2293823621
O   O1        1.0  0.26795  0.48885  0.91370  1.0000 -0.5698256379
O   O2        1.0  0.73205  0.51115  0.91370  1.0000 -0.5698256379
O   O3        1.0  0.48885  0.26795  0.08630  1.0000 -0.5698256379
O   O4        1.0  0.51115  0.73205  0.08630  1.0000 -0.5698256379
O   O5        1.0  0.23205  0.01115  0.58630  1.0000 -0.5698256379
O   O6        1.0  0.76795  0.98885  0.58630  1.0000 -0.5698256379
O   O7        1.0  0.01115  0.23205  0.41370  1.0000 -0.5698256379
O   O8        1.0  0.98885  0.76795  0.41370  1.0000 -0.5698256379
O   O9        1.0  0.13152  0.36708  0.87880  1.0000 -0.575187098
O   O10       1.0  0.86848  0.63292  0.87880  1.0000 -0.575187098
O   O11       1.0  0.36708  0.13152  0.12120  1.0000 -0.575187098
O   O12       1.0  0.63292  0.86848  0.12120  1.0000 -0.575187098
O   O13       1.0  0.36848  0.13292  0.62120  1.0000 -0.575187098
O   O14       1.0  0.63152  0.86708  0.62120  1.0000 -0.575187098
O   O15       1.0  0.13292  0.36848  0.37880  1.0000 -0.575187098
O   O16       1.0  0.86708  0.63152  0.37880  1.0000 -0.575187098
O   O17       1.0  0.12268  0.40832  0.19670  1.0000 -0.527696248
O   O18       1.0  0.87732  0.59168  0.19670  1.0000 -0.527696248
O   O19       1.0  0.40832  0.12268  0.80330  1.0000 -0.527696248
O   O20       1.0  0.59168  0.87732  0.80330  1.0000 -0.527696248
O   O21       1.0  0.37732  0.09168  0.30330  1.0000 -0.527696248
O   O22       1.0  0.62268  0.90832  0.30330  1.0000 -0.527696248
O   O23       1.0  0.09168  0.37732  0.69670  1.0000 -0.527696248
O   O24       1.0  0.90832  0.62268  0.69670  1.0000 -0.527696248
O   O25       1.0  0.11688  0.89472  0.73490  1.0000 -0.4829729682
O   O26       1.0  0.88312  0.10528  0.73490  1.0000 -0.4829729682
O   O27       1.0  0.89472  0.11688  0.26510  1.0000 -0.4829729682
O   O28       1.0  0.10528  0.88312  0.26510  1.0000 -0.4829729682
O   O29       1.0  0.38312  0.60528  0.76510  1.0000 -0.4829729682
O   O30       1.0  0.61688  0.39472  0.76510  1.0000 -0.4829729682
O   O31       1.0  0.60528  0.38312  0.23490  1.0000 -0.4829729682
O   O32       1.0  0.39472  0.61688  0.23490  1.0000 -0.4829729682
O   O33       1.0  0.02967  0.27633  0.13760  1.0000 -0.5465257949
O   O34       1.0  0.97033  0.72367  0.13760  1.0000 -0.5465257949
O   O35       1.0  0.27633  0.02967  0.86240  1.0000 -0.5465257949
O   O36       1.0  0.72367  0.97033  0.86240  1.0000 -0.5465257949
O   O37       1.0  0.47033  0.22367  0.36240  1.0000 -0.5465257949
O   O38       1.0  0.52967  0.77633  0.36240  1.0000 -0.5465257949
O   O39       1.0  0.22367  0.47033  0.63760  1.0000 -0.5465257949
O   O40       1.0  0.77633  0.52967  0.63760  1.0000 -0.5465257949
