# DDEC6 charges by PACMAN v1.1 (https://github.com/mtap-research/PACMAN-charge/)
data_2016[Zn][dia]3[FSR]4
_chemical_formula_sum              "Zn12 H24 C24 O48"
_cell_length_a       11.418
_cell_length_b       10.037
_cell_length_c       18.546
_cell_angle_alpha    90
_cell_angle_beta     126.68
_cell_angle_gamma    90

_symmetry_space_group_name_H-M    "P 1"
_symmetry_Int_Tables_number       1

loop_
  _symmetry_equiv_pos_as_xyz
  'x, y, z'

loop_
  _atom_site_type_symbol
  _atom_site_label
  _atom_site_symmetry_multiplicity
  _atom_site_fract_x
  _atom_site_fract_y
  _atom_site_fract_z
  _atom_site_occupancy
  _atom_site_charge
Zn  Zn1       1.0  0.06462  0.12177  0.30533  1.0000 0.9249693182
Zn  Zn2       1.0  0.93538  0.62177  0.19467  1.0000 0.9249693182
Zn  Zn3       1.0  0.93538  0.87823  0.69467  1.0000 0.9249693182
Zn  Zn4       1.0  0.06462  0.37823  0.80533  1.0000 0.9249693182
Zn  Zn5       1.0  0.12311  0.42892  0.36812  1.0000 0.942913664
Zn  Zn6       1.0  0.87689  0.92892  0.13188  1.0000 0.942913664
Zn  Zn7       1.0  0.87689  0.57108  0.63188  1.0000 0.942913664
Zn  Zn8       1.0  0.12311  0.07108  0.86812  1.0000 0.942913664
Zn  Zn9       1.0  0.00000  0.50000  0.50000  1.0000 0.942913664
Zn  Zn10      1.0  0.00000  0.00000  0.00000  1.0000 0.942913664
Zn  Zn11      1.0  0.50000  0.50000  0.50000  1.0000 0.9514856961
Zn  Zn12      1.0  0.50000  0.00000  0.00000  1.0000 0.9514856961
H   H1        1.0  0.46920  0.21770  0.46390  1.0000 0.0987779217
H   H2        1.0  0.53080  0.71770  0.03610  1.0000 0.0987779217
H   H3        1.0  0.53080  0.78230  0.53610  1.0000 0.0987779217
H   H4        1.0  0.46920  0.28230  0.96390  1.0000 0.0987779217
H   H5        1.0  0.97430  0.27530  0.13030  1.0000 0.0987779217
H   H6        1.0  0.02570  0.77530  0.36970  1.0000 0.0987779217
H   H7        1.0  0.02570  0.72470  0.86970  1.0000 0.0987779217
H   H8        1.0  0.97430  0.22470  0.63030  1.0000 0.0987779217
H   H9        1.0  0.00130  0.12920  0.44510  1.0000 0.0926966805
H   H10       1.0  0.99870  0.62920  0.05490  1.0000 0.0926966805
H   H11       1.0  0.99870  0.87080  0.55490  1.0000 0.0926966805
H   H12       1.0  0.00130  0.37080  0.94510  1.0000 0.0926966805
H   H13       1.0  0.27190  0.64740  0.57420  1.0000 0.0926966805
H   H14       1.0  0.72810  0.14740  0.92580  1.0000 0.0926966805
H   H15       1.0  0.72810  0.35260  0.42580  1.0000 0.0926966805
H   H16       1.0  0.27190  0.85260  0.07420  1.0000 0.0926966805
H   H17       1.0  0.25320  0.71800  0.28760  1.0000 0.0987779217
H   H18       1.0  0.74680  0.21800  0.21240  1.0000 0.0987779217
H   H19       1.0  0.74680  0.28200  0.71240  1.0000 0.0987779217
H   H20       1.0  0.25320  0.78200  0.78760  1.0000 0.0987779217
H   H21       1.0  0.72340  0.55320  0.24440  1.0000 0.0987779217
H   H22       1.0  0.27660  0.05320  0.25560  1.0000 0.0987779217
H   H23       1.0  0.27660  0.44680  0.75560  1.0000 0.0987779217
H   H24       1.0  0.72340  0.94680  0.74440  1.0000 0.0987779217
C   C1        1.0  0.36950  0.23390  0.43080  1.0000 0.4902682033
C   C2        1.0  0.63050  0.73390  0.06920  1.0000 0.4902682033
C   C3        1.0  0.63050  0.76610  0.56920  1.0000 0.4902682033
C   C4        1.0  0.36950  0.26610  0.93080  1.0000 0.4902682033
C   C5        1.0  0.98790  0.34340  0.16860  1.0000 0.4698237629
C   C6        1.0  0.01210  0.84340  0.33140  1.0000 0.4698237629
C   C7        1.0  0.01210  0.65660  0.83140  1.0000 0.4698237629
C   C8        1.0  0.98790  0.15660  0.66860  1.0000 0.4698237629
C   C9        1.0  0.01700  0.21920  0.44190  1.0000 0.4698237629
C   C10       1.0  0.98300  0.71920  0.05810  1.0000 0.4698237629
C   C11       1.0  0.98300  0.78080  0.55810  1.0000 0.4698237629
C   C12       1.0  0.01700  0.28080  0.94190  1.0000 0.4698237629
C   C13       1.0  0.27740  0.59370  0.53540  1.0000 0.4790590209
C   C14       1.0  0.72260  0.09370  0.96460  1.0000 0.4790590209
C   C15       1.0  0.72260  0.40630  0.46460  1.0000 0.4790590209
C   C16       1.0  0.27740  0.90630  0.03540  1.0000 0.4790590209
C   C17       1.0  0.26910  0.64940  0.32620  1.0000 0.4625954058
C   C18       1.0  0.73090  0.14940  0.17380  1.0000 0.4625954058
C   C19       1.0  0.73090  0.35060  0.67380  1.0000 0.4625954058
C   C20       1.0  0.26910  0.85060  0.82620  1.0000 0.4625954058
C   C21       1.0  0.81520  0.53000  0.29560  1.0000 0.4698237629
C   C22       1.0  0.18480  0.03000  0.20440  1.0000 0.4698237629
C   C23       1.0  0.18480  0.47000  0.70440  1.0000 0.4698237629
C   C24       1.0  0.81520  0.97000  0.79560  1.0000 0.4698237629
O   O1        1.0  0.28770  0.13680  0.39208  1.0000 -0.4997556183
O   O2        1.0  0.71230  0.63680  0.10792  1.0000 -0.4997556183
O   O3        1.0  0.71230  0.86320  0.60792  1.0000 -0.4997556183
O   O4        1.0  0.28770  0.36320  0.89208  1.0000 -0.4997556183
O   O5        1.0  0.33210  0.35298  0.43034  1.0000 -0.5396755609
O   O6        1.0  0.66790  0.85298  0.06966  1.0000 -0.5396755609
O   O7        1.0  0.66790  0.64702  0.56966  1.0000 -0.5396755609
O   O8        1.0  0.33210  0.14702  0.93034  1.0000 -0.5396755609
O   O9        1.0  0.05310  0.31309  0.25058  1.0000 -0.5488394994
O   O10       1.0  0.94690  0.81309  0.24942  1.0000 -0.5488394994
O   O11       1.0  0.94690  0.68691  0.74942  1.0000 -0.5488394994
O   O12       1.0  0.05310  0.18691  0.75058  1.0000 -0.5488394994
O   O13       1.0  0.94060  0.45460  0.13453  1.0000 -0.4901848335
O   O14       1.0  0.05940  0.95460  0.36547  1.0000 -0.4901848335
O   O15       1.0  0.05940  0.54540  0.86547  1.0000 -0.4901848335
O   O16       1.0  0.94060  0.04540  0.63453  1.0000 -0.4901848335
O   O17       1.0  0.04170  0.25213  0.38568  1.0000 -0.5488394994
O   O18       1.0  0.95830  0.75213  0.11432  1.0000 -0.5488394994
O   O19       1.0  0.95830  0.74787  0.61432  1.0000 -0.5488394994
O   O20       1.0  0.04170  0.24787  0.88568  1.0000 -0.5488394994
O   O21       1.0  0.01170  0.29500  0.49241  1.0000 -0.4997556183
O   O22       1.0  0.98830  0.79500  0.00759  1.0000 -0.4997556183
O   O23       1.0  0.98830  0.70500  0.50759  1.0000 -0.4997556183
O   O24       1.0  0.01170  0.20500  0.99241  1.0000 -0.4997556183
O   O25       1.0  0.16400  0.52610  0.47799  1.0000 -0.5396755609
O   O26       1.0  0.83600  0.02610  0.02201  1.0000 -0.5396755609
O   O27       1.0  0.83600  0.47390  0.52201  1.0000 -0.5396755609
O   O28       1.0  0.16400  0.97390  0.97799  1.0000 -0.5396755609
O   O29       1.0  0.39290  0.59510  0.54458  1.0000 -0.4997556183
O   O30       1.0  0.60710  0.09510  0.95542  1.0000 -0.4997556183
O   O31       1.0  0.60710  0.40490  0.45542  1.0000 -0.4997556183
O   O32       1.0  0.39290  0.90490  0.04458  1.0000 -0.4997556183
O   O33       1.0  0.15700  0.58901  0.30803  1.0000 -0.5488394994
O   O34       1.0  0.84300  0.08901  0.19197  1.0000 -0.5488394994
O   O35       1.0  0.84300  0.41099  0.69197  1.0000 -0.5488394994
O   O36       1.0  0.15700  0.91099  0.80803  1.0000 -0.5488394994
O   O37       1.0  0.39640  0.62680  0.38939  1.0000 -0.4826359871
O   O38       1.0  0.60360  0.12680  0.11061  1.0000 -0.4826359871
O   O39       1.0  0.60360  0.37320  0.61061  1.0000 -0.4826359871
O   O40       1.0  0.39640  0.87320  0.88939  1.0000 -0.4826359871
O   O41       1.0  0.91600  0.52020  0.28666  1.0000 -0.5488394994
O   O42       1.0  0.08400  0.02020  0.21334  1.0000 -0.5488394994
O   O43       1.0  0.08400  0.47980  0.71334  1.0000 -0.5488394994
O   O44       1.0  0.91600  0.97980  0.78666  1.0000 -0.5488394994
O   O45       1.0  0.82490  0.51250  0.36393  1.0000 -0.4901848335
O   O46       1.0  0.17510  0.01250  0.13607  1.0000 -0.4901848335
O   O47       1.0  0.17510  0.48750  0.63607  1.0000 -0.4901848335
O   O48       1.0  0.82490  0.98750  0.86393  1.0000 -0.4901848335
