# DDEC6 charges by PACMAN v1.1 (https://github.com/mtap-research/PACMAN-charge/)
data_2016[Co][nan]3[FSR]7
_chemical_formula_sum              "Co6 H16 C28 N12 O12"
_cell_length_a       10.9323
_cell_length_b       10.9323
_cell_length_c       11.1909
_cell_angle_alpha    86.0501
_cell_angle_beta     93.9499
_cell_angle_gamma    109.478

_symmetry_space_group_name_H-M    "P 1"
_symmetry_Int_Tables_number       1

loop_
  _symmetry_equiv_pos_as_xyz
  'x, y, z'

loop_
  _atom_site_type_symbol
  _atom_site_label
  _atom_site_symmetry_multiplicity
  _atom_site_fract_x
  _atom_site_fract_y
  _atom_site_fract_z
  _atom_site_occupancy
  _atom_site_charge
Co  Co1       1.0  0.90420  0.90420  0.75000  1.0000 0.9280025996
Co  Co2       1.0  0.09580  0.09580  0.25000  1.0000 0.9280025996
Co  Co3       1.0  0.01938  0.86204  0.49949  1.0000 0.8523431011
Co  Co4       1.0  0.86204  0.01938  0.00051  1.0000 0.8523431011
Co  Co5       1.0  0.98062  0.13796  0.50051  1.0000 0.8523431011
Co  Co6       1.0  0.13796  0.98062  0.99949  1.0000 0.8523431011
H   H1        1.0  0.34930  0.87370  0.51690  1.0000 0.1386926733
H   H2        1.0  0.87370  0.34930  0.98310  1.0000 0.1386926733
H   H3        1.0  0.65070  0.12630  0.48310  1.0000 0.1386926733
H   H4        1.0  0.12630  0.65070  0.01690  1.0000 0.1386926733
H   H5        1.0  0.54640  0.87680  0.60890  1.0000 0.1218360178
H   H6        1.0  0.87680  0.54640  0.89110  1.0000 0.1218360178
H   H7        1.0  0.45360  0.12320  0.39110  1.0000 0.1218360178
H   H8        1.0  0.12320  0.45360  0.10890  1.0000 0.1218360178
H   H9        1.0  0.43760  0.93820  0.93340  1.0000 0.1386926733
H   H10       1.0  0.93820  0.43760  0.56660  1.0000 0.1386926733
H   H11       1.0  0.56240  0.06180  0.06660  1.0000 0.1386926733
H   H12       1.0  0.06180  0.56240  0.43340  1.0000 0.1386926733
H   H13       1.0  0.81600  0.90200  0.53300  1.0000 0.3936972953
H   H14       1.0  0.90200  0.81600  0.96700  1.0000 0.3936972953
H   H15       1.0  0.18400  0.09800  0.46700  1.0000 0.3936972953
H   H16       1.0  0.09800  0.18400  0.03300  1.0000 0.3936972953
C   C1        1.0  0.30071  0.92449  0.79460  1.0000 0.1314813681
C   C2        1.0  0.92449  0.30071  0.70540  1.0000 0.1314813681
C   C3        1.0  0.69929  0.07551  0.20540  1.0000 0.1314813681
C   C4        1.0  0.07551  0.69929  0.29460  1.0000 0.1314813681
C   C5        1.0  0.27425  0.90395  0.67190  1.0000 0.1218360178
C   C6        1.0  0.90395  0.27425  0.82810  1.0000 0.1218360178
C   C7        1.0  0.72575  0.09605  0.32810  1.0000 0.1218360178
C   C8        1.0  0.09605  0.72575  0.17190  1.0000 0.1218360178
C   C9        1.0  0.36660  0.88620  0.59940  1.0000 -0.1705122255
C   C10       1.0  0.88620  0.36660  0.90060  1.0000 -0.1705122255
C   C11       1.0  0.63340  0.11380  0.40060  1.0000 -0.1705122255
C   C12       1.0  0.11380  0.63340  0.09940  1.0000 -0.1705122255
C   C13       1.0  0.48250  0.88810  0.65480  1.0000 -0.1222581901
C   C14       1.0  0.88810  0.48250  0.84520  1.0000 -0.1222581901
C   C15       1.0  0.51750  0.11190  0.34520  1.0000 -0.1222581901
C   C16       1.0  0.11190  0.51750  0.15480  1.0000 -0.1222581901
C   C17       1.0  0.50948  0.90672  0.77960  1.0000 -0.016662851
C   C18       1.0  0.90672  0.50948  0.72040  1.0000 -0.016662851
C   C19       1.0  0.49052  0.09328  0.22040  1.0000 -0.016662851
C   C20       1.0  0.09328  0.49052  0.27960  1.0000 -0.016662851
C   C21       1.0  0.41980  0.92540  0.85090  1.0000 -0.1705122255
C   C22       1.0  0.92540  0.41980  0.64910  1.0000 -0.1705122255
C   C23       1.0  0.58020  0.07460  0.14910  1.0000 -0.1705122255
C   C24       1.0  0.07460  0.58020  0.35090  1.0000 -0.1705122255
C   C25       1.0  0.64040  0.90680  0.83150  1.0000 0.5882390179
C   C26       1.0  0.90680  0.64040  0.66850  1.0000 0.5882390179
C   C27       1.0  0.35960  0.09320  0.16850  1.0000 0.5882390179
C   C28       1.0  0.09320  0.35960  0.33150  1.0000 0.5882390179
N   N1        1.0  0.19123  0.93917  0.83770  1.0000 -0.2477978431
N   N2        1.0  0.93917  0.19123  0.66230  1.0000 -0.2477978431
N   N3        1.0  0.80877  0.06083  0.16230  1.0000 -0.2477978431
N   N4        1.0  0.06083  0.80877  0.33770  1.0000 -0.2477978431
N   N5        1.0  0.10624  0.92796  0.74390  1.0000 -0.0342278555
N   N6        1.0  0.92796  0.10624  0.75610  1.0000 -0.0342278555
N   N7        1.0  0.89376  0.07204  0.25610  1.0000 -0.0352931172
N   N8        1.0  0.07204  0.89376  0.24390  1.0000 -0.0342278555
N   N9        1.0  0.15219  0.90681  0.64380  1.0000 -0.2442536614
N   N10       1.0  0.90681  0.15219  0.85620  1.0000 -0.2442536614
N   N11       1.0  0.84781  0.09319  0.35620  1.0000 -0.2442536614
N   N12       1.0  0.09319  0.84781  0.14380  1.0000 -0.2442536614
O   O1        1.0  0.89944  0.93980  0.56790  1.0000 -0.8359516822
O   O2        1.0  0.93980  0.89944  0.93210  1.0000 -0.8359516822
O   O3        1.0  0.10056  0.06020  0.43210  1.0000 -0.8346199356
O   O4        1.0  0.06020  0.10056  0.06790  1.0000 -0.8346199356
O   O5        1.0  0.67394  0.94566  0.93680  1.0000 -0.5603648387
O   O6        1.0  0.94566  0.67394  0.56320  1.0000 -0.5603648387
O   O7        1.0  0.32606  0.05434  0.06320  1.0000 -0.5603648387
O   O8        1.0  0.05434  0.32606  0.43680  1.0000 -0.5603648387
O   O9        1.0  0.70658  0.86862  0.76500  1.0000 -0.5486776493
O   O10       1.0  0.86862  0.70658  0.73500  1.0000 -0.5486776493
O   O11       1.0  0.29342  0.13138  0.23500  1.0000 -0.5486776493
O   O12       1.0  0.13138  0.29342  0.26500  1.0000 -0.5486776493
