# DDEC6 charges by PACMAN v1.1 (https://github.com/mtap-research/PACMAN-charge/)
data_2016[Mn][rtl]3[FSR]3
_chemical_formula_sum              "Mn4 H32 C48 N8 O16"
_cell_length_a       9.9545
_cell_length_b       13.1364
_cell_length_c       11.0094
_cell_angle_alpha    90
_cell_angle_beta     101.703
_cell_angle_gamma    90

_symmetry_space_group_name_H-M    "P 1"
_symmetry_Int_Tables_number       1

loop_
  _symmetry_equiv_pos_as_xyz
  'x, y, z'

loop_
  _atom_site_type_symbol
  _atom_site_label
  _atom_site_symmetry_multiplicity
  _atom_site_fract_x
  _atom_site_fract_y
  _atom_site_fract_z
  _atom_site_occupancy
  _atom_site_charge
Mn  Mn1       1.0  0.12629  0.80736  0.74778  1.0000 0.9144300451
Mn  Mn2       1.0  0.87371  0.30736  0.25222  1.0000 0.9166048596
Mn  Mn3       1.0  0.62442  0.80841  0.75336  1.0000 0.9166048596
Mn  Mn4       1.0  0.37558  0.30841  0.24664  1.0000 0.9166048596
H   H1        1.0  0.82110  0.51200  0.64400  1.0000 0.1394232889
H   H2        1.0  0.17890  0.01200  0.35600  1.0000 0.1394232889
H   H3        1.0  0.88220  0.69190  0.36800  1.0000 0.1459478666
H   H4        1.0  0.11780  0.19190  0.63200  1.0000 0.1459478666
H   H5        1.0  0.87980  0.55140  0.24700  1.0000 0.1005459973
H   H6        1.0  0.12020  0.05140  0.75300  1.0000 0.1005459973
H   H7        1.0  0.45720  0.14070  0.51250  1.0000 0.1303370525
H   H8        1.0  0.54280  0.64070  0.48750  1.0000 0.1303370525
H   H9        1.0  0.84020  0.37340  0.52040  1.0000 0.1067076703
H   H10       1.0  0.15980  0.87340  0.47960  1.0000 0.1067076703
H   H11       1.0  0.41220  0.67480  0.86210  1.0000 0.1005459973
H   H12       1.0  0.58780  0.17480  0.13790  1.0000 0.1005459973
H   H13       1.0  0.45260  0.00140  0.63830  1.0000 0.1005459973
H   H14       1.0  0.54740  0.50140  0.36170  1.0000 0.1005459973
H   H15       1.0  0.84680  0.07290  0.50360  1.0000 0.124293529
H   H16       1.0  0.15320  0.57290  0.49640  1.0000 0.124293529
H   H17       1.0  0.83330  0.93690  0.63270  1.0000 0.1005459973
H   H18       1.0  0.16670  0.43690  0.36730  1.0000 0.1005459973
H   H19       1.0  0.79770  0.48440  0.99950  1.0000 0.1303370525
H   H20       1.0  0.20230  0.98440  0.00050  1.0000 0.1303370525
H   H21       1.0  0.39950  0.53730  0.98910  1.0000 0.1303370525
H   H22       1.0  0.60050  0.03730  0.01090  1.0000 0.1303370525
H   H23       1.0  0.80140  0.62430  0.87830  1.0000 0.1005459973
H   H24       1.0  0.19860  0.12430  0.12170  1.0000 0.1005459973
H   H25       1.0  0.90720  0.10580  0.85480  1.0000 0.1303370525
H   H26       1.0  0.09280  0.60580  0.14520  1.0000 0.1303370525
H   H27       1.0  0.88540  0.06320  0.26030  1.0000 0.1005459973
H   H28       1.0  0.11460  0.56320  0.73970  1.0000 0.1005459973
H   H29       1.0  0.89030  0.92200  0.13900  1.0000 0.1394232889
H   H30       1.0  0.10970  0.42200  0.86100  1.0000 0.1394232889
H   H31       1.0  0.89370  0.24210  0.98130  1.0000 0.1067076703
H   H32       1.0  0.10630  0.74210  0.01870  1.0000 0.1067076703
C   C1        1.0  0.59850  0.49530  0.01170  1.0000 0.0210735365
C   C2        1.0  0.40150  0.99530  0.98830  1.0000 0.0210735365
C   C3        1.0  0.84940  0.61750  0.51900  1.0000 0.0269131656
C   C4        1.0  0.15060  0.11750  0.48100  1.0000 0.0269131656
C   C5        1.0  0.83580  0.52130  0.56400  1.0000 -0.1806286221
C   C6        1.0  0.16420  0.02130  0.43600  1.0000 -0.1806286221
C   C7        1.0  0.86940  0.62790  0.39980  1.0000 -0.1706387868
C   C8        1.0  0.13060  0.12790  0.60020  1.0000 -0.1706387868
C   C9        1.0  0.87020  0.54310  0.32870  1.0000 0.0692736139
C   C10       1.0  0.12980  0.04310  0.67130  1.0000 0.0692736139
C   C11       1.0  0.53450  0.09980  0.53490  1.0000 -0.155509464
C   C12       1.0  0.46550  0.59980  0.46510  1.0000 -0.155509464
C   C13       1.0  0.84420  0.43860  0.48840  1.0000 0.0810398613
C   C14       1.0  0.15580  0.93860  0.51160  1.0000 0.0810398613
C   C15       1.0  0.49120  0.63730  0.89240  1.0000 0.0810398613
C   C16       1.0  0.50880  0.13730  0.10760  1.0000 0.0810398613
C   C17       1.0  0.53280  0.01610  0.61070  1.0000 0.0810398613
C   C18       1.0  0.46720  0.51610  0.38930  1.0000 0.0810398613
C   C19       1.0  0.84430  0.70910  0.60280  1.0000 0.5695995917
C   C20       1.0  0.15570  0.20910  0.39720  1.0000 0.5695995917
C   C21       1.0  0.76540  0.05990  0.52990  1.0000 -0.1706387868
C   C22       1.0  0.23460  0.55990  0.47010  1.0000 -0.1706387868
C   C23       1.0  0.75640  0.97770  0.60720  1.0000 0.0810398613
C   C24       1.0  0.24360  0.47770  0.39280  1.0000 0.0810398613
C   C25       1.0  0.71840  0.52290  0.97470  1.0000 -0.1706387868
C   C26       1.0  0.28160  0.02290  0.02530  1.0000 -0.1706387868
C   C27       1.0  0.48260  0.55390  0.96790  1.0000 -0.155509464
C   C28       1.0  0.51740  0.05390  0.03210  1.0000 -0.155509464
C   C29       1.0  0.71960  0.60700  0.90150  1.0000 0.0810398613
C   C30       1.0  0.28040  0.10700  0.09850  1.0000 0.0810398613
C   C31       1.0  0.59020  0.40410  0.09300  1.0000 0.5695995917
C   C32       1.0  0.40980  0.90410  0.90700  1.0000 0.5695995917
C   C33       1.0  0.91000  0.90350  0.90310  1.0000 0.5589598795
C   C34       1.0  0.09000  0.40350  0.09690  1.0000 0.5589598795
C   C35       1.0  0.89860  0.99590  0.98070  1.0000 0.0210735365
C   C36       1.0  0.10140  0.49590  0.01930  1.0000 0.0210735365
C   C37       1.0  0.90100  0.09460  0.93690  1.0000 -0.1806286221
C   C38       1.0  0.09900  0.59460  0.06310  1.0000 -0.1806286221
C   C39       1.0  0.88830  0.07220  0.17710  1.0000 0.0627405276
C   C40       1.0  0.11170  0.57220  0.82290  1.0000 0.0627405276
C   C41       1.0  0.89210  0.98640  0.10430  1.0000 -0.1806286221
C   C42       1.0  0.10790  0.48640  0.89570  1.0000 -0.1806286221
C   C43       1.0  0.65400  0.12180  0.49260  1.0000 0.0269131656
C   C44       1.0  0.34600  0.62180  0.50740  1.0000 0.0269131656
C   C45       1.0  0.89420  0.17690  0.01430  1.0000 0.0810398613
C   C46       1.0  0.10580  0.67690  0.98570  1.0000 0.0810398613
C   C47       1.0  0.65760  0.20930  0.40120  1.0000 0.5589598795
C   C48       1.0  0.34240  0.70930  0.59880  1.0000 0.5589598795
N   N1        1.0  0.85810  0.44930  0.36990  1.0000 -0.2229877184
N   N2        1.0  0.14190  0.94930  0.63010  1.0000 -0.2229877184
N   N3        1.0  0.60970  0.66590  0.86150  1.0000 -0.2319206318
N   N4        1.0  0.39030  0.16590  0.13850  1.0000 -0.2319206318
N   N5        1.0  0.64190  0.95520  0.64600  1.0000 -0.2319206318
N   N6        1.0  0.35810  0.45520  0.35400  1.0000 -0.2319206318
N   N7        1.0  0.88850  0.16720  0.13350  1.0000 -0.2319206318
N   N8        1.0  0.11150  0.66720  0.86650  1.0000 -0.2319206318
O   O1        1.0  0.73860  0.71620  0.64410  1.0000 -0.5403327863
O   O2        1.0  0.26140  0.21620  0.35590  1.0000 -0.5403327863
O   O3        1.0  0.94190  0.77150  0.61110  1.0000 -0.5632250676
O   O4        1.0  0.05810  0.27150  0.38890  1.0000 -0.5632250676
O   O5        1.0  0.81590  0.84100  0.88530  1.0000 -0.5305078993
O   O6        1.0  0.18410  0.34100  0.11470  1.0000 -0.5305078993
O   O7        1.0  0.01410  0.90100  0.85430  1.0000 -0.56914816
O   O8        1.0  0.98590  0.40100  0.14570  1.0000 -0.56914816
O   O9        1.0  0.48170  0.39310  0.13100  1.0000 -0.5403327863
O   O10       1.0  0.51830  0.89310  0.86900  1.0000 -0.5403327863
O   O11       1.0  0.55960  0.27020  0.38430  1.0000 -0.5501264701
O   O12       1.0  0.44040  0.77020  0.61570  1.0000 -0.5501264701
O   O13       1.0  0.76650  0.21350  0.36210  1.0000 -0.5632250676
O   O14       1.0  0.23350  0.71350  0.63790  1.0000 -0.5632250676
O   O15       1.0  0.69450  0.35000  0.12220  1.0000 -0.5501264701
O   O16       1.0  0.30550  0.85000  0.87780  1.0000 -0.5501264701
