# DDEC6 charges by PACMAN v1.1 (https://github.com/mtap-research/PACMAN-charge/)
data_2016[Zn][pcu]3[FSR]13
_chemical_formula_sum              "Zn3 H12 C20 N6 O8"
_cell_length_a       9.1768
_cell_length_b       10.9017
_cell_length_c       11.5024
_cell_angle_alpha    118.92
_cell_angle_beta     108.755
_cell_angle_gamma    81.483

_symmetry_space_group_name_H-M    "P 1"
_symmetry_Int_Tables_number       1

loop_
  _symmetry_equiv_pos_as_xyz
  'x, y, z'

loop_
  _atom_site_type_symbol
  _atom_site_label
  _atom_site_symmetry_multiplicity
  _atom_site_fract_x
  _atom_site_fract_y
  _atom_site_fract_z
  _atom_site_occupancy
  _atom_site_charge
Zn  Zn1       1.0  0.69014  0.99758  0.62295  1.0000 0.7408608095
Zn  Zn2       1.0  0.30986  0.00242  0.37705  1.0000 0.7408608095
Zn  Zn3       1.0  0.00000  0.00000  0.50000  1.0000 0.8728064791
H   H1        1.0  0.11160  0.40100  0.81950  1.0000 0.1230938977
H   H2        1.0  0.88840  0.59900  0.18050  1.0000 0.1230938977
H   H3        1.0  0.78030  0.56940  0.57180  1.0000 0.1230938977
H   H4        1.0  0.21970  0.43060  0.42820  1.0000 0.1230938977
H   H5        1.0  0.12800  0.65580  0.48220  1.0000 0.1271065146
H   H6        1.0  0.87200  0.34420  0.51780  1.0000 0.1271065146
H   H7        1.0  0.81030  0.37950  0.99790  1.0000 0.1230938977
H   H8        1.0  0.18970  0.62050  0.00210  1.0000 0.1230938977
H   H9        1.0  0.75750  0.95850  0.19780  1.0000 0.1399646596
H   H10       1.0  0.24250  0.04150  0.80220  1.0000 0.1399646596
H   H11       1.0  0.47650  0.96220  0.15100  1.0000 0.1399646596
H   H12       1.0  0.52350  0.03780  0.84900  1.0000 0.1399646596
C   C1        1.0  0.06670  0.44070  0.89160  1.0000 -0.106437768
C   C2        1.0  0.93330  0.55930  0.10840  1.0000 -0.106437768
C   C3        1.0  0.86920  0.54170  0.54360  1.0000 -0.1015587056
C   C4        1.0  0.13080  0.45830  0.45640  1.0000 -0.1015587056
C   C5        1.0  0.88800  0.78160  0.57210  1.0000 0.5879189268
C   C6        1.0  0.11200  0.21840  0.42790  1.0000 0.5879189268
C   C7        1.0  0.07700  0.59380  0.49010  1.0000 -0.1015587056
C   C8        1.0  0.92300  0.40620  0.50990  1.0000 -0.1015587056
C   C9        1.0  0.88620  0.42800  0.99860  1.0000 -0.1015587056
C   C10       1.0  0.11380  0.57200  0.00140  1.0000 -0.1015587056
C   C11       1.0  0.70450  0.96860  0.25860  1.0000 -0.0359019219
C   C12       1.0  0.29550  0.03140  0.74140  1.0000 -0.0359019219
C   C13       1.0  0.94650  0.63600  0.53560  1.0000 -0.027113638
C   C14       1.0  0.05350  0.36400  0.46440  1.0000 -0.027113638
C   C15       1.0  0.90170  0.22630  0.76940  1.0000 0.5848613278
C   C16       1.0  0.09830  0.77370  0.23060  1.0000 0.5848613278
C   C17       1.0  0.95130  0.36740  0.88900  1.0000 -0.027113638
C   C18       1.0  0.04870  0.63260  0.11100  1.0000 -0.027113638
C   C19       1.0  0.54870  0.97030  0.23260  1.0000 -0.046246606
C   C20       1.0  0.45130  0.02970  0.76740  1.0000 -0.046246606
N   N1        1.0  0.65270  0.99510  0.43960  1.0000 -0.0730161174
N   N2        1.0  0.34730  0.00490  0.56040  1.0000 -0.0730161174
N   N3        1.0  0.76780  0.98420  0.38750  1.0000 -0.1460878506
N   N4        1.0  0.23220  0.01580  0.61250  1.0000 -0.1460878506
N   N5        1.0  0.51760  0.98540  0.34470  1.0000 -0.1761261626
N   N6        1.0  0.48240  0.01460  0.65530  1.0000 -0.1761261626
O   O1        1.0  0.79660  0.16530  0.77480  1.0000 -0.5351514324
O   O2        1.0  0.20340  0.83470  0.22520  1.0000 -0.5351514324
O   O3        1.0  0.75850  0.81010  0.59640  1.0000 -0.5224403842
O   O4        1.0  0.24150  0.18990  0.40360  1.0000 -0.5224403842
O   O5        1.0  0.96020  0.17950  0.67310  1.0000 -0.5543077691
O   O6        1.0  0.03980  0.82050  0.32690  1.0000 -0.5543077691
O   O7        1.0  0.96840  0.86860  0.57760  1.0000 -0.5717424258
O   O8        1.0  0.03160  0.13140  0.42240  1.0000 -0.5717424258
