# DDEC6 charges by PACMAN v1.1 (https://github.com/mtap-research/PACMAN-charge/)
data_2016[Cu][tfw]2[FSR]1
_chemical_formula_sum              "Cu4 H28 C34 N20 O8"
_cell_length_a       13.9122
_cell_length_b       13.9122
_cell_length_c       9.2833
_cell_angle_alpha    78.095
_cell_angle_beta     101.905
_cell_angle_gamma    141.06

_symmetry_space_group_name_H-M    "P 1"
_symmetry_Int_Tables_number       1

loop_
  _symmetry_equiv_pos_as_xyz
  'x, y, z'

loop_
  _atom_site_type_symbol
  _atom_site_label
  _atom_site_symmetry_multiplicity
  _atom_site_fract_x
  _atom_site_fract_y
  _atom_site_fract_z
  _atom_site_occupancy
  _atom_site_charge
Cu  Cu1       1.0  0.63926  0.01454  0.93502  1.0000 0.6111181182
Cu  Cu2       1.0  0.01454  0.63926  0.56498  1.0000 0.6111181182
Cu  Cu3       1.0  0.36074  0.98546  0.06498  1.0000 0.6111181182
Cu  Cu4       1.0  0.98546  0.36074  0.43502  1.0000 0.6111181182
H   H1        1.0  0.70635  0.93575  0.17200  1.0000 0.1098801875
H   H2        1.0  0.93576  0.70635  0.32800  1.0000 0.1098801875
H   H3        1.0  0.29365  0.06425  0.82800  1.0000 0.1098801875
H   H4        1.0  0.06425  0.29365  0.67200  1.0000 0.1098801875
H   H5        1.0  0.63764  0.74296  0.34117  1.0000 0.1472801873
H   H6        1.0  0.74296  0.63764  0.15883  1.0000 0.1472801873
H   H7        1.0  0.36236  0.25704  0.65883  1.0000 0.1472801873
H   H8        1.0  0.25704  0.36236  0.84117  1.0000 0.1472801873
H   H9        1.0  0.23472  0.43028  0.08797  1.0000 0.1472801873
H   H10       1.0  0.43028  0.23472  0.41203  1.0000 0.1472801873
H   H11       1.0  0.76528  0.56972  0.91203  1.0000 0.1472801873
H   H12       1.0  0.56972  0.76528  0.58797  1.0000 0.1472801873
H   H13       1.0  0.31695  0.63365  0.92703  1.0000 0.1098801875
H   H14       1.0  0.63365  0.31695  0.57297  1.0000 0.1098801875
H   H15       1.0  0.68305  0.36635  0.07297  1.0000 0.1098801875
H   H16       1.0  0.36635  0.68305  0.42703  1.0000 0.1098801875
H   H17       1.0  0.30046  0.39548  0.39404  1.0000 0.1324533252
H   H18       1.0  0.39548  0.30046  0.10596  1.0000 0.1324533252
H   H19       1.0  0.69954  0.60452  0.60596  1.0000 0.1324533252
H   H20       1.0  0.60452  0.69954  0.89404  1.0000 0.1324533252
H   H21       1.0  0.46435  0.47587  0.40043  1.0000 0.1015479872
H   H22       1.0  0.47587  0.46435  0.09957  1.0000 0.1015479872
H   H23       1.0  0.53565  0.52413  0.59957  1.0000 0.1015479872
H   H24       1.0  0.52413  0.53565  0.90043  1.0000 0.1015479872
H   H25       1.0  0.22969  0.27791  0.18298  1.0000 0.1098801875
H   H26       1.0  0.27791  0.22969  0.31702  1.0000 0.1098801875
H   H27       1.0  0.77031  0.72209  0.81702  1.0000 0.1098801875
H   H28       1.0  0.72209  0.77031  0.68298  1.0000 0.1098801875
C   C1        1.0  0.93620  0.23260  0.18410  1.0000 0.5244345469
C   C2        1.0  0.23260  0.93620  0.31590  1.0000 0.5244345469
C   C3        1.0  0.06380  0.76740  0.81590  1.0000 0.5244345469
C   C4        1.0  0.76740  0.06380  0.68410  1.0000 0.5244345469
C   C5        1.0  0.79360  0.17920  0.19110  1.0000 0.1324533252
C   C6        1.0  0.17920  0.79360  0.30890  1.0000 0.1324533252
C   C7        1.0  0.20640  0.82080  0.80890  1.0000 0.1324533252
C   C8        1.0  0.82080  0.20640  0.69110  1.0000 0.1324533252
C   C9        1.0  0.60880  0.83080  0.15520  1.0000 0.0757923526
C   C10       1.0  0.83080  0.60880  0.34480  1.0000 0.0757923526
C   C11       1.0  0.39120  0.16920  0.84480  1.0000 0.0757923526
C   C12       1.0  0.16920  0.39120  0.65520  1.0000 0.0757923526
C   C13       1.0  0.56980  0.71780  0.25670  1.0000 -0.2057907777
C   C14       1.0  0.71780  0.56980  0.24330  1.0000 -0.2057907777
C   C15       1.0  0.43020  0.28220  0.74330  1.0000 -0.2057907777
C   C16       1.0  0.28220  0.43020  0.75670  1.0000 -0.2057907777
C   C17       1.0  0.42823  0.56657  0.23056  1.0000 0.172362837
C   C18       1.0  0.56657  0.42823  0.26944  1.0000 0.172362837
C   C19       1.0  0.57177  0.43343  0.76944  1.0000 0.172362837
C   C20       1.0  0.43343  0.57177  0.73056  1.0000 0.172362837
C   C21       1.0  0.33280  0.53420  0.10720  1.0000 -0.1902447539
C   C22       1.0  0.53420  0.33280  0.39280  1.0000 -0.1902447539
C   C23       1.0  0.66720  0.46580  0.89280  1.0000 -0.1902447539
C   C24       1.0  0.46580  0.66720  0.60720  1.0000 -0.1902447539
C   C25       1.0  0.38270  0.65590  0.01220  1.0000 0.0941605614
C   C26       1.0  0.65590  0.38270  0.48780  1.0000 0.0941605614
C   C27       1.0  0.61730  0.34410  0.98780  1.0000 0.0941605614
C   C28       1.0  0.34410  0.61730  0.51220  1.0000 0.0941605614
C   C29       1.0  0.37797  0.43743  0.33624  1.0000 -0.2503702985
C   C30       1.0  0.43743  0.37797  0.16376  1.0000 -0.2503702985
C   C31       1.0  0.62203  0.56257  0.66376  1.0000 -0.2503702985
C   C32       1.0  0.56257  0.62203  0.83624  1.0000 -0.2503702985
C   C33       1.0  0.31360  0.31360  0.25000  1.0000 -0.1312978911
C   C34       1.0  0.68640  0.68640  0.75000  1.0000 -0.1312978911
N   N1        1.0  0.79020  0.23180  0.29130  1.0000 -0.2018197263
N   N2        1.0  0.23180  0.79020  0.20870  1.0000 -0.2018197263
N   N3        1.0  0.20980  0.76820  0.70870  1.0000 -0.2018197263
N   N4        1.0  0.76820  0.20980  0.79130  1.0000 -0.2018197263
N   N5        1.0  0.65050  0.16590  0.27300  1.0000 -0.053469508
N   N6        1.0  0.16590  0.65050  0.22700  1.0000 -0.053469508
N   N7        1.0  0.34950  0.83410  0.72700  1.0000 -0.053469508
N   N8        1.0  0.83410  0.34950  0.77300  1.0000 -0.053469508
N   N9        1.0  0.57350  0.07590  0.16280  1.0000 -0.0631070836
N   N10       1.0  0.07590  0.57350  0.33720  1.0000 -0.0631070836
N   N11       1.0  0.42650  0.92410  0.83720  1.0000 -0.0631070836
N   N12       1.0  0.92410  0.42650  0.66280  1.0000 -0.0631070836
N   N13       1.0  0.66130  0.08310  0.11080  1.0000 -0.2057907777
N   N14       1.0  0.08310  0.66130  0.38920  1.0000 -0.2057907777
N   N15       1.0  0.33870  0.91690  0.88920  1.0000 -0.2057907777
N   N16       1.0  0.91690  0.33870  0.61080  1.0000 -0.2057907777
N   N17       1.0  0.51920  0.80360  0.03450  1.0000 -0.2018197263
N   N18       1.0  0.80360  0.51920  0.46550  1.0000 -0.2018197263
N   N19       1.0  0.48080  0.19640  0.96550  1.0000 -0.2018197263
N   N20       1.0  0.19640  0.48080  0.53450  1.0000 -0.2018197263
O   O1        1.0  0.93930  0.19350  0.07980  1.0000 -0.5245240526
O   O2        1.0  0.19350  0.93930  0.42020  1.0000 -0.5245240526
O   O3        1.0  0.06070  0.80650  0.92020  1.0000 -0.5245240526
O   O4        1.0  0.80650  0.06070  0.57980  1.0000 -0.5245240526
O   O5        1.0  0.03880  0.31320  0.28770  1.0000 -0.5059383409
O   O6        1.0  0.31320  0.03880  0.21230  1.0000 -0.5059383409
O   O7        1.0  0.96120  0.68680  0.71230  1.0000 -0.5059383409
O   O8        1.0  0.68680  0.96120  0.78770  1.0000 -0.5059383409
