# DDEC6 charges by PACMAN v1.1 (https://github.com/mtap-research/PACMAN-charge/)
data_2016[Co][nan]3[FSR]18
_chemical_formula_sum              "Co6 H16 C28 N12 O12"
_cell_length_a       10.9667
_cell_length_b       10.9667
_cell_length_c       11.2322
_cell_angle_alpha    85.7926
_cell_angle_beta     94.2074
_cell_angle_gamma    108.156

_symmetry_space_group_name_H-M    "P 1"
_symmetry_Int_Tables_number       1

loop_
  _symmetry_equiv_pos_as_xyz
  'x, y, z'

loop_
  _atom_site_type_symbol
  _atom_site_label
  _atom_site_symmetry_multiplicity
  _atom_site_fract_x
  _atom_site_fract_y
  _atom_site_fract_z
  _atom_site_occupancy
  _atom_site_charge
Co  Co1       1.0  0.90590  0.90590  0.75000  1.0000 0.9226848268
Co  Co2       1.0  0.09410  0.09410  0.25000  1.0000 0.9226848268
Co  Co3       1.0  0.86256  0.02128  0.99963  1.0000 0.8488891953
Co  Co4       1.0  0.02128  0.86256  0.50037  1.0000 0.8488891953
Co  Co5       1.0  0.13744  0.97872  0.00037  1.0000 0.8488891953
Co  Co6       1.0  0.97872  0.13744  0.49963  1.0000 0.8488891953
H   H1        1.0  0.34590  0.86990  0.51970  1.0000 0.1369791462
H   H2        1.0  0.86990  0.34590  0.98030  1.0000 0.1369791462
H   H3        1.0  0.65410  0.13010  0.48030  1.0000 0.1369791462
H   H4        1.0  0.13010  0.65410  0.01970  1.0000 0.1369791462
H   H5        1.0  0.55170  0.89050  0.60980  1.0000 0.1144830146
H   H6        1.0  0.89050  0.55170  0.89020  1.0000 0.1144830146
H   H7        1.0  0.44830  0.10950  0.39020  1.0000 0.1144830146
H   H8        1.0  0.10950  0.44830  0.10980  1.0000 0.1144830146
H   H9        1.0  0.43900  0.93900  0.93230  1.0000 0.1369791462
H   H10       1.0  0.93900  0.43900  0.56770  1.0000 0.1369791462
H   H11       1.0  0.56100  0.06100  0.06770  1.0000 0.1369791462
H   H12       1.0  0.06100  0.56100  0.43230  1.0000 0.1369791462
H   H13       1.0  0.93500  0.82880  0.96320  1.0000 0.3863133573
H   H14       1.0  0.82880  0.93500  0.53680  1.0000 0.3863133573
H   H15       1.0  0.06500  0.17120  0.03680  1.0000 0.3863133573
H   H16       1.0  0.17120  0.06500  0.46320  1.0000 0.3863133573
C   C1        1.0  0.29980  0.92240  0.79580  1.0000 0.1334439876
C   C2        1.0  0.92240  0.29980  0.70420  1.0000 0.1334439876
C   C3        1.0  0.70020  0.07760  0.20420  1.0000 0.1334439876
C   C4        1.0  0.07760  0.70020  0.29580  1.0000 0.1334439876
C   C5        1.0  0.27440  0.90500  0.67190  1.0000 0.1334439876
C   C6        1.0  0.90500  0.27440  0.82810  1.0000 0.1334439876
C   C7        1.0  0.72560  0.09500  0.32810  1.0000 0.1334439876
C   C8        1.0  0.09500  0.72560  0.17190  1.0000 0.1369791462
C   C9        1.0  0.36460  0.88640  0.60010  1.0000 -0.1911822027
C   C10       1.0  0.88640  0.36460  0.89990  1.0000 -0.1911822027
C   C11       1.0  0.63540  0.11360  0.39990  1.0000 -0.1911822027
C   C12       1.0  0.11360  0.63540  0.10010  1.0000 -0.1911822027
C   C13       1.0  0.48600  0.89360  0.65600  1.0000 -0.1043947331
C   C14       1.0  0.89360  0.48600  0.84400  1.0000 -0.1043947331
C   C15       1.0  0.51400  0.10640  0.34400  1.0000 -0.1043947331
C   C16       1.0  0.10640  0.51400  0.15600  1.0000 -0.1043947331
C   C17       1.0  0.51010  0.90570  0.78170  1.0000 -0.0370022801
C   C18       1.0  0.90570  0.51010  0.71830  1.0000 -0.0370022801
C   C19       1.0  0.48990  0.09430  0.21830  1.0000 -0.0370022801
C   C20       1.0  0.09430  0.48990  0.28170  1.0000 -0.0370022801
C   C21       1.0  0.42080  0.92480  0.85140  1.0000 -0.1514364398
C   C22       1.0  0.92480  0.42080  0.64860  1.0000 -0.1514364398
C   C23       1.0  0.57920  0.07520  0.14860  1.0000 -0.1514364398
C   C24       1.0  0.07520  0.57920  0.35140  1.0000 -0.1514364398
C   C25       1.0  0.64180  0.91260  0.83070  1.0000 0.5926363849
C   C26       1.0  0.91260  0.64180  0.66930  1.0000 0.5926363849
C   C27       1.0  0.35820  0.08740  0.16930  1.0000 0.5926363849
C   C28       1.0  0.08740  0.35820  0.33070  1.0000 0.5926363849
N   N1        1.0  0.19150  0.93810  0.83780  1.0000 -0.242838542
N   N2        1.0  0.93810  0.19150  0.66220  1.0000 -0.242838542
N   N3        1.0  0.80850  0.06190  0.16220  1.0000 -0.242838542
N   N4        1.0  0.06190  0.80850  0.33780  1.0000 -0.242838542
N   N5        1.0  0.10690  0.92590  0.74640  1.0000 -0.0349075786
N   N6        1.0  0.92590  0.10690  0.75360  1.0000 -0.0370022801
N   N7        1.0  0.89310  0.07410  0.25360  1.0000 -0.0370022801
N   N8        1.0  0.07410  0.89310  0.24640  1.0000 -0.0349075786
N   N9        1.0  0.15150  0.90410  0.64440  1.0000 -0.2640489852
N   N10       1.0  0.90410  0.15150  0.85560  1.0000 -0.2640489852
N   N11       1.0  0.84850  0.09590  0.35560  1.0000 -0.2640489852
N   N12       1.0  0.09590  0.84850  0.14440  1.0000 -0.2640489852
O   O1        1.0  0.67590  0.95090  0.93530  1.0000 -0.5563376165
O   O2        1.0  0.95090  0.67590  0.56470  1.0000 -0.5563376165
O   O3        1.0  0.32410  0.04910  0.06470  1.0000 -0.5563376165
O   O4        1.0  0.04910  0.32410  0.43530  1.0000 -0.5563376165
O   O5        1.0  0.70800  0.87260  0.76470  1.0000 -0.5472262121
O   O6        1.0  0.87260  0.70800  0.73530  1.0000 -0.5472262121
O   O7        1.0  0.29200  0.12740  0.23530  1.0000 -0.5472262121
O   O8        1.0  0.12740  0.29200  0.26470  1.0000 -0.5472262121
O   O9        1.0  0.94160  0.90380  0.93170  1.0000 -0.8155206657
O   O10       1.0  0.90380  0.94160  0.56830  1.0000 -0.8155206657
O   O11       1.0  0.05840  0.09620  0.06830  1.0000 -0.8144242978
O   O12       1.0  0.09620  0.05840  0.43170  1.0000 -0.8144242978
