# DDEC6 charges by PACMAN v1.1 (https://github.com/mtap-research/PACMAN-charge/)
data_2016[Zn][pcu]3[FSR]10
_chemical_formula_sum              "Zn8 H112 C160 N32 O40"
_cell_length_a       20.0112
_cell_length_b       20.0112
_cell_length_c       20.0112
_cell_angle_alpha    135.63
_cell_angle_beta     120.345
_cell_angle_gamma    77.2884

_symmetry_space_group_name_H-M    "P 1"
_symmetry_Int_Tables_number       1

loop_
  _symmetry_equiv_pos_as_xyz
  'x, y, z'

loop_
  _atom_site_type_symbol
  _atom_site_label
  _atom_site_symmetry_multiplicity
  _atom_site_fract_x
  _atom_site_fract_y
  _atom_site_fract_z
  _atom_site_occupancy
  _atom_site_charge
Zn  Zn1       1.0  0.05369  0.24902  0.58645  1.0000 0.8048892795
Zn  Zn2       1.0  0.16257  0.46724  0.91355  1.0000 0.8048892795
Zn  Zn3       1.0  0.66257  0.74902  0.69533  1.0000 0.8048892795
Zn  Zn4       1.0  0.55369  0.96724  0.80467  1.0000 0.8048892795
Zn  Zn5       1.0  0.33743  0.25098  0.30467  1.0000 0.8048892795
Zn  Zn6       1.0  0.44631  0.03276  0.19533  1.0000 0.8048892795
Zn  Zn7       1.0  0.94631  0.75098  0.41355  1.0000 0.8048892795
Zn  Zn8       1.0  0.83743  0.53276  0.08645  1.0000 0.8048892795
H   H1        1.0  0.05350  0.11520  0.61630  1.0000 0.1106041382
H   H2        1.0  0.99890  0.43720  0.88370  1.0000 0.1106041382
H   H3        1.0  0.49890  0.61520  0.56170  1.0000 0.1106041382
H   H4        1.0  0.55350  0.93720  0.93830  1.0000 0.1106041382
H   H5        1.0  0.97880  0.04700  0.62000  1.0000 0.1406997881
H   H6        1.0  0.92700  0.35880  0.88000  1.0000 0.1406997881
H   H7        1.0  0.42700  0.54700  0.56820  1.0000 0.1406997881
H   H8        1.0  0.47880  0.85880  0.93180  1.0000 0.1406997881
H   H9        1.0  0.81090  0.18110  0.57180  1.0000 0.1406997881
H   H10       1.0  0.10930  0.23910  0.92820  1.0000 0.1406997881
H   H11       1.0  0.60930  0.68110  0.87020  1.0000 0.1406997881
H   H12       1.0  0.31090  0.73910  0.62980  1.0000 0.1406997881
H   H13       1.0  0.88970  0.24500  0.56870  1.0000 0.1106041382
H   H14       1.0  0.17630  0.32100  0.93130  1.0000 0.1106041382
H   H15       1.0  0.67630  0.74500  0.85530  1.0000 0.1106041382
H   H16       1.0  0.38970  0.82100  0.64470  1.0000 0.1106041382
H   H17       1.0  0.90670  0.94740  0.69410  1.0000 0.1188638732
H   H18       1.0  0.75330  0.21260  0.80590  1.0000 0.1188638732
H   H19       1.0  0.25330  0.44740  0.54070  1.0000 0.1188638732
H   H20       1.0  0.40670  0.71260  0.95930  1.0000 0.1188638732
H   H21       1.0  0.90150  0.89710  0.77700  1.0000 0.1406997881
H   H22       1.0  0.62010  0.12450  0.72300  1.0000 0.1406997881
H   H23       1.0  0.12010  0.39710  0.49560  1.0000 0.1406997881
H   H24       1.0  0.40150  0.62450  0.00440  1.0000 0.1406997881
H   H25       1.0  0.83010  0.83110  0.78620  1.0000 0.1106041382
H   H26       1.0  0.54490  0.04390  0.71380  1.0000 0.1106041382
H   H27       1.0  0.04490  0.33110  0.50100  1.0000 0.1106041382
H   H28       1.0  0.33010  0.54390  0.99900  1.0000 0.1106041382
H   H29       1.0  0.63360  0.80090  0.56810  1.0000 0.1039037137
H   H30       1.0  0.73280  0.06550  0.93190  1.0000 0.1039037137
H   H31       1.0  0.23280  0.30090  0.66730  1.0000 0.1039037137
H   H32       1.0  0.13360  0.56550  0.83270  1.0000 0.1039037137
H   H33       1.0  0.69870  0.87130  0.55800  1.0000 0.1406997881
H   H34       1.0  0.81330  0.14070  0.94200  1.0000 0.1406997881
H   H35       1.0  0.31330  0.37130  0.67260  1.0000 0.1406997881
H   H36       1.0  0.19870  0.64070  0.82740  1.0000 0.1406997881
H   H37       1.0  0.73890  0.12630  0.13940  1.0000 0.1106041382
H   H38       1.0  0.48690  0.59950  0.36060  1.0000 0.1106041382
H   H39       1.0  0.98690  0.62630  0.88740  1.0000 0.1106041382
H   H40       1.0  0.23890  0.09950  0.61260  1.0000 0.1106041382
H   H41       1.0  0.84260  0.19120  0.30960  1.0000 0.1188638732
H   H42       1.0  0.38160  0.53300  0.19040  1.0000 0.1188638732
H   H43       1.0  0.88160  0.69120  0.84860  1.0000 0.1188638732
H   H44       1.0  0.34260  0.03300  0.65140  1.0000 0.1188638732
H   H45       1.0  0.92420  0.94730  0.15630  1.0000 0.1188638732
H   H46       1.0  0.29100  0.76790  0.34370  1.0000 0.1188638732
H   H47       1.0  0.79100  0.44730  0.52310  1.0000 0.1188638732
H   H48       1.0  0.42420  0.26790  0.97690  1.0000 0.1188638732
H   H49       1.0  0.82070  0.88340  0.98550  1.0000 0.127026084
H   H50       1.0  0.39790  0.83520  0.51450  1.0000 0.127026084
H   H51       1.0  0.89790  0.38340  0.56270  1.0000 0.127026084
H   H52       1.0  0.32070  0.33520  0.93730  1.0000 0.127026084
H   H53       1.0  0.91080  0.00680  0.64600  1.0000 0.2647882282
H   H54       1.0  0.86080  0.26480  0.85400  1.0000 0.2647882282
H   H55       1.0  0.36080  0.50680  0.59600  1.0000 0.2647882282
H   H56       1.0  0.41080  0.76480  0.90400  1.0000 0.2647882282
H   H57       1.0  0.50110  0.38480  0.43830  1.0000 0.1106041382
H   H58       1.0  0.44650  0.06280  0.06170  1.0000 0.1106041382
H   H59       1.0  0.94650  0.88480  0.38370  1.0000 0.1106041382
H   H60       1.0  0.00110  0.56280  0.11630  1.0000 0.1106041382
H   H61       1.0  0.57300  0.45300  0.43180  1.0000 0.1406997881
H   H62       1.0  0.52120  0.14120  0.06820  1.0000 0.1406997881
H   H63       1.0  0.02120  0.95300  0.38000  1.0000 0.1406997881
H   H64       1.0  0.07300  0.64120  0.12000  1.0000 0.1406997881
H   H65       1.0  0.39070  0.31890  0.12980  1.0000 0.1406997881
H   H66       1.0  0.68910  0.26090  0.37020  1.0000 0.1406997881
H   H67       1.0  0.18910  0.81890  0.42820  1.0000 0.1406997881
H   H68       1.0  0.89070  0.76090  0.07180  1.0000 0.1406997881
H   H69       1.0  0.32370  0.25500  0.14470  1.0000 0.1106041382
H   H70       1.0  0.61030  0.17900  0.35530  1.0000 0.1106041382
H   H71       1.0  0.11030  0.75500  0.43130  1.0000 0.1106041382
H   H72       1.0  0.82370  0.67900  0.06870  1.0000 0.1106041382
H   H73       1.0  0.74670  0.55260  0.45930  1.0000 0.1188638732
H   H74       1.0  0.59330  0.28740  0.04070  1.0000 0.1188638732
H   H75       1.0  0.09330  0.05260  0.30590  1.0000 0.1188638732
H   H76       1.0  0.24670  0.78740  0.19410  1.0000 0.1188638732
H   H77       1.0  0.87990  0.60290  0.50440  1.0000 0.1406997881
H   H78       1.0  0.59850  0.37550  0.99560  1.0000 0.1406997881
H   H79       1.0  0.09850  0.10290  0.22300  1.0000 0.1406997881
H   H80       1.0  0.37990  0.87550  0.27700  1.0000 0.1406997881
H   H81       1.0  0.95510  0.66890  0.49900  1.0000 0.1106041382
H   H82       1.0  0.66990  0.45610  0.00100  1.0000 0.1106041382
H   H83       1.0  0.16990  0.16890  0.21380  1.0000 0.1106041382
H   H84       1.0  0.45510  0.95610  0.28620  1.0000 0.1106041382
H   H85       1.0  0.76720  0.69910  0.33270  1.0000 0.1039037137
H   H86       1.0  0.86640  0.43450  0.16730  1.0000 0.1039037137
H   H87       1.0  0.36640  0.19910  0.43190  1.0000 0.1039037137
H   H88       1.0  0.26720  0.93450  0.06810  1.0000 0.1039037137
H   H89       1.0  0.68670  0.62870  0.32740  1.0000 0.1406997881
H   H90       1.0  0.80130  0.35930  0.17260  1.0000 0.1406997881
H   H91       1.0  0.30130  0.12870  0.44200  1.0000 0.1406997881
H   H92       1.0  0.18670  0.85930  0.05800  1.0000 0.1406997881
H   H93       1.0  0.01310  0.37370  0.11260  1.0000 0.1106041382
H   H94       1.0  0.76110  0.90050  0.38740  1.0000 0.1106041382
H   H95       1.0  0.26110  0.87370  0.86060  1.0000 0.1106041382
H   H96       1.0  0.51310  0.40050  0.63940  1.0000 0.1106041382
H   H97       1.0  0.11840  0.30880  0.15140  1.0000 0.1188638732
H   H98       1.0  0.65740  0.96700  0.34860  1.0000 0.1188638732
H   H99       1.0  0.15740  0.80880  0.69040  1.0000 0.1188638732
H   H100      1.0  0.61840  0.46700  0.80960  1.0000 0.1188638732
H   H101      1.0  0.20900  0.55270  0.47690  1.0000 0.1188638732
H   H102      1.0  0.57580  0.73210  0.02310  1.0000 0.1188638732
H   H103      1.0  0.07580  0.05270  0.84370  1.0000 0.1188638732
H   H104      1.0  0.70900  0.23210  0.65630  1.0000 0.1188638732
H   H105      1.0  0.10210  0.61660  0.43730  1.0000 0.127026084
H   H106      1.0  0.67930  0.66480  0.06270  1.0000 0.127026084
H   H107      1.0  0.17930  0.11660  0.01450  1.0000 0.127026084
H   H108      1.0  0.60210  0.16480  0.48550  1.0000 0.127026084
H   H109      1.0  0.63920  0.49320  0.40400  1.0000 0.2647882282
H   H110      1.0  0.58920  0.23520  0.09600  1.0000 0.2647882282
H   H111      1.0  0.08920  0.99320  0.35400  1.0000 0.2647882282
H   H112      1.0  0.13920  0.73520  0.14600  1.0000 0.2647882282
C   C1        1.0  0.00392  0.12922  0.60770  1.0000 0.0817456498
C   C2        1.0  0.02152  0.39622  0.89230  1.0000 0.0817456498
C   C3        1.0  0.52152  0.62922  0.62530  1.0000 0.0817456498
C   C4        1.0  0.50392  0.89622  0.87470  1.0000 0.0817456498
C   C5        1.0  0.95936  0.08776  0.61020  1.0000 -0.1706106448
C   C6        1.0  0.97756  0.34916  0.88980  1.0000 -0.1706106448
C   C7        1.0  0.47756  0.58776  0.62840  1.0000 -0.1706106448
C   C8        1.0  0.45936  0.84916  0.87160  1.0000 -0.1706106448
C   C9        1.0  0.88615  0.10755  0.59820  1.0000 0.0316719777
C   C10       1.0  0.00935  0.28795  0.90180  1.0000 0.0316719777
C   C11       1.0  0.50935  0.60755  0.72140  1.0000 0.0316719777
C   C12       1.0  0.38615  0.78795  0.77860  1.0000 0.0316719777
C   C13       1.0  0.86053  0.16693  0.58180  1.0000 -0.1706106448
C   C14       1.0  0.08513  0.27873  0.91820  1.0000 -0.1706106448
C   C15       1.0  0.58513  0.66693  0.80640  1.0000 -0.1706106448
C   C16       1.0  0.36053  0.77873  0.69360  1.0000 -0.1706106448
C   C17       1.0  0.90839  0.20519  0.58000  1.0000 0.0743105291
C   C18       1.0  0.12519  0.32839  0.92000  1.0000 0.0743105291
C   C19       1.0  0.62519  0.70519  0.79680  1.0000 0.0743105291
C   C20       1.0  0.40839  0.82839  0.70320  1.0000 0.0743105291
C   C21       1.0  0.83220  0.06880  0.60140  1.0000 0.4257335543
C   C22       1.0  0.96740  0.23080  0.89860  1.0000 0.4257335543
C   C23       1.0  0.46740  0.56880  0.73660  1.0000 0.4257335543
C   C24       1.0  0.33220  0.73080  0.76340  1.0000 0.4257335543
C   C25       1.0  0.85214  0.94224  0.66590  1.0000 -0.0018738471
C   C26       1.0  0.77634  0.18624  0.83410  1.0000 -0.0018738471
C   C27       1.0  0.27634  0.44224  0.59010  1.0000 -0.0018738471
C   C28       1.0  0.35214  0.68624  0.90990  1.0000 -0.0018738471
C   C29       1.0  0.80854  0.89644  0.66970  1.0000 0.1188638732
C   C30       1.0  0.72674  0.13884  0.83030  1.0000 0.1188638732
C   C31       1.0  0.22674  0.39644  0.58790  1.0000 0.1188638732
C   C32       1.0  0.30854  0.63884  0.91210  1.0000 0.1188638732
C   C33       1.0  0.84620  0.88000  0.73480  1.0000 -0.2107307193
C   C34       1.0  0.64520  0.11140  0.76520  1.0000 -0.2107307193
C   C35       1.0  0.14520  0.38000  0.53380  1.0000 -0.2107307193
C   C36       1.0  0.34620  0.61140  0.96620  1.0000 -0.2107307193
C   C37       1.0  0.80270  0.83810  0.73840  1.0000 0.0928235008
C   C38       1.0  0.59970  0.06430  0.76160  1.0000 0.0928235008
C   C39       1.0  0.09970  0.33810  0.53540  1.0000 0.0928235008
C   C40       1.0  0.30270  0.56430  0.96460  1.0000 0.0928235008
C   C41       1.0  0.68890  0.82170  0.61220  1.0000 0.0626590644
C   C42       1.0  0.70950  0.07670  0.88780  1.0000 0.0626590644
C   C43       1.0  0.20950  0.32170  0.63280  1.0000 0.0626590644
C   C44       1.0  0.18890  0.57670  0.86720  1.0000 0.0626590644
C   C45       1.0  0.72770  0.86440  0.60590  1.0000 -0.1864217752
C   C46       1.0  0.75850  0.12180  0.89410  1.0000 -0.1864217752
C   C47       1.0  0.25850  0.36440  0.63670  1.0000 -0.1864217752
C   C48       1.0  0.22770  0.62180  0.86330  1.0000 -0.1864217752
C   C49       1.0  0.76788  0.99628  0.04500  1.0000 -0.0408410289
C   C50       1.0  0.45128  0.72288  0.45500  1.0000 -0.0408410289
C   C51       1.0  0.95128  0.49628  0.72840  1.0000 -0.0408410289
C   C52       1.0  0.26788  0.22288  0.77160  1.0000 -0.0408410289
C   C53       1.0  0.77570  0.08970  0.14280  1.0000 -0.1077850325
C   C54       1.0  0.44690  0.63290  0.35720  1.0000 -0.1077850325
C   C55       1.0  0.94690  0.58970  0.81400  1.0000 -0.1077850325
C   C56       1.0  0.27570  0.13290  0.68600  1.0000 -0.1077850325
C   C57       1.0  0.83750  0.12850  0.24460  1.0000 -0.1005487455
C   C58       1.0  0.38390  0.59290  0.25540  1.0000 -0.1005487455
C   C59       1.0  0.88390  0.62850  0.79100  1.0000 -0.1005487455
C   C60       1.0  0.33750  0.09290  0.70900  1.0000 -0.1005487455
C   C61       1.0  0.89196  0.07386  0.24970  1.0000 -0.0217275851
C   C62       1.0  0.32416  0.64226  0.25030  1.0000 -0.0217275851
C   C63       1.0  0.82416  0.57386  0.68190  1.0000 -0.0217275851
C   C64       1.0  0.39196  0.14226  0.81810  1.0000 -0.0217275851
C   C65       1.0  0.88636  0.98286  0.15290  1.0000 -0.1077850325
C   C66       1.0  0.32996  0.73346  0.34710  1.0000 -0.1077850325
C   C67       1.0  0.82996  0.48286  0.59650  1.0000 -0.1077850325
C   C68       1.0  0.38636  0.23346  0.90350  1.0000 -0.1077850325
C   C69       1.0  0.82417  0.94447  0.05050  1.0000 -0.1005487455
C   C70       1.0  0.39397  0.77367  0.44950  1.0000 -0.1005487455
C   C71       1.0  0.89397  0.44447  0.62030  1.0000 -0.1005487455
C   C72       1.0  0.32417  0.27367  0.87970  1.0000 -0.1005487455
C   C73       1.0  0.95732  0.11492  0.36140  1.0000 0.5486073076
C   C74       1.0  0.25352  0.59592  0.13860  1.0000 0.5486073076
C   C75       1.0  0.75352  0.61492  0.65760  1.0000 0.5486073076
C   C76       1.0  0.45732  0.09592  0.84240  1.0000 0.5486073076
C   C77       1.0  0.69804  0.95574  0.93670  1.0000 0.5587992846
C   C78       1.0  0.51904  0.76134  0.56330  1.0000 0.5587992846
C   C79       1.0  0.01904  0.45574  0.75770  1.0000 0.5587992846
C   C80       1.0  0.19804  0.26134  0.74230  1.0000 0.5587992846
C   C81       1.0  0.47848  0.37078  0.37470  1.0000 0.0817456498
C   C82       1.0  0.49608  0.10378  0.12530  1.0000 0.0817456498
C   C83       1.0  0.99608  0.87078  0.39230  1.0000 0.0817456498
C   C84       1.0  0.97848  0.60378  0.10770  1.0000 0.0817456498
C   C85       1.0  0.52244  0.41224  0.37160  1.0000 -0.1706106448
C   C86       1.0  0.54064  0.15084  0.12840  1.0000 -0.1706106448
C   C87       1.0  0.04064  0.91224  0.38980  1.0000 -0.1706106448
C   C88       1.0  0.02244  0.65084  0.11020  1.0000 -0.1706106448
C   C89       1.0  0.49065  0.39245  0.27860  1.0000 0.0316719777
C   C90       1.0  0.61385  0.21205  0.22140  1.0000 0.0316719777
C   C91       1.0  0.11385  0.89245  0.40180  1.0000 0.0316719777
C   C92       1.0  0.99065  0.71205  0.09820  1.0000 0.0316719777
C   C93       1.0  0.41487  0.33307  0.19360  1.0000 -0.1706106448
C   C94       1.0  0.63947  0.22127  0.30640  1.0000 -0.1706106448
C   C95       1.0  0.13947  0.83307  0.41820  1.0000 -0.1706106448
C   C96       1.0  0.91487  0.72127  0.08180  1.0000 -0.1706106448
C   C97       1.0  0.37481  0.29481  0.20320  1.0000 0.0743105291
C   C98       1.0  0.59161  0.17161  0.29680  1.0000 0.0743105291
C   C99       1.0  0.09161  0.79481  0.42000  1.0000 0.0743105291
C   C100      1.0  0.87481  0.67161  0.08000  1.0000 0.0743105291
C   C101      1.0  0.53260  0.43120  0.26340  1.0000 0.4257335543
C   C102      1.0  0.66780  0.26920  0.23660  1.0000 0.4257335543
C   C103      1.0  0.16780  0.93120  0.39860  1.0000 0.4257335543
C   C104      1.0  0.03260  0.76920  0.10140  1.0000 0.4257335543
C   C105      1.0  0.72366  0.55776  0.40990  1.0000 -0.0018738471
C   C106      1.0  0.64786  0.31376  0.09010  1.0000 -0.0018738471
C   C107      1.0  0.14786  0.05776  0.33410  1.0000 -0.0018738471
C   C108      1.0  0.22366  0.81376  0.16590  1.0000 -0.0018738471
C   C109      1.0  0.77326  0.60356  0.41210  1.0000 0.1188638732
C   C110      1.0  0.69146  0.36116  0.08790  1.0000 0.1188638732
C   C111      1.0  0.19146  0.10356  0.33030  1.0000 0.1188638732
C   C112      1.0  0.27326  0.86116  0.16970  1.0000 0.1188638732
C   C113      1.0  0.85480  0.62000  0.46620  1.0000 -0.2107307193
C   C114      1.0  0.65380  0.38860  0.03380  1.0000 -0.2107307193
C   C115      1.0  0.15380  0.12000  0.26520  1.0000 -0.2107307193
C   C116      1.0  0.35480  0.88860  0.23480  1.0000 -0.2107307193
C   C117      1.0  0.90030  0.66190  0.46460  1.0000 0.0928235008
C   C118      1.0  0.69730  0.43570  0.03540  1.0000 0.0928235008
C   C119      1.0  0.19730  0.16190  0.26160  1.0000 0.0928235008
C   C120      1.0  0.40030  0.93570  0.23840  1.0000 0.0928235008
C   C121      1.0  0.79050  0.67830  0.36720  1.0000 0.0626590644
C   C122      1.0  0.81110  0.42330  0.13280  1.0000 0.0626590644
C   C123      1.0  0.31110  0.17830  0.38780  1.0000 0.0626590644
C   C124      1.0  0.29050  0.92330  0.11220  1.0000 0.0626590644
C   C125      1.0  0.74150  0.63560  0.36330  1.0000 -0.1864217752
C   C126      1.0  0.77230  0.37820  0.13670  1.0000 -0.1864217752
C   C127      1.0  0.27230  0.13560  0.39410  1.0000 -0.1864217752
C   C128      1.0  0.24150  0.87820  0.10590  1.0000 -0.1864217752
C   C129      1.0  0.04872  0.50372  0.27160  1.0000 -0.0408410289
C   C130      1.0  0.73212  0.77712  0.22840  1.0000 -0.0408410289
C   C131      1.0  0.23212  0.00372  0.95500  1.0000 -0.0408410289
C   C132      1.0  0.54872  0.27712  0.54500  1.0000 -0.0408410289
C   C133      1.0  0.05310  0.41030  0.18600  1.0000 -0.1077850325
C   C134      1.0  0.72430  0.86710  0.31400  1.0000 -0.1077850325
C   C135      1.0  0.22430  0.91030  0.85720  1.0000 -0.1077850325
C   C136      1.0  0.55310  0.36710  0.64280  1.0000 -0.1077850325
C   C137      1.0  0.11610  0.37150  0.20900  1.0000 -0.1005487455
C   C138      1.0  0.66250  0.90710  0.29100  1.0000 -0.1005487455
C   C139      1.0  0.16250  0.87150  0.75540  1.0000 -0.1005487455
C   C140      1.0  0.61610  0.40710  0.74460  1.0000 -0.1005487455
C   C141      1.0  0.17584  0.42614  0.31810  1.0000 -0.0217275851
C   C142      1.0  0.60804  0.85774  0.18190  1.0000 -0.0217275851
C   C143      1.0  0.10804  0.92614  0.75030  1.0000 -0.0217275851
C   C144      1.0  0.67584  0.35774  0.74970  1.0000 -0.0217275851
C   C145      1.0  0.17004  0.51714  0.40350  1.0000 -0.1077850325
C   C146      1.0  0.61364  0.76654  0.09650  1.0000 -0.1077850325
C   C147      1.0  0.11364  0.01714  0.84710  1.0000 -0.1077850325
C   C148      1.0  0.67004  0.26654  0.65290  1.0000 -0.1077850325
C   C149      1.0  0.10603  0.55553  0.37970  1.0000 -0.1005487455
C   C150      1.0  0.67583  0.72633  0.12030  1.0000 -0.1005487455
C   C151      1.0  0.17583  0.05553  0.94950  1.0000 -0.1005487455
C   C152      1.0  0.60603  0.22633  0.55050  1.0000 -0.1005487455
C   C153      1.0  0.24648  0.38508  0.34240  1.0000 0.5486073076
C   C154      1.0  0.54268  0.90408  0.15760  1.0000 0.5486073076
C   C155      1.0  0.04268  0.88508  0.63860  1.0000 0.5486073076
C   C156      1.0  0.74648  0.40408  0.86140  1.0000 0.5486073076
C   C157      1.0  0.98096  0.54426  0.24230  1.0000 0.5587992846
C   C158      1.0  0.80196  0.73866  0.25770  1.0000 0.5587992846
C   C159      1.0  0.30196  0.04426  0.06330  1.0000 0.5587992846
C   C160      1.0  0.48096  0.23866  0.43670  1.0000 0.5587992846
N   N1        1.0  0.98046  0.18776  0.59390  1.0000 -0.2197407418
N   N2        1.0  0.09386  0.38656  0.90610  1.0000 -0.2197407418
N   N3        1.0  0.59386  0.68776  0.70730  1.0000 -0.2197407418
N   N4        1.0  0.48046  0.88656  0.79270  1.0000 -0.2197407418
N   N5        1.0  0.86294  0.01694  0.62500  1.0000 -0.2373977871
N   N6        1.0  0.89194  0.23794  0.87500  1.0000 -0.2373977871
N   N7        1.0  0.39194  0.51694  0.65400  1.0000 -0.2373977871
N   N8        1.0  0.36294  0.73794  0.84600  1.0000 -0.2373977871
N   N9        1.0  0.81590  0.97500  0.62430  1.0000 -0.1242267032
N   N10       1.0  0.85070  0.19160  0.87570  1.0000 -0.1242267032
N   N11       1.0  0.35070  0.47500  0.65910  1.0000 -0.1242267032
N   N12       1.0  0.31590  0.69160  0.84090  1.0000 -0.1242267032
N   N13       1.0  0.72574  0.80844  0.67790  1.0000 -0.2107307193
N   N14       1.0  0.63054  0.04784  0.82210  1.0000 -0.2107307193
N   N15       1.0  0.13054  0.30844  0.58270  1.0000 -0.2107307193
N   N16       1.0  0.22574  0.54784  0.91730  1.0000 -0.2107307193
N   N17       1.0  0.40614  0.31224  0.29270  1.0000 -0.2197407418
N   N18       1.0  0.51954  0.11344  0.20730  1.0000 -0.2197407418
N   N19       1.0  0.01954  0.81224  0.40610  1.0000 -0.2197407418
N   N20       1.0  0.90614  0.61344  0.09390  1.0000 -0.2197407418
N   N21       1.0  0.60806  0.48306  0.34600  1.0000 -0.2373977871
N   N22       1.0  0.63706  0.26206  0.15400  1.0000 -0.2373977871
N   N23       1.0  0.13706  0.98306  0.37500  1.0000 -0.2373977871
N   N24       1.0  0.10806  0.76206  0.12500  1.0000 -0.2373977871
N   N25       1.0  0.64930  0.52500  0.34090  1.0000 -0.1242267032
N   N26       1.0  0.68410  0.30840  0.15910  1.0000 -0.1242267032
N   N27       1.0  0.18410  0.02500  0.37570  1.0000 -0.1242267032
N   N28       1.0  0.14930  0.80840  0.12430  1.0000 -0.1242267032
N   N29       1.0  0.86946  0.69156  0.41730  1.0000 -0.2107307193
N   N30       1.0  0.77426  0.45216  0.08270  1.0000 -0.2107307193
N   N31       1.0  0.27426  0.19156  0.32210  1.0000 -0.2107307193
N   N32       1.0  0.36946  0.95216  0.17790  1.0000 -0.2107307193
O   O1        1.0  0.76622  0.08502  0.58400  1.0000 -0.4532323004
O   O2        1.0  0.00102  0.18222  0.91600  1.0000 -0.4532323004
O   O3        1.0  0.50102  0.58502  0.81880  1.0000 -0.4532323004
O   O4        1.0  0.26622  0.68222  0.68120  1.0000 -0.4532323004
O   O5        1.0  0.96113  0.20207  0.44566  1.0000 -0.5429887593
O   O6        1.0  0.25641  0.51547  0.05434  1.0000 -0.5429887593
O   O7        1.0  0.75641  0.70207  0.74094  1.0000 -0.5429887593
O   O8        1.0  0.46113  0.01547  0.75906  1.0000 -0.5429887593
O   O9        1.0  0.00347  0.06477  0.36790  1.0000 -0.5638510407
O   O10       1.0  0.19687  0.63557  0.13210  1.0000 -0.5638510407
O   O11       1.0  0.69687  0.56477  0.56130  1.0000 -0.5638510407
O   O12       1.0  0.50347  0.13557  0.93870  1.0000 -0.5638510407
O   O13       1.0  0.69743  0.88013  0.85110  1.0000 -0.5429887593
O   O14       1.0  0.52903  0.84633  0.64890  1.0000 -0.5429887593
O   O15       1.0  0.02903  0.38013  0.68270  1.0000 -0.5429887593
O   O16       1.0  0.19743  0.34633  0.81730  1.0000 -0.5429887593
O   O17       1.0  0.64379  0.00326  0.94033  1.0000 -0.5429887593
O   O18       1.0  0.56293  0.70346  0.55967  1.0000 -0.5429887593
O   O19       1.0  0.06293  0.50326  0.85947  1.0000 -0.5429887593
O   O20       1.0  0.14379  0.20346  0.64053  1.0000 -0.5429887593
O   O21       1.0  0.49898  0.41498  0.18120  1.0000 -0.4532323004
O   O22       1.0  0.73378  0.31778  0.31880  1.0000 -0.4532323004
O   O23       1.0  0.23378  0.91498  0.41600  1.0000 -0.4532323004
O   O24       1.0  0.99898  0.81778  0.08400  1.0000 -0.4532323004
O   O25       1.0  0.24359  0.29793  0.25906  1.0000 -0.5429887593
O   O26       1.0  0.53887  0.98453  0.24094  1.0000 -0.5429887593
O   O27       1.0  0.03887  0.79793  0.55434  1.0000 -0.5429887593
O   O28       1.0  0.74359  0.48453  0.94566  1.0000 -0.5429887593
O   O29       1.0  0.30313  0.43523  0.43870  1.0000 -0.5638510407
O   O30       1.0  0.49653  0.86443  0.06130  1.0000 -0.5638510407
O   O31       1.0  0.99653  0.93523  0.63210  1.0000 -0.5638510407
O   O32       1.0  0.80313  0.36443  0.86790  1.0000 -0.5638510407
O   O33       1.0  0.97097  0.61987  0.31730  1.0000 -0.5429887593
O   O34       1.0  0.80257  0.65367  0.18270  1.0000 -0.5429887593
O   O35       1.0  0.30257  0.11987  0.14890  1.0000 -0.5429887593
O   O36       1.0  0.47097  0.15367  0.35110  1.0000 -0.5429887593
O   O37       1.0  0.93707  0.49674  0.14053  1.0000 -0.5429887593
O   O38       1.0  0.85621  0.79654  0.35947  1.0000 -0.5429887593
O   O39       1.0  0.35621  0.99674  0.05967  1.0000 -0.5429887593
O   O40       1.0  0.43707  0.29654  0.44033  1.0000 -0.5429887593
