# DDEC6 charges by PACMAN v1.1 (https://github.com/mtap-research/PACMAN-charge/)
data_2016[Ga][nan]3[FSR]4
_chemical_formula_sum              "Ga4 H16 C32 O20"
_cell_length_a       12.2697
_cell_length_b       12.2697
_cell_length_c       12.2697
_cell_angle_alpha    103.647
_cell_angle_beta     103.647
_cell_angle_gamma    121.879

_symmetry_space_group_name_H-M    "P 1"
_symmetry_Int_Tables_number       1

loop_
  _symmetry_equiv_pos_as_xyz
  'x, y, z'

loop_
  _atom_site_type_symbol
  _atom_site_label
  _atom_site_symmetry_multiplicity
  _atom_site_fract_x
  _atom_site_fract_y
  _atom_site_fract_z
  _atom_site_occupancy
  _atom_site_charge
Ga  Ga1       1.0  0.19430  0.19430  0.38860  1.0000 1.446760279
Ga  Ga2       1.0  0.80570  0.80570  0.61140  1.0000 1.446760279
Ga  Ga3       1.0  0.05570  0.94430  0.50000  1.0000 1.446760279
Ga  Ga4       1.0  0.44430  0.55570  0.50000  1.0000 1.446760279
H   H1        1.0  0.43320  0.37500  0.55820  1.0000 0.4041500212
H   H2        1.0  0.81680  0.87500  0.44180  1.0000 0.4050591708
H   H3        1.0  0.12500  0.18320  0.55820  1.0000 0.4041500212
H   H4        1.0  0.62500  0.56680  0.44180  1.0000 0.4041500212
H   H5        1.0  0.12600  0.62600  0.50000  1.0000 0.1400371984
H   H6        1.0  0.87600  0.87600  0.00000  1.0000 0.1400371984
H   H7        1.0  0.12400  0.12400  0.00000  1.0000 0.1400371984
H   H8        1.0  0.37400  0.87400  0.50000  1.0000 0.1400371984
H   H9        1.0  0.89650  0.21670  0.44860  1.0000 0.1197426886
H   H10       1.0  0.76810  0.44790  0.55140  1.0000 0.1197426886
H   H11       1.0  0.69790  0.64650  0.17980  1.0000 0.1197426886
H   H12       1.0  0.46670  0.51810  0.82020  1.0000 0.1197426886
H   H13       1.0  0.35350  0.30210  0.82020  1.0000 0.1197426886
H   H14       1.0  0.48190  0.53330  0.17980  1.0000 0.1197426886
H   H15       1.0  0.55210  0.23190  0.44860  1.0000 0.1197426886
H   H16       1.0  0.78330  0.10350  0.55140  1.0000 0.1197426886
C   C1        1.0  0.04800  0.54800  0.50000  1.0000 -0.1118538483
C   C2        1.0  0.79800  0.79800  0.00000  1.0000 -0.1118538483
C   C3        1.0  0.20200  0.20200  0.00000  1.0000 -0.1118538483
C   C4        1.0  0.45200  0.95200  0.50000  1.0000 -0.1118538483
C   C5        1.0  0.14080  0.40880  0.45200  1.0000 0.6151329101
C   C6        1.0  0.95680  0.68880  0.54800  1.0000 0.6146787823
C   C7        1.0  0.93880  0.89080  0.23200  1.0000 0.6151329101
C   C8        1.0  0.65880  0.70680  0.76800  1.0000 0.6151329101
C   C9        1.0  0.10920  0.06120  0.76800  1.0000 0.6151329101
C   C10       1.0  0.29320  0.34120  0.23200  1.0000 0.6151329101
C   C11       1.0  0.31120  0.04320  0.45200  1.0000 0.6146787823
C   C12       1.0  0.59120  0.85920  0.54800  1.0000 0.6151329101
C   C13       1.0  0.03090  0.42110  0.47180  1.0000 -0.0246815841
C   C14       1.0  0.94930  0.55910  0.52820  1.0000 -0.0246815841
C   C15       1.0  0.80910  0.78090  0.10980  1.0000 -0.0246815841
C   C16       1.0  0.67110  0.69930  0.89020  1.0000 -0.0246815841
C   C17       1.0  0.21910  0.19090  0.89020  1.0000 -0.0246815841
C   C18       1.0  0.30070  0.32890  0.10980  1.0000 -0.0246815841
C   C19       1.0  0.44090  0.05070  0.47180  1.0000 -0.0246815841
C   C20       1.0  0.57890  0.96910  0.52820  1.0000 -0.0246815841
C   C21       1.0  0.81320  0.31320  0.50000  1.0000 0.0716727682
C   C22       1.0  0.56320  0.56320  0.00000  1.0000 0.0716727682
C   C23       1.0  0.43680  0.43680  0.00000  1.0000 0.0716727682
C   C24       1.0  0.68680  0.18680  0.50000  1.0000 0.0716727682
C   C25       1.0  0.91060  0.30260  0.47000  1.0000 -0.150188814
C   C26       1.0  0.83260  0.44060  0.53000  1.0000 -0.150188814
C   C27       1.0  0.69060  0.66060  0.10800  1.0000 -0.150188814
C   C28       1.0  0.55260  0.58260  0.89200  1.0000 -0.150188814
C   C29       1.0  0.33940  0.30940  0.89200  1.0000 -0.150188814
C   C30       1.0  0.41740  0.44740  0.10800  1.0000 -0.150188814
C   C31       1.0  0.55940  0.16740  0.47000  1.0000 -0.150188814
C   C32       1.0  0.69740  0.08940  0.53000  1.0000 -0.150188814
O   O1        1.0  0.09840  0.28520  0.38660  1.0000 -0.5686931043
O   O2        1.0  0.89860  0.71180  0.61340  1.0000 -0.5686931043
O   O3        1.0  0.96180  0.84840  0.31320  1.0000 -0.5686931043
O   O4        1.0  0.53520  0.64860  0.68680  1.0000 -0.5686931043
O   O5        1.0  0.15160  0.03820  0.68680  1.0000 -0.5686931043
O   O6        1.0  0.35140  0.46480  0.31320  1.0000 -0.5686931043
O   O7        1.0  0.28820  0.10140  0.38660  1.0000 -0.5686931043
O   O8        1.0  0.71480  0.90160  0.61340  1.0000 -0.5686931043
O   O9        1.0  0.37770  0.37500  0.50270  1.0000 -0.8669038741
O   O10       1.0  0.87230  0.87500  0.49730  1.0000 -0.8669038741
O   O11       1.0  0.12500  0.12770  0.50270  1.0000 -0.8669038741
O   O12       1.0  0.62500  0.62230  0.49730  1.0000 -0.8669038741
O   O13       1.0  0.26830  0.52330  0.50520  1.0000 -0.5332434802
O   O14       1.0  0.01810  0.76310  0.49480  1.0000 -0.5332434802
O   O15       1.0  0.01310  0.01830  0.24500  1.0000 -0.5332434802
O   O16       1.0  0.77330  0.76810  0.75500  1.0000 -0.5332434802
O   O17       1.0  0.98170  0.98690  0.75500  1.0000 -0.5332434802
O   O18       1.0  0.23190  0.22670  0.24500  1.0000 -0.5332434802
O   O19       1.0  0.23690  0.98190  0.50520  1.0000 -0.5332434802
O   O20       1.0  0.47670  0.73170  0.49480  1.0000 -0.5332434802
