# DDEC6 charges by PACMAN v1.1 (https://github.com/mtap-research/PACMAN-charge/)
data_2016[Cu][sql]2[FSR]2
_chemical_formula_sum              "Cu2 H30 C40 N6 O12"
_cell_length_a       11.0814
_cell_length_b       11.0814
_cell_length_c       12.743
_cell_angle_alpha    66.8875
_cell_angle_beta     113.112
_cell_angle_gamma    121.234

_symmetry_space_group_name_H-M    "P 1"
_symmetry_Int_Tables_number       1

loop_
  _symmetry_equiv_pos_as_xyz
  'x, y, z'

loop_
  _atom_site_type_symbol
  _atom_site_label
  _atom_site_symmetry_multiplicity
  _atom_site_fract_x
  _atom_site_fract_y
  _atom_site_fract_z
  _atom_site_occupancy
  _atom_site_charge
Cu  Cu1       1.0  0.62558  0.83204  0.84944  1.0000 0.7040388909
Cu  Cu2       1.0  0.16796  0.37442  0.34944  1.0000 0.7040388909
H   H1        1.0  0.54700  0.03220  0.63430  1.0000 0.1146393352
H   H2        1.0  0.75930  0.28670  0.77220  1.0000 0.1367711452
H   H3        1.0  0.57720  0.39700  0.97340  1.0000 0.1188811942
H   H4        1.0  0.12880  0.61580  0.60990  1.0000 0.1497707393
H   H5        1.0  0.00230  0.74830  0.43020  1.0000 0.1188811942
H   H6        1.0  0.08970  0.91730  0.38980  1.0000 0.1188811942
H   H7        1.0  0.56780  0.16680  0.02800  1.0000 0.1188811942
H   H8        1.0  0.10930  0.01670  0.11990  1.0000 0.1497707393
H   H9        1.0  0.35700  0.03260  0.47170  1.0000 0.1296753612
H   H10       1.0  0.92980  0.02360  0.95100  1.0000 0.1188811942
H   H11       1.0  0.84220  0.61200  0.24390  1.0000 0.1367711452
H   H12       1.0  0.32570  0.62350  0.76270  1.0000 0.1296753612
H   H13       1.0  0.20850  0.88110  0.29540  1.0000 0.1188811942
H   H14       1.0  0.11880  0.71260  0.33430  1.0000 0.1188811942
H   H15       1.0  0.67080  0.62860  0.07600  1.0000 0.1146393352
H   H16       1.0  0.96780  0.45300  0.13430  1.0000 0.1146393352
H   H17       1.0  0.71330  0.24070  0.27220  1.0000 0.1367711452
H   H18       1.0  0.60300  0.42280  0.47340  1.0000 0.1188811942
H   H19       1.0  0.38420  0.87120  0.10990  1.0000 0.1497707393
H   H20       1.0  0.25170  0.99770  0.93020  1.0000 0.1188811942
H   H21       1.0  0.08270  0.91030  0.88980  1.0000 0.1188811942
H   H22       1.0  0.83320  0.43220  0.52800  1.0000 0.1188811942
H   H23       1.0  0.98330  0.89070  0.61990  1.0000 0.1497707393
H   H24       1.0  0.96740  0.64300  0.97170  1.0000 0.1296753612
H   H25       1.0  0.97640  0.07020  0.45100  1.0000 0.1188811942
H   H26       1.0  0.38800  0.15780  0.74390  1.0000 0.1367711452
H   H27       1.0  0.37650  0.67430  0.26270  1.0000 0.1296753612
H   H28       1.0  0.11890  0.79150  0.79540  1.0000 0.1188811942
H   H29       1.0  0.28740  0.88120  0.83430  1.0000 0.1188811942
H   H30       1.0  0.37140  0.32920  0.57600  1.0000 0.1146393352
C   C1        1.0  0.46240  0.94640  0.62780  1.0000 0.0758772109
C   C2        1.0  0.67550  0.48210  0.84350  1.0000 -0.0535919602
C   C3        1.0  0.72180  0.30720  0.81350  1.0000 -0.1682048562
C   C4        1.0  0.72810  0.44390  0.78570  1.0000 0.0467733768
C   C5        1.0  0.65910  0.20250  0.90330  1.0000 -0.0062798509
C   C6        1.0  0.61500  0.37600  0.93270  1.0000 -0.1108025491
C   C7        1.0  0.21350  0.70210  0.61100  1.0000 -0.1682048562
C   C8        1.0  0.09400  0.82500  0.41220  1.0000 -0.2295413959
C   C9        1.0  0.99850  0.81110  0.20190  1.0000 0.1681775999
C   C10       1.0  0.60730  0.23610  0.96520  1.0000 -0.1108025491
C   C11       1.0  0.02060  0.93500  0.11230  1.0000 -0.1780202958
C   C12       1.0  0.34760  0.94760  0.53050  1.0000 -0.1955765012
C   C13       1.0  0.69400  0.63640  0.81730  1.0000 0.5524141219
C   C14       1.0  0.63570  0.04750  0.92890  1.0000 0.541412535
C   C15       1.0  0.91200  0.93900  0.01090  1.0000 0.0879959193
C   C16       1.0  0.86380  0.69760  0.18520  1.0000 -0.1927258346
C   C17       1.0  0.33180  0.70740  0.70320  1.0000 0.068935153
C   C18       1.0  0.21730  0.82110  0.52060  1.0000 0.1681775999
C   C19       1.0  0.11550  0.80550  0.31150  1.0000 -0.2295413959
C   C20       1.0  0.76110  0.70810  0.08410  1.0000 0.068935153
C   C21       1.0  0.05360  0.53760  0.12780  1.0000 0.0758772109
C   C22       1.0  0.51790  0.32450  0.34350  1.0000 -0.0535919602
C   C23       1.0  0.69280  0.27820  0.31350  1.0000 -0.1682048562
C   C24       1.0  0.55610  0.27190  0.28570  1.0000 0.0467733768
C   C25       1.0  0.79750  0.34090  0.40330  1.0000 -0.0062798509
C   C26       1.0  0.62400  0.38500  0.43270  1.0000 -0.1108025491
C   C27       1.0  0.29790  0.78650  0.11100  1.0000 -0.1682048562
C   C28       1.0  0.17500  0.90600  0.91220  1.0000 -0.2295413959
C   C29       1.0  0.18890  0.00150  0.70190  1.0000 0.1681775999
C   C30       1.0  0.76390  0.39270  0.46520  1.0000 -0.1108025491
C   C31       1.0  0.06500  0.97940  0.61230  1.0000 -0.1780202958
C   C32       1.0  0.05240  0.65240  0.03050  1.0000 -0.1955765012
C   C33       1.0  0.36360  0.30600  0.31730  1.0000 0.5524141219
C   C34       1.0  0.95250  0.36430  0.42890  1.0000 0.541412535
C   C35       1.0  0.06100  0.08800  0.51090  1.0000 0.0879959193
C   C36       1.0  0.30240  0.13620  0.68520  1.0000 -0.1927258346
C   C37       1.0  0.29260  0.66820  0.20320  1.0000 0.068935153
C   C38       1.0  0.17890  0.78270  0.02060  1.0000 0.1681775999
C   C39       1.0  0.19450  0.88450  0.81150  1.0000 -0.2295413959
C   C40       1.0  0.29190  0.23890  0.58410  1.0000 0.068935153
N   N1        1.0  0.45510  0.82750  0.71100  1.0000 -0.2142554197
N   N2        1.0  0.78350  0.82650  0.99620  1.0000 -0.218669382
N   N3        1.0  0.79000  0.55100  0.68440  1.0000 0.5228740898
N   N4        1.0  0.17250  0.54490  0.21100  1.0000 -0.2142554197
N   N5        1.0  0.17350  0.21650  0.49620  1.0000 -0.218669382
N   N6        1.0  0.44900  0.21000  0.18440  1.0000 0.5228740898
O   O1        1.0  0.65940  0.02220  0.85240  1.0000 -0.5517200801
O   O2        1.0  0.59320  0.95840  0.01700  1.0000 -0.5424446834
O   O3        1.0  0.80440  0.73620  0.78460  1.0000 -0.5424446834
O   O4        1.0  0.59850  0.64670  0.83970  1.0000 -0.5424446834
O   O5        1.0  0.91220  0.57860  0.68870  1.0000 -0.3173894259
O   O6        1.0  0.70650  0.59890  0.60230  1.0000 -0.3268327686
O   O7        1.0  0.97780  0.34060  0.35240  1.0000 -0.5517200801
O   O8        1.0  0.04160  0.40680  0.51700  1.0000 -0.5424446834
O   O9        1.0  0.26380  0.19560  0.28460  1.0000 -0.5424446834
O   O10       1.0  0.35330  0.40150  0.33970  1.0000 -0.5424446834
O   O11       1.0  0.42140  0.08780  0.18870  1.0000 -0.3173894259
O   O12       1.0  0.40110  0.29350  0.10230  1.0000 -0.3268327686
