# DDEC6 charges by PACMAN v1.1 (https://github.com/mtap-research/PACMAN-charge/)
data_2016[Zn][bpq]3[FSR]3
_chemical_formula_sum              "Zn4 H64 C64 N12 O20"
_cell_length_a       14.777
_cell_length_b       14.777
_cell_length_c       14.7614
_cell_angle_alpha    64.8494
_cell_angle_beta     115.151
_cell_angle_gamma    138.328

_symmetry_space_group_name_H-M    "P 1"
_symmetry_Int_Tables_number       1

loop_
  _symmetry_equiv_pos_as_xyz
  'x, y, z'

loop_
  _atom_site_type_symbol
  _atom_site_label
  _atom_site_symmetry_multiplicity
  _atom_site_fract_x
  _atom_site_fract_y
  _atom_site_fract_z
  _atom_site_occupancy
  _atom_site_charge
Zn  Zn1       1.0  0.56908  0.15092  0.46452  1.0000 0.8709692052
Zn  Zn2       1.0  0.15092  0.56908  0.03548  1.0000 0.8709692052
Zn  Zn3       1.0  0.43092  0.84908  0.53548  1.0000 0.8709692052
Zn  Zn4       1.0  0.84908  0.43092  0.96452  1.0000 0.8709692052
H   H1        1.0  0.21830  0.77530  0.23120  1.0000 0.1315001351
H   H2        1.0  0.77530  0.21830  0.26880  1.0000 0.1315001351
H   H3        1.0  0.78170  0.22470  0.76880  1.0000 0.1315001351
H   H4        1.0  0.22470  0.78170  0.73120  1.0000 0.1315001351
H   H5        1.0  0.96130  0.79870  0.99900  1.0000 0.1511527812
H   H6        1.0  0.79870  0.96130  0.50100  1.0000 0.1511527812
H   H7        1.0  0.03870  0.20130  0.00100  1.0000 0.1511527812
H   H8        1.0  0.20130  0.03870  0.49900  1.0000 0.1511527812
H   H9        1.0  0.23140  0.07160  0.19170  1.0000 0.1511527812
H   H10       1.0  0.07160  0.23140  0.30830  1.0000 0.1511527812
H   H11       1.0  0.76860  0.92840  0.80830  1.0000 0.1511527812
H   H12       1.0  0.92840  0.76860  0.69170  1.0000 0.1511527812
H   H13       1.0  0.05580  0.77360  0.42610  1.0000 0.1207577085
H   H14       1.0  0.77360  0.05580  0.07390  1.0000 0.1207577085
H   H15       1.0  0.94420  0.22640  0.57390  1.0000 0.1207577085
H   H16       1.0  0.22640  0.94420  0.92610  1.0000 0.1207577085
H   H17       1.0  0.99050  0.72310  0.32250  1.0000 0.1115213278
H   H18       1.0  0.72310  0.99050  0.17750  1.0000 0.1115213278
H   H19       1.0  0.00950  0.27690  0.67750  1.0000 0.1115213278
H   H20       1.0  0.27690  0.00950  0.82250  1.0000 0.1115213278
H   H21       1.0  0.66490  0.35170  0.57950  1.0000 0.1315001351
H   H22       1.0  0.35170  0.66490  0.92050  1.0000 0.1315001351
H   H23       1.0  0.33510  0.64830  0.42050  1.0000 0.1315001351
H   H24       1.0  0.64830  0.33510  0.07950  1.0000 0.1315001351
H   H25       1.0  0.73520  0.36940  0.29070  1.0000 0.1315001351
H   H26       1.0  0.36940  0.73520  0.20930  1.0000 0.1315001351
H   H27       1.0  0.26480  0.63060  0.70930  1.0000 0.1315001351
H   H28       1.0  0.63060  0.26480  0.79070  1.0000 0.1315001351
H   H29       1.0  0.82560  0.52880  0.25340  1.0000 0.1115213278
H   H30       1.0  0.52880  0.82560  0.24660  1.0000 0.1115213278
H   H31       1.0  0.17440  0.47120  0.74660  1.0000 0.1115213278
H   H32       1.0  0.47120  0.17440  0.75340  1.0000 0.1115213278
H   H33       1.0  0.84910  0.60510  0.54620  1.0000 0.1315001351
H   H34       1.0  0.60510  0.84910  0.95380  1.0000 0.1315001351
H   H35       1.0  0.15090  0.39490  0.45380  1.0000 0.1315001351
H   H36       1.0  0.39490  0.15090  0.04620  1.0000 0.1315001351
H   H37       1.0  0.93490  0.41510  0.39700  1.0000 0.1207577085
H   H38       1.0  0.41510  0.93490  0.10300  1.0000 0.1207577085
H   H39       1.0  0.06510  0.58490  0.60300  1.0000 0.1207577085
H   H40       1.0  0.58490  0.06510  0.89700  1.0000 0.1207577085
H   H41       1.0  0.95500  0.47820  0.28330  1.0000 0.1207577085
H   H42       1.0  0.47820  0.95500  0.21670  1.0000 0.1207577085
H   H43       1.0  0.04500  0.52180  0.71670  1.0000 0.1207577085
H   H44       1.0  0.52180  0.04500  0.78330  1.0000 0.1207577085
H   H45       1.0  0.02460  0.57420  0.35760  1.0000 0.1207577085
H   H46       1.0  0.57420  0.02460  0.14240  1.0000 0.1207577085
H   H47       1.0  0.97540  0.42580  0.64240  1.0000 0.1207577085
H   H48       1.0  0.42580  0.97540  0.85760  1.0000 0.1207577085
H   H49       1.0  0.99000  0.88860  0.29670  1.0000 0.1207577085
H   H50       1.0  0.88860  0.99000  0.20330  1.0000 0.1207577085
H   H51       1.0  0.01000  0.11140  0.70330  1.0000 0.1207577085
H   H52       1.0  0.11140  0.01000  0.79670  1.0000 0.1207577085
H   H53       1.0  0.91620  0.81040  0.38980  1.0000 0.1005621897
H   H54       1.0  0.81040  0.91620  0.11020  1.0000 0.1005621897
H   H55       1.0  0.08380  0.18960  0.61020  1.0000 0.1005621897
H   H56       1.0  0.18960  0.08380  0.88980  1.0000 0.1005621897
H   H57       1.0  0.79280  0.72300  0.20180  1.0000 0.1005621897
H   H58       1.0  0.72300  0.79280  0.29820  1.0000 0.1005621897
H   H59       1.0  0.20720  0.27700  0.79820  1.0000 0.1005621897
H   H60       1.0  0.27700  0.20720  0.70180  1.0000 0.1005621897
H   H61       1.0  0.71890  0.62450  0.29640  1.0000 0.1005621897
H   H62       1.0  0.62450  0.71890  0.20360  1.0000 0.1005621897
H   H63       1.0  0.28110  0.37550  0.70360  1.0000 0.1005621897
H   H64       1.0  0.37550  0.28110  0.79640  1.0000 0.1005621897
C   C1        1.0  0.08555  0.77325  0.10840  1.0000 -0.0016969751
C   C2        1.0  0.77325  0.08555  0.39160  1.0000 -0.0016969751
C   C3        1.0  0.91445  0.22675  0.89160  1.0000 -0.0016969751
C   C4        1.0  0.22675  0.91445  0.60840  1.0000 -0.0016969751
C   C5        1.0  0.18595  0.81825  0.19520  1.0000 -0.1194202779
C   C6        1.0  0.81825  0.18595  0.30480  1.0000 -0.1194202779
C   C7        1.0  0.81405  0.18175  0.80480  1.0000 -0.1194202779
C   C8        1.0  0.18175  0.81405  0.69520  1.0000 -0.1194202779
C   C9        1.0  0.23849  0.92791  0.22850  1.0000 -0.0016969751
C   C10       1.0  0.92791  0.23849  0.27150  1.0000 -0.0016969751
C   C11       1.0  0.76151  0.07209  0.77150  1.0000 -0.0016969751
C   C12       1.0  0.07209  0.76151  0.72850  1.0000 -0.0016969751
C   C13       1.0  0.04010  0.66230  0.06920  1.0000 0.5742392232
C   C14       1.0  0.66230  0.04010  0.43080  1.0000 0.5742392232
C   C15       1.0  0.95990  0.33770  0.93080  1.0000 0.5752182295
C   C16       1.0  0.33770  0.95990  0.56920  1.0000 0.5752182295
C   C17       1.0  0.34622  0.97358  0.32470  1.0000 0.5742392232
C   C18       1.0  0.97358  0.34622  0.17530  1.0000 0.5742392232
C   C19       1.0  0.65378  0.02642  0.67530  1.0000 0.5742392232
C   C20       1.0  0.02642  0.65378  0.82470  1.0000 0.5742392232
C   C21       1.0  0.03210  0.83270  0.05510  1.0000 -0.2016378055
C   C22       1.0  0.83270  0.03210  0.44490  1.0000 -0.2016378055
C   C23       1.0  0.96790  0.16730  0.94490  1.0000 -0.2016378055
C   C24       1.0  0.16730  0.96790  0.55510  1.0000 -0.2016378055
C   C25       1.0  0.19230  0.99450  0.17250  1.0000 -0.2092966447
C   C26       1.0  0.99450  0.19230  0.32750  1.0000 -0.2092966447
C   C27       1.0  0.80770  0.00550  0.82750  1.0000 -0.2092966447
C   C28       1.0  0.00550  0.80770  0.67250  1.0000 -0.2092966447
C   C29       1.0  0.79240  0.46420  0.39740  1.0000 0.2931021144
C   C30       1.0  0.46420  0.79240  0.10260  1.0000 0.2931021144
C   C31       1.0  0.20760  0.53580  0.60260  1.0000 0.2931021144
C   C32       1.0  0.53580  0.20760  0.89740  1.0000 0.2931021144
C   C33       1.0  0.08690  0.94470  0.08740  1.0000 0.1005621897
C   C34       1.0  0.94470  0.08690  0.41260  1.0000 0.1005621897
C   C35       1.0  0.91310  0.05530  0.91260  1.0000 0.1005621897
C   C36       1.0  0.05530  0.91310  0.58740  1.0000 0.1005621897
C   C37       1.0  0.97100  0.72400  0.37690  1.0000 -0.1028785287
C   C38       1.0  0.72400  0.97100  0.12310  1.0000 -0.1028785287
C   C39       1.0  0.02900  0.27600  0.62310  1.0000 -0.1028785287
C   C40       1.0  0.27600  0.02900  0.87690  1.0000 -0.1028785287
C   C41       1.0  0.71600  0.40540  0.52770  1.0000 -0.0235474119
C   C42       1.0  0.40540  0.71600  0.97230  1.0000 -0.0235474119
C   C43       1.0  0.28400  0.59460  0.47230  1.0000 -0.0235474119
C   C44       1.0  0.59460  0.28400  0.02770  1.0000 -0.0235474119
C   C45       1.0  0.81550  0.45910  0.31100  1.0000 -0.2378863404
C   C46       1.0  0.45910  0.81550  0.18900  1.0000 -0.2378863404
C   C47       1.0  0.18450  0.54090  0.68900  1.0000 -0.2378863404
C   C48       1.0  0.54090  0.18450  0.81100  1.0000 -0.2378863404
C   C49       1.0  0.81750  0.54530  0.50970  1.0000 -0.1194202779
C   C50       1.0  0.54530  0.81750  0.99030  1.0000 -0.1194202779
C   C51       1.0  0.18250  0.45470  0.49030  1.0000 -0.1194202779
C   C52       1.0  0.45470  0.18250  0.00970  1.0000 -0.1194202779
C   C53       1.0  0.94460  0.48400  0.33990  1.0000 -0.3488123426
C   C54       1.0  0.48400  0.94460  0.16010  1.0000 -0.3488123426
C   C55       1.0  0.05540  0.51600  0.66010  1.0000 -0.3488123426
C   C56       1.0  0.51600  0.05540  0.83990  1.0000 -0.3488123426
C   C57       1.0  0.92200  0.79760  0.33390  1.0000 -0.1883176873
C   C58       1.0  0.79760  0.92200  0.16610  1.0000 -0.1883176873
C   C59       1.0  0.07800  0.20240  0.66610  1.0000 -0.1883176873
C   C60       1.0  0.20240  0.07800  0.83390  1.0000 -0.1883176873
C   C61       1.0  0.78300  0.72060  0.26390  1.0000 -0.1554821739
C   C62       1.0  0.72060  0.78300  0.23610  1.0000 -0.1554821739
C   C63       1.0  0.21700  0.27940  0.73610  1.0000 -0.1554821739
C   C64       1.0  0.27940  0.21700  0.76390  1.0000 -0.1554821739
N   N1        1.0  0.70065  0.35515  0.45680  1.0000 -0.3391773114
N   N2        1.0  0.35515  0.70065  0.04320  1.0000 -0.3391773114
N   N3        1.0  0.29935  0.64485  0.54320  1.0000 -0.3391773114
N   N4        1.0  0.64485  0.29935  0.95680  1.0000 -0.3391773114
N   N5        1.0  0.86470  0.58110  0.42620  1.0000 -0.0133968508
N   N6        1.0  0.58110  0.86470  0.07380  1.0000 -0.0133968508
N   N7        1.0  0.13530  0.41890  0.57380  1.0000 -0.0133968508
N   N8        1.0  0.41890  0.13530  0.92620  1.0000 -0.0133968508
N   N9        1.0  0.04720  0.01920  0.03640  1.0000 0.2670203735
N   N10       1.0  0.01920  0.04720  0.46360  1.0000 0.2670203735
N   N11       1.0  0.95280  0.98080  0.96360  1.0000 0.2670203735
N   N12       1.0  0.98080  0.95280  0.53640  1.0000 0.2670203735
O   O1        1.0  0.42941  0.09759  0.33200  1.0000 -0.5135654072
O   O2        1.0  0.09759  0.42941  0.16800  1.0000 -0.5135654072
O   O3        1.0  0.57059  0.90241  0.66800  1.0000 -0.5135654072
O   O4        1.0  0.90241  0.57059  0.83200  1.0000 -0.5135654072
O   O5        1.0  0.91861  0.58039  0.02500  1.0000 -0.5135654072
O   O6        1.0  0.58039  0.91861  0.47500  1.0000 -0.5135654072
O   O7        1.0  0.08139  0.41961  0.97500  1.0000 -0.5135654072
O   O8        1.0  0.41961  0.08139  0.52500  1.0000 -0.5135654072
O   O9        1.0  0.13201  0.66479  0.08470  1.0000 -0.5455956767
O   O10       1.0  0.66479  0.13201  0.41530  1.0000 -0.5455956767
O   O11       1.0  0.86799  0.33521  0.91530  1.0000 -0.5455956767
O   O12       1.0  0.33521  0.86799  0.58470  1.0000 -0.5455956767
O   O13       1.0  0.34290  0.88230  0.38840  1.0000 -0.5560786882
O   O14       1.0  0.88230  0.34290  0.11160  1.0000 -0.5560786882
O   O15       1.0  0.65710  0.11770  0.61160  1.0000 -0.5560786882
O   O16       1.0  0.11770  0.65710  0.88840  1.0000 -0.5560786882
O   O17       1.0  0.12160  0.12540  0.07870  1.0000 -0.4459729204
O   O18       1.0  0.12540  0.12160  0.42130  1.0000 -0.4459729204
O   O19       1.0  0.87840  0.87460  0.92130  1.0000 -0.4459729204
O   O20       1.0  0.87460  0.87840  0.57870  1.0000 -0.4459729204
