# DDEC6 charges by PACMAN v1.1 (https://github.com/mtap-research/PACMAN-charge/)
data_2016[In][nan]3[FSR]11
_chemical_formula_sum              "In4 H16 C32 O20"
_cell_length_a       12.5573
_cell_length_b       12.5573
_cell_length_c       12.5573
_cell_angle_alpha    103.88
_cell_angle_beta     103.88
_cell_angle_gamma    121.346

_symmetry_space_group_name_H-M    "P 1"
_symmetry_Int_Tables_number       1

loop_
  _symmetry_equiv_pos_as_xyz
  'x, y, z'

loop_
  _atom_site_type_symbol
  _atom_site_label
  _atom_site_symmetry_multiplicity
  _atom_site_fract_x
  _atom_site_fract_y
  _atom_site_fract_z
  _atom_site_occupancy
  _atom_site_charge
In  In1       1.0  0.18330  0.81670  0.00000  1.0000 1.5674278024
In  In2       1.0  0.43330  0.93330  0.86660  1.0000 1.5674278024
In  In3       1.0  0.81670  0.18330  0.00000  1.0000 1.5674278024
In  In4       1.0  0.06670  0.56670  0.13340  1.0000 1.5674278024
H   H1        1.0  0.43800  0.87500  0.06300  1.0000 0.4016321558
H   H2        1.0  0.62500  0.18800  0.06300  1.0000 0.4016321558
H   H3        1.0  0.81200  0.37500  0.93700  1.0000 0.4016321558
H   H4        1.0  0.12500  0.56200  0.93700  1.0000 0.4016321558
H   H5        1.0  0.12730  0.12730  0.00000  1.0000 0.1397014144
H   H6        1.0  0.37730  0.87730  0.50000  1.0000 0.1397014144
H   H7        1.0  0.12270  0.62270  0.50000  1.0000 0.1397014144
H   H8        1.0  0.87270  0.87270  0.00000  1.0000 0.1397014144
H   H9        1.0  0.49660  0.30870  0.95530  1.0000 0.1141627166
H   H10       1.0  0.79130  0.24660  0.68790  1.0000 0.1141627166
H   H11       1.0  0.35340  0.54130  0.04470  1.0000 0.1141627166
H   H12       1.0  0.55870  0.10340  0.31210  1.0000 0.1141627166
H   H13       1.0  0.89660  0.44130  0.68790  1.0000 0.1141627166
H   H14       1.0  0.45870  0.64660  0.95530  1.0000 0.1141627166
H   H15       1.0  0.75340  0.20870  0.31210  1.0000 0.1141627166
H   H16       1.0  0.69130  0.50340  0.04470  1.0000 0.1141627166
C   C1        1.0  0.29400  0.07290  0.94850  1.0000 0.6028503362
C   C2        1.0  0.59550  0.04400  0.72110  1.0000 0.6028503362
C   C3        1.0  0.12440  0.34550  0.05150  1.0000 0.6028503362
C   C4        1.0  0.32290  0.87440  0.27890  1.0000 0.6028503362
C   C5        1.0  0.12560  0.67710  0.72110  1.0000 0.6028503362
C   C6        1.0  0.65450  0.87560  0.94850  1.0000 0.6028503362
C   C7        1.0  0.95600  0.40450  0.27890  1.0000 0.6028503362
C   C8        1.0  0.92710  0.70600  0.05150  1.0000 0.6028503362
C   C9        1.0  0.30971  0.20050  0.97401  1.0000 -0.0515018892
C   C10       1.0  0.58570  0.05971  0.60921  1.0000 -0.0515018892
C   C11       1.0  0.22649  0.33570  0.02599  1.0000 -0.0515018892
C   C12       1.0  0.45050  0.97649  0.39079  1.0000 -0.0515018892
C   C13       1.0  0.02351  0.54950  0.60921  1.0000 -0.0515018892
C   C14       1.0  0.66430  0.77351  0.97401  1.0000 -0.0515018892
C   C15       1.0  0.94029  0.41430  0.39079  1.0000 -0.0515018892
C   C16       1.0  0.79950  0.69029  0.02599  1.0000 -0.0515018892
C   C17       1.0  0.21040  0.21040  0.00000  1.0000 -0.0955735933
C   C18       1.0  0.46040  0.96040  0.50000  1.0000 -0.0955735933
C   C19       1.0  0.03960  0.53960  0.50000  1.0000 -0.0955735933
C   C20       1.0  0.78960  0.78960  0.00000  1.0000 -0.0955735933
C   C21       1.0  0.42511  0.31590  0.97401  1.0000 -0.1376160648
C   C22       1.0  0.70110  0.17511  0.60921  1.0000 -0.1376160648
C   C23       1.0  0.34189  0.45110  0.02599  1.0000 -0.1376160648
C   C24       1.0  0.56590  0.09189  0.39079  1.0000 -0.1376160648
C   C25       1.0  0.90811  0.43410  0.60921  1.0000 -0.1376160648
C   C26       1.0  0.54890  0.65811  0.97401  1.0000 -0.1376160648
C   C27       1.0  0.82489  0.29890  0.39079  1.0000 -0.1376160648
C   C28       1.0  0.68410  0.57489  0.02599  1.0000 -0.1376160648
C   C29       1.0  0.44120  0.44120  0.00000  1.0000 0.0751059983
C   C30       1.0  0.69120  0.19120  0.50000  1.0000 0.0751059983
C   C31       1.0  0.80880  0.30880  0.50000  1.0000 0.0751059983
C   C32       1.0  0.55880  0.55880  0.00000  1.0000 0.0751059983
O   O1        1.0  0.37990  0.87500  0.00490  1.0000 -0.9323538658
O   O2        1.0  0.62500  0.12990  0.00490  1.0000 -0.9323538658
O   O3        1.0  0.87010  0.37500  0.99510  1.0000 -0.9323538658
O   O4        1.0  0.12500  0.62010  0.99510  1.0000 -0.9323538658
O   O5        1.0  0.22680  0.99460  0.99080  1.0000 -0.5435463008
O   O6        1.0  0.48600  0.97680  0.73220  1.0000 -0.5435463008
O   O7        1.0  0.00380  0.23600  0.00920  1.0000 -0.5435463008
O   O8        1.0  0.24460  0.75380  0.26780  1.0000 -0.5435463008
O   O9        1.0  0.24620  0.75540  0.73220  1.0000 -0.5435463008
O   O10       1.0  0.76400  0.99620  0.99080  1.0000 -0.5435463008
O   O11       1.0  0.02320  0.51400  0.26780  1.0000 -0.5435463008
O   O12       1.0  0.00540  0.77320  0.00920  1.0000 -0.5435463008
O   O13       1.0  0.34830  0.04720  0.88550  1.0000 -0.5623187539
O   O14       1.0  0.71280  0.09830  0.80110  1.0000 -0.5623187539
O   O15       1.0  0.16170  0.46280  0.11450  1.0000 -0.5623187539
O   O16       1.0  0.29720  0.91170  0.19890  1.0000 -0.5623187539
O   O17       1.0  0.08830  0.70280  0.80110  1.0000 -0.5623187539
O   O18       1.0  0.53720  0.83830  0.88550  1.0000 -0.5623187539
O   O19       1.0  0.90170  0.28720  0.19890  1.0000 -0.5623187539
O   O20       1.0  0.95280  0.65170  0.11450  1.0000 -0.5623187539
