# DDEC6 charges by PACMAN v1.1 (https://github.com/mtap-research/PACMAN-charge/)
data_2016[Fe][dia]3[FSR]1
_chemical_formula_sum              "Fe4 C8 Cl4 O18"
_cell_length_a       13.9195
_cell_length_b       12.6327
_cell_length_c       8.77772
_cell_angle_alpha    78.8508
_cell_angle_beta     62.9275
_cell_angle_gamma    38.2217

_symmetry_space_group_name_H-M    "P 1"
_symmetry_Int_Tables_number       1

loop_
  _symmetry_equiv_pos_as_xyz
  'x, y, z'

loop_
  _atom_site_type_symbol
  _atom_site_label
  _atom_site_symmetry_multiplicity
  _atom_site_fract_x
  _atom_site_fract_y
  _atom_site_fract_z
  _atom_site_occupancy
  _atom_site_charge
Fe  Fe1       1.0  0.97008  0.91762  0.18380  1.0000 1.1483183696
Fe  Fe2       1.0  0.92850  0.18380  0.91762  1.0000 1.1483183696
Fe  Fe3       1.0  0.33238  0.27992  0.32150  1.0000 1.1483183696
Fe  Fe4       1.0  0.06620  0.32150  0.27992  1.0000 1.1483183696
C   C1        1.0  0.69928  0.02508  0.18052  1.0000 0.5162473514
C   C2        1.0  0.09512  0.18052  0.02508  1.0000 0.5162473514
C   C3        1.0  0.22492  0.55072  0.15488  1.0000 0.5162473514
C   C4        1.0  0.06948  0.15488  0.55072  1.0000 0.5162473514
C   C5        1.0  0.60245  0.18205  0.31215  1.0000 0.5162473514
C   C6        1.0  0.90335  0.31215  0.18205  1.0000 0.5162473514
C   C7        1.0  0.06795  0.64755  0.34665  1.0000 0.5162473514
C   C8        1.0  0.93785  0.34665  0.64755  1.0000 0.5146322741
Cl  Cl1       1.0  0.04097  0.96743  0.32177  1.0000 -0.2692190961
Cl  Cl2       1.0  0.66983  0.32177  0.96743  1.0000 -0.2692190961
Cl  Cl3       1.0  0.28257  0.20903  0.58017  1.0000 -0.2692190961
Cl  Cl4       1.0  0.92823  0.58017  0.20903  1.0000 -0.2692190961
O   O1        1.0  0.86726  0.89226  0.09894  1.0000 -0.4019284912
O   O2        1.0  0.14154  0.09894  0.89226  1.0000 -0.4019284912
O   O3        1.0  0.35774  0.38274  0.10846  1.0000 -0.4019284912
O   O4        1.0  0.15106  0.10846  0.38274  1.0000 -0.4019284912
O   O5        1.0  0.70128  0.15908  0.33272  1.0000 -0.4019284912
O   O6        1.0  0.80692  0.33272  0.15908  1.0000 -0.4019284912
O   O7        1.0  0.09092  0.54872  0.44308  1.0000 -0.4019284912
O   O8        1.0  0.91728  0.44308  0.54872  1.0000 -0.4019284912
O   O9        1.0  0.43566  0.31626  0.38954  1.0000 -0.4308667586
O   O10       1.0  0.85854  0.38954  0.31626  1.0000 -0.4308667586
O   O11       1.0  0.93374  0.81434  0.39146  1.0000 -0.4308667586
O   O12       1.0  0.86046  0.39146  0.81434  1.0000 -0.4308667586
O   O13       1.0  0.60270  0.04290  0.16370  1.0000 -0.3792668239
O   O14       1.0  0.19070  0.16370  0.04290  1.0000 -0.3792668239
O   O15       1.0  0.20710  0.64730  0.05930  1.0000 -0.3792668239
O   O16       1.0  0.08630  0.05930  0.64730  1.0000 -0.3792668239
O   O17       1.0  0.02970  0.97030  0.97030  1.0000 -0.5943992839
O   O18       1.0  0.27970  0.22030  0.22030  1.0000 -0.5943992839
