# DDEC6 charges by PACMAN v1.1 (https://github.com/mtap-research/PACMAN-charge/)
data_2016[Cd][sqc]3[FSR]1
_chemical_formula_sum              "Cd4 H52 C84 S4 N12 O16"
_cell_length_a       13.854
_cell_length_b       10.832
_cell_length_c       18.731
_cell_angle_alpha    90
_cell_angle_beta     130.624
_cell_angle_gamma    90

_symmetry_space_group_name_H-M    "P 1"
_symmetry_Int_Tables_number       1

loop_
  _symmetry_equiv_pos_as_xyz
  'x, y, z'

loop_
  _atom_site_type_symbol
  _atom_site_label
  _atom_site_symmetry_multiplicity
  _atom_site_fract_x
  _atom_site_fract_y
  _atom_site_fract_z
  _atom_site_occupancy
  _atom_site_charge
Cd  Cd1       1.0  0.00000  0.32336  0.25000  1.0000 0.8207380096
Cd  Cd2       1.0  0.00000  0.67664  0.75000  1.0000 0.8207380096
Cd  Cd3       1.0  0.50000  0.05255  0.25000  1.0000 0.8572453479
Cd  Cd4       1.0  0.50000  0.94745  0.75000  1.0000 0.8572453479
H   H1        1.0  0.65640  0.63290  0.47370  1.0000 0.1502298171
H   H2        1.0  0.34360  0.63290  0.02630  1.0000 0.1502298171
H   H3        1.0  0.34360  0.36710  0.52630  1.0000 0.1502298171
H   H4        1.0  0.65640  0.36710  0.97370  1.0000 0.1502298171
H   H5        1.0  0.53780  0.63660  0.36550  1.0000 0.1502298171
H   H6        1.0  0.46220  0.63660  0.13450  1.0000 0.1502298171
H   H7        1.0  0.46220  0.36340  0.63450  1.0000 0.1502298171
H   H8        1.0  0.53780  0.36340  0.86550  1.0000 0.1502298171
H   H9        1.0  0.37370  0.53590  0.34740  1.0000 0.1405373334
H   H10       1.0  0.62630  0.53590  0.15260  1.0000 0.1405373334
H   H11       1.0  0.62630  0.46410  0.65260  1.0000 0.1405373334
H   H12       1.0  0.37370  0.46410  0.84740  1.0000 0.1405373334
H   H13       1.0  0.26490  0.63850  0.49170  1.0000 0.1311664259
H   H14       1.0  0.73510  0.63850  0.00830  1.0000 0.1311664259
H   H15       1.0  0.73510  0.36150  0.50830  1.0000 0.1311664259
H   H16       1.0  0.26490  0.36150  0.99170  1.0000 0.1311664259
H   H17       1.0  0.58070  0.78240  0.55660  1.0000 0.1311664259
H   H18       1.0  0.41930  0.78240  0.94340  1.0000 0.1311664259
H   H19       1.0  0.41930  0.21760  0.44340  1.0000 0.1311664259
H   H20       1.0  0.58070  0.21760  0.05660  1.0000 0.1311664259
H   H21       1.0  0.69990  0.99320  0.19370  1.0000 0.1405373334
H   H22       1.0  0.30010  0.99320  0.30630  1.0000 0.1405373334
H   H23       1.0  0.30010  0.00680  0.80630  1.0000 0.1405373334
H   H24       1.0  0.69990  0.00680  0.69370  1.0000 0.1405373334
H   H25       1.0  0.83360  0.89170  0.17950  1.0000 0.1093056221
H   H26       1.0  0.16640  0.89170  0.32050  1.0000 0.1093056221
H   H27       1.0  0.16640  0.10830  0.82050  1.0000 0.1093056221
H   H28       1.0  0.83360  0.10830  0.67950  1.0000 0.1093056221
H   H29       1.0  0.94560  0.71910  0.26710  1.0000 0.1093056221
H   H30       1.0  0.05440  0.71910  0.23290  1.0000 0.1093056221
H   H31       1.0  0.05440  0.28090  0.73290  1.0000 0.1093056221
H   H32       1.0  0.94560  0.28090  0.76710  1.0000 0.1093056221
H   H33       1.0  0.92330  0.63480  0.36780  1.0000 0.1502298171
H   H34       1.0  0.07670  0.63480  0.13220  1.0000 0.1502298171
H   H35       1.0  0.07670  0.36520  0.63220  1.0000 0.1502298171
H   H36       1.0  0.92330  0.36520  0.86780  1.0000 0.1502298171
H   H37       1.0  0.85720  0.27230  0.32610  1.0000 0.1311664259
H   H38       1.0  0.14280  0.27230  0.17390  1.0000 0.1311664259
H   H39       1.0  0.14280  0.72770  0.67390  1.0000 0.1311664259
H   H40       1.0  0.85720  0.72770  0.82610  1.0000 0.1311664259
H   H41       1.0  0.85810  0.15660  0.42850  1.0000 0.1502298171
H   H42       1.0  0.14190  0.15660  0.07150  1.0000 0.1502298171
H   H43       1.0  0.14190  0.84340  0.57150  1.0000 0.1502298171
H   H44       1.0  0.85810  0.84340  0.92850  1.0000 0.1502298171
H   H45       1.0  0.13340  0.94890  0.47470  1.0000 0.1405373334
H   H46       1.0  0.86660  0.94890  0.02530  1.0000 0.1405373334
H   H47       1.0  0.86660  0.05110  0.52530  1.0000 0.1405373334
H   H48       1.0  0.13340  0.05110  0.97470  1.0000 0.1405373334
H   H49       1.0  0.12660  0.07280  0.37300  1.0000 0.1048975209
H   H50       1.0  0.87340  0.07280  0.12700  1.0000 0.1048975209
H   H51       1.0  0.87340  0.92720  0.62700  1.0000 0.1093056221
H   H52       1.0  0.12660  0.92720  0.87300  1.0000 0.1048975209
C   C1        1.0  0.57670  0.67480  0.42570  1.0000 -0.2688157861
C   C2        1.0  0.42330  0.67480  0.07430  1.0000 -0.2688157861
C   C3        1.0  0.42330  0.32520  0.57430  1.0000 -0.2688157861
C   C4        1.0  0.57670  0.32520  0.92570  1.0000 -0.2688157861
C   C5        1.0  0.48930  0.66280  0.44740  1.0000 0.1311664259
C   C6        1.0  0.51070  0.66280  0.05260  1.0000 0.1311664259
C   C7        1.0  0.51070  0.33720  0.55260  1.0000 0.1311664259
C   C8        1.0  0.48930  0.33720  0.94740  1.0000 0.1311664259
C   C9        1.0  0.38720  0.58240  0.39490  1.0000 -0.1497725577
C   C10       1.0  0.61280  0.58240  0.10510  1.0000 -0.1497725577
C   C11       1.0  0.61280  0.41760  0.60510  1.0000 -0.1497725577
C   C12       1.0  0.38720  0.41760  0.89490  1.0000 -0.1497725577
C   C13       1.0  0.30450  0.57060  0.41260  1.0000 -0.008672381
C   C14       1.0  0.69550  0.57060  0.08740  1.0000 -0.008672381
C   C15       1.0  0.69550  0.42940  0.58740  1.0000 -0.008672381
C   C16       1.0  0.30450  0.42940  0.91260  1.0000 -0.008672381
C   C17       1.0  0.32230  0.64330  0.48170  1.0000 -0.1297938829
C   C18       1.0  0.67770  0.64330  0.01830  1.0000 -0.1297938829
C   C19       1.0  0.67770  0.35670  0.51830  1.0000 -0.1297938829
C   C20       1.0  0.32230  0.35670  0.98170  1.0000 -0.1297938829
C   C21       1.0  0.42560  0.72290  0.53570  1.0000 -0.008672381
C   C22       1.0  0.57440  0.72290  0.96430  1.0000 -0.008672381
C   C23       1.0  0.57440  0.27710  0.46430  1.0000 -0.008672381
C   C24       1.0  0.42560  0.27710  0.03570  1.0000 -0.008672381
C   C25       1.0  0.51010  0.73110  0.51930  1.0000 -0.1557494631
C   C26       1.0  0.48990  0.73110  0.98070  1.0000 -0.1557494631
C   C27       1.0  0.48990  0.26890  0.48070  1.0000 -0.1557494631
C   C28       1.0  0.51010  0.26890  0.01930  1.0000 -0.1557494631
C   C29       1.0  0.19660  0.48050  0.35750  1.0000 0.542483739
C   C30       1.0  0.80340  0.48050  0.14250  1.0000 0.542483739
C   C31       1.0  0.80340  0.51950  0.64250  1.0000 0.542483739
C   C32       1.0  0.19660  0.51950  0.85750  1.0000 0.542483739
C   C33       1.0  0.44580  0.80030  0.61050  1.0000 0.542483739
C   C34       1.0  0.55420  0.80030  0.88950  1.0000 0.542483739
C   C35       1.0  0.55420  0.19970  0.38950  1.0000 0.542483739
C   C36       1.0  0.44580  0.19970  0.11050  1.0000 0.542483739
C   C37       1.0  0.67760  0.82520  0.37270  1.0000 0.283592395
C   C38       1.0  0.32240  0.82520  0.12730  1.0000 0.283592395
C   C39       1.0  0.32240  0.17480  0.62730  1.0000 0.283592395
C   C40       1.0  0.67760  0.17480  0.87270  1.0000 0.283592395
C   C41       1.0  0.73010  0.87150  0.28990  1.0000 0.1221448802
C   C42       1.0  0.26990  0.87150  0.21010  1.0000 0.1221448802
C   C43       1.0  0.26990  0.12850  0.71010  1.0000 0.1221448802
C   C44       1.0  0.73010  0.12850  0.78990  1.0000 0.1221448802
C   C45       1.0  0.74320  0.92210  0.22810  1.0000 -0.1557494631
C   C46       1.0  0.25680  0.92210  0.27190  1.0000 -0.1557494631
C   C47       1.0  0.25680  0.07790  0.77190  1.0000 -0.1557494631
C   C48       1.0  0.74320  0.07790  0.72810  1.0000 -0.1557494631
C   C49       1.0  0.82360  0.86150  0.22080  1.0000 -0.1086529182
C   C50       1.0  0.17640  0.86150  0.27920  1.0000 -0.1086529182
C   C51       1.0  0.17640  0.13850  0.77920  1.0000 -0.1086529182
C   C52       1.0  0.82360  0.13850  0.72080  1.0000 -0.1086529182
C   C53       1.0  0.89090  0.75580  0.27340  1.0000 -0.0943896776
C   C54       1.0  0.10910  0.75580  0.22660  1.0000 -0.0943896776
C   C55       1.0  0.10910  0.24420  0.72660  1.0000 -0.0943896776
C   C56       1.0  0.89090  0.24420  0.77340  1.0000 -0.0943896776
C   C57       1.0  0.87900  0.70540  0.33320  1.0000 -0.1442020168
C   C58       1.0  0.12100  0.70540  0.16680  1.0000 -0.1442020168
C   C59       1.0  0.12100  0.29460  0.66680  1.0000 -0.1442020168
C   C60       1.0  0.87900  0.29460  0.83320  1.0000 -0.1442020168
C   C61       1.0  0.79620  0.76560  0.34010  1.0000 0.1502298171
C   C62       1.0  0.20380  0.76560  0.15990  1.0000 0.1502298171
C   C63       1.0  0.20380  0.23440  0.65990  1.0000 0.1502298171
C   C64       1.0  0.79620  0.23440  0.84010  1.0000 0.1502298171
C   C65       1.0  0.91460  0.20730  0.35730  1.0000 0.1048975209
C   C66       1.0  0.08540  0.20730  0.14270  1.0000 0.1048975209
C   C67       1.0  0.08540  0.79270  0.64270  1.0000 0.1048975209
C   C68       1.0  0.91460  0.79270  0.85730  1.0000 0.1048975209
C   C69       1.0  0.91420  0.13770  0.41870  1.0000 -0.1557494631
C   C70       1.0  0.08580  0.13770  0.08130  1.0000 -0.1497725577
C   C71       1.0  0.08580  0.86230  0.58130  1.0000 -0.1497725577
C   C72       1.0  0.91420  0.86230  0.91870  1.0000 -0.1557494631
C   C73       1.0  0.99830  0.03870  0.46630  1.0000 0.1221448802
C   C74       1.0  0.00170  0.03870  0.03370  1.0000 0.1221448802
C   C75       1.0  0.00170  0.96130  0.53370  1.0000 0.1221448802
C   C76       1.0  0.99830  0.96130  0.96630  1.0000 0.1221448802
C   C77       1.0  0.07720  0.01510  0.44640  1.0000 -0.1686298182
C   C78       1.0  0.92280  0.01510  0.05360  1.0000 -0.1686298182
C   C79       1.0  0.92280  0.98490  0.55360  1.0000 -0.1686298182
C   C80       1.0  0.07720  0.98490  0.94640  1.0000 -0.1686298182
C   C81       1.0  0.07210  0.09010  0.38450  1.0000 0.0637120475
C   C82       1.0  0.92790  0.09010  0.11550  1.0000 0.0637120475
C   C83       1.0  0.92790  0.90990  0.61550  1.0000 0.0637120475
C   C84       1.0  0.07210  0.90990  0.88450  1.0000 0.0637120475
S   S1        1.0  0.60603  0.83480  0.42215  1.0000 0.0672563011
S   S2        1.0  0.39397  0.83480  0.07785  1.0000 0.0637120475
S   S3        1.0  0.39397  0.16520  0.57785  1.0000 0.0672563011
S   S4        1.0  0.60603  0.16520  0.92215  1.0000 0.0637120475
N   N1        1.0  0.65550  0.90780  0.31210  1.0000 -0.4154177724
N   N2        1.0  0.34450  0.90780  0.18790  1.0000 -0.4154177724
N   N3        1.0  0.34450  0.09220  0.68790  1.0000 -0.4154177724
N   N4        1.0  0.65550  0.09220  0.81210  1.0000 -0.4154177724
N   N5        1.0  0.76130  0.73720  0.39230  1.0000 -0.4154177724
N   N6        1.0  0.23870  0.73720  0.10770  1.0000 -0.4154177724
N   N7        1.0  0.23870  0.26280  0.60770  1.0000 -0.4154177724
N   N8        1.0  0.76130  0.26280  0.89230  1.0000 -0.4154177724
N   N9        1.0  0.99310  0.18630  0.34010  1.0000 -0.2399831867
N   N10       1.0  0.00690  0.18630  0.15990  1.0000 -0.2399831867
N   N11       1.0  0.00690  0.81370  0.65990  1.0000 -0.2399831867
N   N12       1.0  0.99310  0.81370  0.84010  1.0000 -0.2399831867
O   O1        1.0  0.11770  0.47560  0.37040  1.0000 -0.5295307865
O   O2        1.0  0.88230  0.47560  0.12960  1.0000 -0.5295307865
O   O3        1.0  0.88230  0.52440  0.62960  1.0000 -0.5295307865
O   O4        1.0  0.11770  0.52440  0.87040  1.0000 -0.5295307865
O   O5        1.0  0.18770  0.41060  0.30040  1.0000 -0.5206592759
O   O6        1.0  0.81230  0.41060  0.19960  1.0000 -0.5206592759
O   O7        1.0  0.81230  0.58940  0.69960  1.0000 -0.5206592759
O   O8        1.0  0.18770  0.58940  0.80040  1.0000 -0.5206592759
O   O9        1.0  0.36010  0.81100  0.61470  1.0000 -0.5295307865
O   O10       1.0  0.63990  0.81100  0.88530  1.0000 -0.5295307865
O   O11       1.0  0.63990  0.18900  0.38530  1.0000 -0.5295307865
O   O12       1.0  0.36010  0.18900  0.11470  1.0000 -0.5295307865
O   O13       1.0  0.54930  0.85430  0.66830  1.0000 -0.5115716984
O   O14       1.0  0.45070  0.85430  0.83170  1.0000 -0.5115716984
O   O15       1.0  0.45070  0.14570  0.33170  1.0000 -0.5115716984
O   O16       1.0  0.54930  0.14570  0.16830  1.0000 -0.5115716984
