# DDEC6 charges by PACMAN v1.1 (https://github.com/mtap-research/PACMAN-charge/)
data_2016[In][nan]3[FSR]10
_chemical_formula_sum              "In4 H16 C32 O20"
_cell_length_a       12.5629
_cell_length_b       12.5629
_cell_length_c       12.5629
_cell_angle_alpha    103.885
_cell_angle_beta     103.885
_cell_angle_gamma    121.336

_symmetry_space_group_name_H-M    "P 1"
_symmetry_Int_Tables_number       1

loop_
  _symmetry_equiv_pos_as_xyz
  'x, y, z'

loop_
  _atom_site_type_symbol
  _atom_site_label
  _atom_site_symmetry_multiplicity
  _atom_site_fract_x
  _atom_site_fract_y
  _atom_site_fract_z
  _atom_site_occupancy
  _atom_site_charge
In  In1       1.0  0.18420  0.81580  0.00000  1.0000 1.5385963494
In  In2       1.0  0.43420  0.93420  0.86840  1.0000 1.5385963494
In  In3       1.0  0.81580  0.18420  0.00000  1.0000 1.5385963494
In  In4       1.0  0.06580  0.56580  0.13160  1.0000 1.5385963494
H   H1        1.0  0.44390  0.87500  0.06890  1.0000 0.3986219639
H   H2        1.0  0.62500  0.19390  0.06890  1.0000 0.3986219639
H   H3        1.0  0.80610  0.37500  0.93110  1.0000 0.3986219639
H   H4        1.0  0.12500  0.55610  0.93110  1.0000 0.3986219639
H   H5        1.0  0.12500  0.12500  0.00000  1.0000 0.1343408811
H   H6        1.0  0.37500  0.87500  0.50000  1.0000 0.1343408811
H   H7        1.0  0.12500  0.62500  0.50000  1.0000 0.1343408811
H   H8        1.0  0.87500  0.87500  0.00000  1.0000 0.1343408811
H   H9        1.0  0.49700  0.30770  0.95490  1.0000 0.1084588884
H   H10       1.0  0.79210  0.24700  0.68930  1.0000 0.1084588884
H   H11       1.0  0.35280  0.54210  0.04510  1.0000 0.1084588884
H   H12       1.0  0.55770  0.10280  0.31070  1.0000 0.1084588884
H   H13       1.0  0.89720  0.44230  0.68930  1.0000 0.1084588884
H   H14       1.0  0.45790  0.64720  0.95490  1.0000 0.1084588884
H   H15       1.0  0.75300  0.20790  0.31070  1.0000 0.1084588884
H   H16       1.0  0.69230  0.50300  0.04510  1.0000 0.1084588884
C   C1        1.0  0.29330  0.07290  0.94880  1.0000 0.5963806907
C   C2        1.0  0.59450  0.04330  0.72040  1.0000 0.5963806907
C   C3        1.0  0.12410  0.34450  0.05120  1.0000 0.5963806907
C   C4        1.0  0.32290  0.87410  0.27960  1.0000 0.5963806907
C   C5        1.0  0.12590  0.67710  0.72040  1.0000 0.5963806907
C   C6        1.0  0.65550  0.87590  0.94880  1.0000 0.5963806907
C   C7        1.0  0.95670  0.40550  0.27960  1.0000 0.5963806907
C   C8        1.0  0.92710  0.70670  0.05120  1.0000 0.5963806907
C   C9        1.0  0.30893  0.20040  0.97413  1.0000 -0.0603050263
C   C10       1.0  0.58480  0.05893  0.60853  1.0000 -0.0603050263
C   C11       1.0  0.22627  0.33480  0.02587  1.0000 -0.0603050263
C   C12       1.0  0.45040  0.97627  0.39147  1.0000 -0.0603050263
C   C13       1.0  0.02373  0.54960  0.60853  1.0000 -0.0603050263
C   C14       1.0  0.66520  0.77373  0.97413  1.0000 -0.0603050263
C   C15       1.0  0.94107  0.41520  0.39147  1.0000 -0.0603050263
C   C16       1.0  0.79960  0.69107  0.02587  1.0000 -0.0603050263
C   C17       1.0  0.21030  0.21030  0.00000  1.0000 -0.091313166
C   C18       1.0  0.46030  0.96030  0.50000  1.0000 -0.091313166
C   C19       1.0  0.03970  0.53970  0.50000  1.0000 -0.091313166
C   C20       1.0  0.78970  0.78970  0.00000  1.0000 -0.091313166
C   C21       1.0  0.42363  0.31510  0.97413  1.0000 -0.1334900235
C   C22       1.0  0.69950  0.17363  0.60853  1.0000 -0.1334900235
C   C23       1.0  0.34097  0.44950  0.02587  1.0000 -0.1334900235
C   C24       1.0  0.56510  0.09097  0.39147  1.0000 -0.1334900235
C   C25       1.0  0.90903  0.43490  0.60853  1.0000 -0.1334900235
C   C26       1.0  0.55050  0.65903  0.97413  1.0000 -0.1334900235
C   C27       1.0  0.82637  0.30050  0.39147  1.0000 -0.1334900235
C   C28       1.0  0.68490  0.57637  0.02587  1.0000 -0.1334900235
C   C29       1.0  0.43958  0.43958  0.00000  1.0000 0.0737015927
C   C30       1.0  0.68958  0.18958  0.50000  1.0000 0.0737015927
C   C31       1.0  0.81042  0.31042  0.50000  1.0000 0.0737015927
C   C32       1.0  0.56042  0.56042  0.00000  1.0000 0.0737015927
O   O1        1.0  0.38580  0.87500  0.01080  1.0000 -0.9295260732
O   O2        1.0  0.62500  0.13580  0.01080  1.0000 -0.9295260732
O   O3        1.0  0.86420  0.37500  0.98920  1.0000 -0.9295260732
O   O4        1.0  0.12500  0.61420  0.98920  1.0000 -0.9295260732
O   O5        1.0  0.22840  0.99630  0.99150  1.0000 -0.5300185507
O   O6        1.0  0.48690  0.97840  0.73210  1.0000 -0.5300185507
O   O7        1.0  0.00480  0.23690  0.00850  1.0000 -0.5300185507
O   O8        1.0  0.24630  0.75480  0.26790  1.0000 -0.5300185507
O   O9        1.0  0.24520  0.75370  0.73210  1.0000 -0.5300185507
O   O10       1.0  0.76310  0.99520  0.99150  1.0000 -0.5300185507
O   O11       1.0  0.02160  0.51310  0.26790  1.0000 -0.5300185507
O   O12       1.0  0.00370  0.77160  0.00850  1.0000 -0.5300185507
O   O13       1.0  0.34550  0.04650  0.88580  1.0000 -0.5432367524
O   O14       1.0  0.70970  0.09550  0.79900  1.0000 -0.5432367524
O   O15       1.0  0.16070  0.45970  0.11420  1.0000 -0.5432367524
O   O16       1.0  0.29650  0.91070  0.20100  1.0000 -0.5432367524
O   O17       1.0  0.08930  0.70350  0.79900  1.0000 -0.5432367524
O   O18       1.0  0.54030  0.83930  0.88580  1.0000 -0.5432367524
O   O19       1.0  0.90450  0.29030  0.20100  1.0000 -0.5432367524
O   O20       1.0  0.95350  0.65450  0.11420  1.0000 -0.5432367524
