# DDEC6 charges by PACMAN v1.1 (https://github.com/mtap-research/PACMAN-charge/)
data_2016[Nd][nan]3[FSR]1
_chemical_formula_sum              "Nd6 H22 C68 O56"
_cell_length_a       9.398
_cell_length_b       15.307
_cell_length_c       16.751
_cell_angle_alpha    111.244
_cell_angle_beta     100.678
_cell_angle_gamma    89.276

_symmetry_space_group_name_H-M    "P 1"
_symmetry_Int_Tables_number       1

loop_
  _symmetry_equiv_pos_as_xyz
  'x, y, z'

loop_
  _atom_site_type_symbol
  _atom_site_label
  _atom_site_symmetry_multiplicity
  _atom_site_fract_x
  _atom_site_fract_y
  _atom_site_fract_z
  _atom_site_occupancy
  _atom_site_charge
Nd  Nd1       1.0  0.99942  0.17742  0.10912  1.0000 2.003680296
Nd  Nd2       1.0  0.00058  0.82258  0.89088  1.0000 2.003680296
Nd  Nd3       1.0  0.58444  0.67177  0.10791  1.0000 2.0071967315
Nd  Nd4       1.0  0.41556  0.32823  0.89209  1.0000 2.0071967315
Nd  Nd5       1.0  0.88362  0.73878  0.52165  1.0000 2.0917570066
Nd  Nd6       1.0  0.11638  0.26122  0.47835  1.0000 2.0917570066
H   H1        1.0  0.21280  0.01250  0.54250  1.0000 0.3832477403
H   H2        1.0  0.78720  0.98750  0.45750  1.0000 0.3832477403
H   H3        1.0  0.36160  0.99050  0.11540  1.0000 0.1386817914
H   H4        1.0  0.63840  0.00950  0.88460  1.0000 0.1386817914
H   H5        1.0  0.76600  0.00280  0.25000  1.0000 0.1300789219
H   H6        1.0  0.23400  0.99720  0.75000  1.0000 0.1300789219
H   H7        1.0  0.51000  0.27390  0.12090  1.0000 0.1300789219
H   H8        1.0  0.49000  0.72610  0.87910  1.0000 0.1300789219
H   H9        1.0  0.63980  0.53620  0.28780  1.0000 0.1300789219
H   H10       1.0  0.36020  0.46380  0.71220  1.0000 0.1300789219
H   H11       1.0  0.68330  0.32060  0.37230  1.0000 0.122739583
H   H12       1.0  0.31670  0.67940  0.62770  1.0000 0.122739583
H   H13       1.0  0.91250  0.51490  0.25530  1.0000 0.122739583
H   H14       1.0  0.08750  0.48510  0.74470  1.0000 0.122739583
H   H15       1.0  0.21870  0.48410  0.11110  1.0000 0.1386817914
H   H16       1.0  0.78130  0.51590  0.88890  1.0000 0.1386817914
H   H17       1.0  0.06230  0.77660  0.11660  1.0000 0.1386817914
H   H18       1.0  0.93770  0.22340  0.88340  1.0000 0.1386817914
H   H19       1.0  0.09930  0.04070  0.29110  1.0000 0.1300789219
H   H20       1.0  0.90070  0.95930  0.70890  1.0000 0.1300789219
H   H21       1.0  0.12660  0.82460  0.37340  1.0000 0.1300789219
H   H22       1.0  0.87340  0.17540  0.62660  1.0000 0.1300789219
C   C1        1.0  0.85060  0.17540  0.29110  1.0000 0.6306825203
C   C2        1.0  0.14940  0.82460  0.70890  1.0000 0.6306825203
C   C3        1.0  0.69950  0.12940  0.25050  1.0000 -0.0531192378
C   C4        1.0  0.30050  0.87060  0.74950  1.0000 -0.0531192378
C   C5        1.0  0.57970  0.17650  0.22450  1.0000 0.0106229016
C   C6        1.0  0.42030  0.82350  0.77550  1.0000 0.0106229016
C   C7        1.0  0.45210  0.12290  0.17530  1.0000 -0.0282446037
C   C8        1.0  0.54790  0.87710  0.82470  1.0000 -0.0282446037
C   C9        1.0  0.44540  0.02540  0.15070  1.0000 -0.099886034
C   C10       1.0  0.55460  0.97460  0.84930  1.0000 -0.099886034
C   C11       1.0  0.56070  0.98020  0.17790  1.0000 -0.0029739812
C   C12       1.0  0.43930  0.01980  0.82210  1.0000 -0.0029739812
C   C13       1.0  0.68870  0.03260  0.22970  1.0000 -0.099886034
C   C14       1.0  0.31130  0.96740  0.77030  1.0000 -0.099886034
C   C15       1.0  0.31290  0.16440  0.14960  1.0000 0.5609161329
C   C16       1.0  0.68710  0.83560  0.85040  1.0000 0.5609161329
C   C17       1.0  0.55620  0.87470  0.15100  1.0000 0.5403413248
C   C18       1.0  0.44380  0.12530  0.84900  1.0000 0.5403413248
C   C19       1.0  0.59490  0.28070  0.24340  1.0000 0.0634694022
C   C20       1.0  0.40510  0.71930  0.75660  1.0000 0.0634694022
C   C21       1.0  0.55140  0.31510  0.17660  1.0000 -0.1135696176
C   C22       1.0  0.44860  0.68490  0.82340  1.0000 -0.1135696176
C   C23       1.0  0.56940  0.41010  0.19240  1.0000 -0.0121735087
C   C24       1.0  0.43060  0.58990  0.80760  1.0000 -0.0121735087
C   C25       1.0  0.62970  0.47230  0.27680  1.0000 -0.0825513139
C   C26       1.0  0.37030  0.52770  0.72320  1.0000 -0.0825513139
C   C27       1.0  0.67420  0.43970  0.34350  1.0000 -0.0121735087
C   C28       1.0  0.32580  0.56030  0.65650  1.0000 -0.0121735087
C   C29       1.0  0.65540  0.34290  0.32720  1.0000 -0.119666897
C   C30       1.0  0.34460  0.65710  0.67280  1.0000 -0.119666897
C   C31       1.0  0.52730  0.44910  0.12080  1.0000 0.6306825203
C   C32       1.0  0.47270  0.55090  0.87920  1.0000 0.6306825203
C   C33       1.0  0.74030  0.50760  0.43350  1.0000 0.5810743344
C   C34       1.0  0.25970  0.49240  0.56650  1.0000 0.5810743344
C   C35       1.0  0.05150  0.37880  0.15810  1.0000 0.5403413248
C   C36       1.0  0.94850  0.62120  0.84190  1.0000 0.5403413248
C   C37       1.0  0.06520  0.48220  0.18050  1.0000 -0.0029739812
C   C38       1.0  0.93480  0.51780  0.81950  1.0000 -0.0029739812
C   C39       1.0  0.97660  0.54040  0.23240  1.0000 -0.099886034
C   C40       1.0  0.02340  0.45960  0.76760  1.0000 -0.099886034
C   C41       1.0  0.98300  0.63720  0.25030  1.0000 -0.0531192378
C   C42       1.0  0.01700  0.36280  0.74970  1.0000 -0.0531192378
C   C43       1.0  0.08480  0.67870  0.22160  1.0000 -0.0029739812
C   C44       1.0  0.91520  0.32130  0.77840  1.0000 -0.0029739812
C   C45       1.0  0.17560  0.61960  0.17050  1.0000 -0.0224409833
C   C46       1.0  0.82440  0.38040  0.82950  1.0000 -0.0224409833
C   C47       1.0  0.16210  0.52250  0.14820  1.0000 -0.0918528962
C   C48       1.0  0.83790  0.47750  0.85180  1.0000 -0.0918528962
C   C49       1.0  0.86690  0.69340  0.29490  1.0000 0.6378676069
C   C50       1.0  0.13310  0.30660  0.70510  1.0000 0.6378676069
C   C51       1.0  0.29810  0.65850  0.14450  1.0000 0.5609161329
C   C52       1.0  0.70190  0.34150  0.85550  1.0000 0.5609161329
C   C53       1.0  0.09190  0.78180  0.24140  1.0000 0.0677044165
C   C54       1.0  0.90810  0.21820  0.75860  1.0000 0.0677044165
C   C55       1.0  0.07550  0.81800  0.17430  1.0000 -0.1135696176
C   C56       1.0  0.92450  0.18200  0.82570  1.0000 -0.1135696176
C   C57       1.0  0.07850  0.91290  0.19210  1.0000 -0.0121735087
C   C58       1.0  0.92150  0.08710  0.80790  1.0000 -0.0121735087
C   C59       1.0  0.09840  0.97640  0.27860  1.0000 -0.0918528962
C   C60       1.0  0.90160  0.02360  0.72140  1.0000 -0.0918528962
C   C61       1.0  0.11640  0.94180  0.34470  1.0000 -0.038522661
C   C62       1.0  0.88360  0.05820  0.65530  1.0000 -0.038522661
C   C63       1.0  0.11370  0.84620  0.32740  1.0000 -0.1374816823
C   C64       1.0  0.88630  0.15380  0.67260  1.0000 -0.1374816823
C   C65       1.0  0.05430  0.95150  0.11890  1.0000 0.6378676069
C   C66       1.0  0.94570  0.04850  0.88110  1.0000 0.6378676069
C   C67       1.0  0.14100  0.01020  0.43830  1.0000 0.5893358958
C   C68       1.0  0.85900  0.98980  0.56170  1.0000 0.5893358958
O   O1        1.0  0.91780  0.19800  0.24240  1.0000 -0.5765996248
O   O2        1.0  0.08220  0.80200  0.75760  1.0000 -0.5765996248
O   O3        1.0  0.89980  0.18400  0.36790  1.0000 -0.6087070036
O   O4        1.0  0.10020  0.81600  0.63210  1.0000 -0.6087070036
O   O5        1.0  0.25160  0.13560  0.07110  1.0000 -0.4934884909
O   O6        1.0  0.74840  0.86440  0.92890  1.0000 -0.4934884909
O   O7        1.0  0.25260  0.22090  0.20850  1.0000 -0.5136944282
O   O8        1.0  0.74740  0.77910  0.79150  1.0000 -0.5136944282
O   O9        1.0  0.46720  0.82260  0.08640  1.0000 -0.4962041902
O   O10       1.0  0.53280  0.17740  0.91360  1.0000 -0.4962041902
O   O11       1.0  0.64990  0.84030  0.19440  1.0000 -0.5749360251
O   O12       1.0  0.35010  0.15970  0.80560  1.0000 -0.5765996248
O   O13       1.0  0.48590  0.39050  0.04550  1.0000 -0.5765996248
O   O14       1.0  0.51410  0.60950  0.95450  1.0000 -0.5765996248
O   O15       1.0  0.53700  0.53450  0.13990  1.0000 -0.5936304856
O   O16       1.0  0.46300  0.46550  0.86010  1.0000 -0.5936304856
O   O17       1.0  0.76350  0.59160  0.43930  1.0000 -0.6290251243
O   O18       1.0  0.23650  0.40840  0.56070  1.0000 -0.6290251243
O   O19       1.0  0.76810  0.48170  0.49530  1.0000 -0.3478222418
O   O20       1.0  0.23190  0.51830  0.50470  1.0000 -0.3478222418
O   O21       1.0  0.99080  0.34710  0.20370  1.0000 -0.5163539576
O   O22       1.0  0.00920  0.65290  0.79630  1.0000 -0.5163539576
O   O23       1.0  0.09270  0.32390  0.09070  1.0000 -0.5136944282
O   O24       1.0  0.90730  0.67610  0.90930  1.0000 -0.5136944282
O   O25       1.0  0.75110  0.69580  0.24710  1.0000 -0.5598875213
O   O26       1.0  0.24890  0.30420  0.75290  1.0000 -0.5598875213
O   O27       1.0  0.89380  0.73520  0.37620  1.0000 -0.5970003236
O   O28       1.0  0.10620  0.26480  0.62380  1.0000 -0.5970003236
O   O29       1.0  0.30850  0.62940  0.06500  1.0000 -0.4934884909
O   O30       1.0  0.69150  0.37060  0.93500  1.0000 -0.4934884909
O   O31       1.0  0.39280  0.71300  0.20290  1.0000 -0.5503193664
O   O32       1.0  0.60720  0.28700  0.79710  1.0000 -0.5503193664
O   O33       1.0  0.01570  0.89300  0.04320  1.0000 -0.5765996248
O   O34       1.0  0.98430  0.10700  0.95680  1.0000 -0.5765996248
O   O35       1.0  0.07150  0.03850  0.13900  1.0000 -0.615614109
O   O36       1.0  0.92850  0.96150  0.86100  1.0000 -0.615614109
O   O37       1.0  0.17570  0.97220  0.49560  1.0000 -0.4187131154
O   O38       1.0  0.82430  0.02780  0.50440  1.0000 -0.4187131154
O   O39       1.0  0.13150  0.09390  0.45600  1.0000 -0.5936304856
O   O40       1.0  0.86850  0.90610  0.54400  1.0000 -0.5936304856
O   O41       1.0  0.77910  0.24110  0.04230  1.0000 -0.1464131626
O   O42       1.0  0.22090  0.75890  0.95770  1.0000 -0.1464131626
O   O43       1.0  0.77520  0.05710  0.05180  1.0000 -0.2193318832
O   O44       1.0  0.22480  0.94290  0.94820  1.0000 -0.2193318832
O   O45       1.0  0.77140  0.55140  0.05510  1.0000 -0.2312129217
O   O46       1.0  0.22860  0.44860  0.94490  1.0000 -0.2312129217
O   O47       1.0  0.76560  0.73730  0.04690  1.0000 -0.0825513139
O   O48       1.0  0.23440  0.26270  0.95310  1.0000 -0.0825513139
O   O49       1.0  0.09880  0.65690  0.47010  1.0000 -0.3220845538
O   O50       1.0  0.90120  0.34310  0.52990  1.0000 -0.3220845538
O   O51       1.0  0.63990  0.76790  0.45760  1.0000 -0.2535281706
O   O52       1.0  0.36010  0.23210  0.54240  1.0000 -0.2535281706
O   O53       1.0  0.94380  0.63770  0.60830  1.0000 -0.1279700774
O   O54       1.0  0.05620  0.36230  0.39170  1.0000 -0.1279700774
O   O55       1.0  0.72840  0.78930  0.63130  1.0000 -0.3285982835
O   O56       1.0  0.27160  0.21070  0.36870  1.0000 -0.3285982835
