# DDEC6 charges by PACMAN v1.1 (https://github.com/mtap-research/PACMAN-charge/)
data_2016[Zn][nan]3[FSR]3
_chemical_formula_sum              "Zn8 H56 C96 N40 O32"
_cell_length_a       10.72
_cell_length_b       16.277
_cell_length_c       19.377
_cell_angle_alpha    90
_cell_angle_beta     101.384
_cell_angle_gamma    90

_symmetry_space_group_name_H-M    "P 1"
_symmetry_Int_Tables_number       1

loop_
  _symmetry_equiv_pos_as_xyz
  'x, y, z'

loop_
  _atom_site_type_symbol
  _atom_site_label
  _atom_site_symmetry_multiplicity
  _atom_site_fract_x
  _atom_site_fract_y
  _atom_site_fract_z
  _atom_site_occupancy
  _atom_site_charge
Zn  Zn1       1.0  0.95206  0.34144  0.98937  1.0000 0.7802215056
Zn  Zn2       1.0  0.54794  0.84144  0.01063  1.0000 0.7802215056
Zn  Zn3       1.0  0.04794  0.65856  0.01063  1.0000 0.7802215056
Zn  Zn4       1.0  0.45206  0.15856  0.98937  1.0000 0.7802215056
Zn  Zn5       1.0  0.98128  0.34688  0.50095  1.0000 0.7802215056
Zn  Zn6       1.0  0.51872  0.84688  0.49905  1.0000 0.7802215056
Zn  Zn7       1.0  0.01872  0.65312  0.49905  1.0000 0.7802215056
Zn  Zn8       1.0  0.48128  0.15312  0.50095  1.0000 0.7802215056
H   H1        1.0  0.73830  0.10450  0.00690  1.0000 0.159906006
H   H2        1.0  0.76170  0.60450  0.99310  1.0000 0.159906006
H   H3        1.0  0.26170  0.89550  0.99310  1.0000 0.159906006
H   H4        1.0  0.23830  0.39550  0.00690  1.0000 0.159906006
H   H5        1.0  0.86640  0.14790  0.00200  1.0000 0.1498322734
H   H6        1.0  0.63360  0.64790  0.99800  1.0000 0.1498322734
H   H7        1.0  0.13360  0.85210  0.99800  1.0000 0.1498322734
H   H8        1.0  0.36640  0.35210  0.00200  1.0000 0.1498322734
H   H9        1.0  0.81380  0.20140  0.85820  1.0000 0.1403777795
H   H10       1.0  0.68620  0.70140  0.14180  1.0000 0.1403777795
H   H11       1.0  0.18620  0.79860  0.14180  1.0000 0.1403777795
H   H12       1.0  0.31380  0.29860  0.85820  1.0000 0.1403777795
H   H13       1.0  0.82550  0.13680  0.75460  1.0000 0.159906006
H   H14       1.0  0.67450  0.63680  0.24540  1.0000 0.159906006
H   H15       1.0  0.17450  0.86320  0.24540  1.0000 0.159906006
H   H16       1.0  0.32550  0.36320  0.75460  1.0000 0.159906006
H   H17       1.0  0.75100  0.92280  0.83940  1.0000 0.1403777795
H   H18       1.0  0.74900  0.42280  0.16060  1.0000 0.1403777795
H   H19       1.0  0.24900  0.07720  0.16060  1.0000 0.1403777795
H   H20       1.0  0.25100  0.57720  0.83940  1.0000 0.1403777795
H   H21       1.0  0.73580  0.99150  0.94090  1.0000 0.1403777795
H   H22       1.0  0.76420  0.49150  0.05910  1.0000 0.1403777795
H   H23       1.0  0.26420  0.00850  0.05910  1.0000 0.1403777795
H   H24       1.0  0.23580  0.50850  0.94090  1.0000 0.1403777795
H   H25       1.0  0.77210  0.07440  0.65190  1.0000 0.1498322734
H   H26       1.0  0.72790  0.57440  0.34810  1.0000 0.1498322734
H   H27       1.0  0.22790  0.92560  0.34810  1.0000 0.1498322734
H   H28       1.0  0.27210  0.42560  0.65190  1.0000 0.1498322734
H   H29       1.0  0.08330  0.62490  0.27660  1.0000 0.128517917
H   H30       1.0  0.41670  0.12490  0.72340  1.0000 0.128517917
H   H31       1.0  0.91670  0.37510  0.72340  1.0000 0.128517917
H   H32       1.0  0.58330  0.87510  0.27660  1.0000 0.128517917
H   H33       1.0  0.00980  0.34810  0.23220  1.0000 0.1192184599
H   H34       1.0  0.49020  0.84810  0.76780  1.0000 0.1192184599
H   H35       1.0  0.99020  0.65190  0.76780  1.0000 0.1192184599
H   H36       1.0  0.50980  0.15190  0.23220  1.0000 0.1192184599
H   H37       1.0  0.80110  0.00560  0.55330  1.0000 0.1403777795
H   H38       1.0  0.69890  0.50560  0.44670  1.0000 0.1403777795
H   H39       1.0  0.19890  0.99440  0.44670  1.0000 0.1403777795
H   H40       1.0  0.30110  0.49440  0.55330  1.0000 0.1403777795
H   H41       1.0  0.86540  0.79930  0.65980  1.0000 0.1403777795
H   H42       1.0  0.63460  0.29930  0.34020  1.0000 0.1403777795
H   H43       1.0  0.13460  0.20070  0.34020  1.0000 0.1403777795
H   H44       1.0  0.36540  0.70070  0.65980  1.0000 0.1403777795
H   H45       1.0  0.82850  0.86360  0.75930  1.0000 0.1498322734
H   H46       1.0  0.67150  0.36360  0.24070  1.0000 0.1498322734
H   H47       1.0  0.17150  0.13640  0.24070  1.0000 0.1498322734
H   H48       1.0  0.32850  0.63640  0.75930  1.0000 0.1498322734
H   H49       1.0  0.96250  0.84120  0.54690  1.0000 0.1498322734
H   H50       1.0  0.53750  0.34120  0.45310  1.0000 0.1498322734
H   H51       1.0  0.03750  0.15880  0.45310  1.0000 0.1498322734
H   H52       1.0  0.46250  0.65880  0.54690  1.0000 0.1498322734
H   H53       1.0  0.86110  0.89460  0.49720  1.0000 0.159906006
H   H54       1.0  0.63890  0.39460  0.50280  1.0000 0.159906006
H   H55       1.0  0.13890  0.10540  0.50280  1.0000 0.159906006
H   H56       1.0  0.36110  0.60540  0.49720  1.0000 0.159906006
C   C1        1.0  0.71450  0.22280  0.97638  1.0000 0.2998393513
C   C2        1.0  0.78550  0.72280  0.02362  1.0000 0.2944132225
C   C3        1.0  0.28550  0.77720  0.02362  1.0000 0.2944132225
C   C4        1.0  0.21450  0.27720  0.97638  1.0000 0.2998393513
C   C5        1.0  0.77830  0.14150  0.97850  1.0000 -0.2217858
C   C6        1.0  0.72170  0.64150  0.02150  1.0000 -0.2217858
C   C7        1.0  0.22170  0.85850  0.02150  1.0000 -0.2217858
C   C8        1.0  0.27830  0.35850  0.97850  1.0000 -0.2217858
C   C9        1.0  0.80110  0.14500  0.85410  1.0000 0.0505999421
C   C10       1.0  0.69890  0.64500  0.14590  1.0000 0.0505999421
C   C11       1.0  0.19890  0.85500  0.14590  1.0000 0.0505999421
C   C12       1.0  0.30110  0.35500  0.85410  1.0000 0.0505999421
C   C13       1.0  0.80890  0.10610  0.79230  1.0000 -0.1674787055
C   C14       1.0  0.69110  0.60610  0.20770  1.0000 -0.1674787055
C   C15       1.0  0.19110  0.89390  0.20770  1.0000 -0.1674787055
C   C16       1.0  0.30890  0.39390  0.79230  1.0000 -0.1674787055
C   C17       1.0  0.79270  0.02170  0.78480  1.0000 0.1192184599
C   C18       1.0  0.70730  0.52170  0.21520  1.0000 0.1192184599
C   C19       1.0  0.20730  0.97830  0.21520  1.0000 0.1192184599
C   C20       1.0  0.29270  0.47830  0.78480  1.0000 0.1192184599
C   C21       1.0  0.76420  0.97920  0.84230  1.0000 -0.1674787055
C   C22       1.0  0.73580  0.47920  0.15770  1.0000 -0.1674787055
C   C23       1.0  0.23580  0.02080  0.15770  1.0000 -0.1674787055
C   C24       1.0  0.26420  0.52080  0.84230  1.0000 -0.1674787055
C   C25       1.0  0.75550  0.02040  0.90310  1.0000 0.0505999421
C   C26       1.0  0.74450  0.52040  0.09690  1.0000 0.0505999421
C   C27       1.0  0.24450  0.97960  0.09690  1.0000 0.0505999421
C   C28       1.0  0.25550  0.47960  0.90310  1.0000 0.0505999421
C   C29       1.0  0.80530  0.97770  0.71850  1.0000 0.112983136
C   C30       1.0  0.69470  0.47770  0.28150  1.0000 0.112983136
C   C31       1.0  0.19470  0.02230  0.28150  1.0000 0.112983136
C   C32       1.0  0.30530  0.52230  0.71850  1.0000 0.112983136
C   C33       1.0  0.79250  0.01880  0.65470  1.0000 -0.1485994546
C   C34       1.0  0.70750  0.51880  0.34530  1.0000 -0.1485994546
C   C35       1.0  0.20750  0.98120  0.34530  1.0000 -0.1485994546
C   C36       1.0  0.29250  0.48120  0.65470  1.0000 -0.1485994546
C   C37       1.0  0.06580  0.53870  0.20042  1.0000 -0.0374937779
C   C38       1.0  0.43420  0.03870  0.79958  1.0000 -0.0374937779
C   C39       1.0  0.93420  0.46130  0.79958  1.0000 -0.0374937779
C   C40       1.0  0.56580  0.96130  0.20042  1.0000 -0.0374937779
C   C41       1.0  0.06850  0.56930  0.26780  1.0000 -0.1395415025
C   C42       1.0  0.43150  0.06930  0.73220  1.0000 -0.1395415025
C   C43       1.0  0.93150  0.43070  0.73220  1.0000 -0.1395415025
C   C44       1.0  0.56850  0.93070  0.26780  1.0000 -0.1395415025
C   C45       1.0  0.04920  0.51790  0.32242  1.0000 -0.0120909954
C   C46       1.0  0.45080  0.01790  0.67758  1.0000 -0.0120909954
C   C47       1.0  0.95080  0.48210  0.67758  1.0000 -0.0120909954
C   C48       1.0  0.54920  0.98210  0.32242  1.0000 -0.0120909954
C   C49       1.0  0.02310  0.43480  0.30835  1.0000 -0.0489449905
C   C50       1.0  0.47690  0.93480  0.69165  1.0000 -0.0489449905
C   C51       1.0  0.97690  0.56520  0.69165  1.0000 -0.0489449905
C   C52       1.0  0.52310  0.06520  0.30835  1.0000 -0.0489449905
C   C53       1.0  0.02380  0.40380  0.24103  1.0000 -0.1395415025
C   C54       1.0  0.47620  0.90380  0.75897  1.0000 -0.1395415025
C   C55       1.0  0.97620  0.59620  0.75897  1.0000 -0.1395415025
C   C56       1.0  0.52380  0.09620  0.24103  1.0000 -0.1395415025
C   C57       1.0  0.04520  0.45510  0.18726  1.0000 -0.0203536469
C   C58       1.0  0.45480  0.95510  0.81274  1.0000 -0.0203536469
C   C59       1.0  0.95480  0.54490  0.81274  1.0000 -0.0203536469
C   C60       1.0  0.54520  0.04490  0.18726  1.0000 -0.0203536469
C   C61       1.0  0.07910  0.59830  0.14310  1.0000 0.555036916
C   C62       1.0  0.42090  0.09830  0.85690  1.0000 0.555036916
C   C63       1.0  0.92090  0.40170  0.85690  1.0000 0.555036916
C   C64       1.0  0.57910  0.90170  0.14310  1.0000 0.555036916
C   C65       1.0  0.06590  0.55580  0.39460  1.0000 0.5804878907
C   C66       1.0  0.43410  0.05580  0.60540  1.0000 0.5804878907
C   C67       1.0  0.93410  0.44420  0.60540  1.0000 0.5804878907
C   C68       1.0  0.56590  0.94420  0.39460  1.0000 0.5804878907
C   C69       1.0  0.99330  0.37830  0.36405  1.0000 0.5489854948
C   C70       1.0  0.50670  0.87830  0.63595  1.0000 0.5489854948
C   C71       1.0  0.00670  0.62170  0.63595  1.0000 0.5489854948
C   C72       1.0  0.49330  0.12170  0.36405  1.0000 0.5489854948
C   C73       1.0  0.80990  0.97760  0.59580  1.0000 0.0687173964
C   C74       1.0  0.69010  0.47760  0.40420  1.0000 0.0687173964
C   C75       1.0  0.19010  0.02240  0.40420  1.0000 0.0687173964
C   C76       1.0  0.30990  0.52240  0.59580  1.0000 0.0687173964
C   C77       1.0  0.84690  0.85520  0.65860  1.0000 0.0558363297
C   C78       1.0  0.65310  0.35520  0.34140  1.0000 0.0558363297
C   C79       1.0  0.15310  0.14480  0.34140  1.0000 0.0558363297
C   C80       1.0  0.34690  0.64480  0.65860  1.0000 0.0558363297
C   C81       1.0  0.82710  0.89390  0.71850  1.0000 -0.1674787055
C   C82       1.0  0.67290  0.39390  0.28150  1.0000 -0.1674787055
C   C83       1.0  0.17290  0.10610  0.28150  1.0000 -0.1674787055
C   C84       1.0  0.32710  0.60610  0.71850  1.0000 -0.1674787055
C   C85       1.0  0.87310  0.85590  0.53600  1.0000 -0.2107657059
C   C86       1.0  0.62690  0.35590  0.46400  1.0000 -0.2107657059
C   C87       1.0  0.12690  0.14410  0.46400  1.0000 -0.2107657059
C   C88       1.0  0.37310  0.64410  0.53600  1.0000 -0.2107657059
C   C89       1.0  0.79660  0.78020  0.51290  1.0000 0.2998393513
C   C90       1.0  0.70340  0.28020  0.48710  1.0000 0.2998393513
C   C91       1.0  0.20340  0.21980  0.48710  1.0000 0.2998393513
C   C92       1.0  0.29660  0.71980  0.51290  1.0000 0.2998393513
C   C93       1.0  0.05170  0.41670  0.11660  1.0000 0.5804878907
C   C94       1.0  0.44830  0.91670  0.88340  1.0000 0.5804878907
C   C95       1.0  0.94830  0.58330  0.88340  1.0000 0.5804878907
C   C96       1.0  0.55170  0.08330  0.11660  1.0000 0.5804878907
N   N1        1.0  0.59290  0.23610  0.97803  1.0000 -0.2588052502
N   N2        1.0  0.90710  0.73610  0.02197  1.0000 -0.2588052502
N   N3        1.0  0.40710  0.76390  0.02197  1.0000 -0.2588052502
N   N4        1.0  0.09290  0.26390  0.97803  1.0000 -0.2588052502
N   N5        1.0  0.57680  0.31820  0.97710  1.0000 -0.0877639953
N   N6        1.0  0.92320  0.81820  0.02290  1.0000 -0.0877639953
N   N7        1.0  0.42320  0.68180  0.02290  1.0000 -0.0877639953
N   N8        1.0  0.07680  0.18180  0.97710  1.0000 -0.0877639953
N   N9        1.0  0.68510  0.35370  0.97600  1.0000 -0.0611952743
N   N10       1.0  0.81490  0.85370  0.02400  1.0000 -0.0611952743
N   N11       1.0  0.31490  0.64630  0.02400  1.0000 -0.0611952743
N   N12       1.0  0.18510  0.14630  0.97600  1.0000 -0.0611952743
N   N13       1.0  0.77460  0.29480  0.97582  1.0000 -0.2588052502
N   N14       1.0  0.72540  0.79480  0.02418  1.0000 -0.2588052502
N   N15       1.0  0.22540  0.70520  0.02418  1.0000 -0.2588052502
N   N16       1.0  0.27460  0.20520  0.97582  1.0000 -0.2588052502
N   N17       1.0  0.67060  0.77276  0.50203  1.0000 -0.266395518
N   N18       1.0  0.82940  0.27276  0.49797  1.0000 -0.266395518
N   N19       1.0  0.32940  0.22724  0.49797  1.0000 -0.266395518
N   N20       1.0  0.17060  0.72724  0.50203  1.0000 -0.266395518
N   N21       1.0  0.64360  0.69580  0.47776  1.0000 -0.0877639953
N   N22       1.0  0.85640  0.19580  0.52224  1.0000 -0.0877639953
N   N23       1.0  0.35640  0.30420  0.52224  1.0000 -0.0877639953
N   N24       1.0  0.14360  0.80420  0.47776  1.0000 -0.0877639953
N   N25       1.0  0.74900  0.65870  0.47360  1.0000 -0.0489449905
N   N26       1.0  0.75100  0.15870  0.52640  1.0000 -0.0489449905
N   N27       1.0  0.25100  0.34130  0.52640  1.0000 -0.0489449905
N   N28       1.0  0.24900  0.84130  0.47360  1.0000 -0.0489449905
N   N29       1.0  0.84750  0.71078  0.49557  1.0000 -0.2542029781
N   N30       1.0  0.65250  0.21078  0.50443  1.0000 -0.2542029781
N   N31       1.0  0.15250  0.28922  0.50443  1.0000 -0.2542029781
N   N32       1.0  0.34750  0.78922  0.49557  1.0000 -0.2542029781
N   N33       1.0  0.77530  0.10237  0.90870  1.0000 0.1192184599
N   N34       1.0  0.72470  0.60237  0.09130  1.0000 0.1192184599
N   N35       1.0  0.22470  0.89763  0.09130  1.0000 0.1192184599
N   N36       1.0  0.27530  0.39763  0.90870  1.0000 0.1192184599
N   N37       1.0  0.83970  0.89724  0.59844  1.0000 0.1192184599
N   N38       1.0  0.66030  0.39724  0.40156  1.0000 0.1192184599
N   N39       1.0  0.16030  0.10276  0.40156  1.0000 0.1192184599
N   N40       1.0  0.33970  0.60276  0.59844  1.0000 0.1192184599
O   O1        1.0  0.94880  0.38988  0.08095  1.0000 -0.5444134338
O   O2        1.0  0.55120  0.88988  0.91905  1.0000 -0.5485505207
O   O3        1.0  0.05120  0.61012  0.91905  1.0000 -0.5485505207
O   O4        1.0  0.44880  0.11012  0.08095  1.0000 -0.5485505207
O   O5        1.0  0.15660  0.40920  0.10026  1.0000 -0.5305369584
O   O6        1.0  0.34340  0.90920  0.89974  1.0000 -0.5305369584
O   O7        1.0  0.84340  0.59080  0.89974  1.0000 -0.5305369584
O   O8        1.0  0.65660  0.09080  0.10026  1.0000 -0.5305369584
O   O9        1.0  0.99120  0.30331  0.35537  1.0000 -0.5671602501
O   O10       1.0  0.50880  0.80331  0.64463  1.0000 -0.5671602501
O   O11       1.0  0.00880  0.69669  0.64463  1.0000 -0.5671602501
O   O12       1.0  0.49120  0.19669  0.35537  1.0000 -0.5671602501
O   O13       1.0  0.96720  0.41430  0.41815  1.0000 -0.5305369584
O   O14       1.0  0.53280  0.91430  0.58185  1.0000 -0.5305369584
O   O15       1.0  0.03280  0.58570  0.58185  1.0000 -0.5305369584
O   O16       1.0  0.46720  0.08570  0.41815  1.0000 -0.5305369584
O   O17       1.0  0.16440  0.54284  0.43799  1.0000 -0.5485505207
O   O18       1.0  0.33560  0.04284  0.56201  1.0000 -0.5485505207
O   O19       1.0  0.83560  0.45716  0.56201  1.0000 -0.5485505207
O   O20       1.0  0.66440  0.95716  0.43799  1.0000 -0.5485505207
O   O21       1.0  0.97870  0.60523  0.40494  1.0000 -0.5485505207
O   O22       1.0  0.52130  0.10523  0.59506  1.0000 -0.5485505207
O   O23       1.0  0.02130  0.39477  0.59506  1.0000 -0.5485505207
O   O24       1.0  0.47870  0.89477  0.40494  1.0000 -0.5485505207
O   O25       1.0  0.12680  0.66570  0.15801  1.0000 -0.5485505207
O   O26       1.0  0.37320  0.16570  0.84199  1.0000 -0.5485505207
O   O27       1.0  0.87320  0.33430  0.84199  1.0000 -0.5485505207
O   O28       1.0  0.62680  0.83430  0.15801  1.0000 -0.5485505207
O   O29       1.0  0.03470  0.57541  0.08056  1.0000 -0.5206386311
O   O30       1.0  0.46530  0.07541  0.91944  1.0000 -0.5206386311
O   O31       1.0  0.96530  0.42459  0.91944  1.0000 -0.5206386311
O   O32       1.0  0.53470  0.92459  0.08056  1.0000 -0.5206386311
