# DDEC6 charges by PACMAN v1.1 (https://github.com/mtap-research/PACMAN-charge/)
data_2016[Mn][pcu]3[FSR]1
_chemical_formula_sum              "Mn9 H66 C66 N12 O48"
_cell_length_a       15.4498
_cell_length_b       15.4498
_cell_length_c       15.4498
_cell_angle_alpha    110.975
_cell_angle_beta     110.975
_cell_angle_gamma    110.975

_symmetry_space_group_name_H-M    "P 1"
_symmetry_Int_Tables_number       1

loop_
  _symmetry_equiv_pos_as_xyz
  'x, y, z'

loop_
  _atom_site_type_symbol
  _atom_site_label
  _atom_site_symmetry_multiplicity
  _atom_site_fract_x
  _atom_site_fract_y
  _atom_site_fract_z
  _atom_site_occupancy
  _atom_site_charge
Mn  Mn1       1.0  0.50946  0.26863  0.78594  1.0000 0.8881078665
Mn  Mn2       1.0  0.26863  0.78594  0.50946  1.0000 0.8881078665
Mn  Mn3       1.0  0.78594  0.50946  0.26863  1.0000 0.8881078665
Mn  Mn4       1.0  0.49054  0.73137  0.21406  1.0000 0.8881078665
Mn  Mn5       1.0  0.73137  0.21406  0.49054  1.0000 0.8881078665
Mn  Mn6       1.0  0.21406  0.49054  0.73137  1.0000 0.8881078665
Mn  Mn7       1.0  0.00000  0.50000  0.00000  1.0000 1.0934072042
Mn  Mn8       1.0  0.50000  0.00000  0.00000  1.0000 1.0934072042
Mn  Mn9       1.0  0.00000  0.00000  0.50000  1.0000 1.0934072042
H   H1        1.0  0.17430  0.95080  0.23710  1.0000 0.1293417108
H   H2        1.0  0.95080  0.23710  0.17430  1.0000 0.1293417108
H   H3        1.0  0.23710  0.17430  0.95080  1.0000 0.1293417108
H   H4        1.0  0.82570  0.04920  0.76290  1.0000 0.1293417108
H   H5        1.0  0.04920  0.76290  0.82570  1.0000 0.1293417108
H   H6        1.0  0.76290  0.82570  0.04920  1.0000 0.1293417108
H   H7        1.0  0.48790  0.03450  0.41190  1.0000 0.1536177997
H   H8        1.0  0.03450  0.41190  0.48790  1.0000 0.1536177997
H   H9        1.0  0.41190  0.48790  0.03450  1.0000 0.1536177997
H   H10       1.0  0.51210  0.96550  0.58810  1.0000 0.1536177997
H   H11       1.0  0.96550  0.58810  0.51210  1.0000 0.1536177997
H   H12       1.0  0.58810  0.51210  0.96550  1.0000 0.1536177997
H   H13       1.0  0.21830  0.11040  0.37940  1.0000 0.1193115045
H   H14       1.0  0.11040  0.37940  0.21830  1.0000 0.1193115045
H   H15       1.0  0.37940  0.21830  0.11040  1.0000 0.1193115045
H   H16       1.0  0.78170  0.88960  0.62060  1.0000 0.1193115045
H   H17       1.0  0.88960  0.62060  0.78170  1.0000 0.1193115045
H   H18       1.0  0.62060  0.78170  0.88960  1.0000 0.1193115045
H   H19       1.0  0.39880  0.23550  0.54030  1.0000 0.1293417108
H   H20       1.0  0.23550  0.54030  0.39880  1.0000 0.1293417108
H   H21       1.0  0.54030  0.39880  0.23550  1.0000 0.1293417108
H   H22       1.0  0.60120  0.76450  0.45970  1.0000 0.1293417108
H   H23       1.0  0.76450  0.45970  0.60120  1.0000 0.1293417108
H   H24       1.0  0.45970  0.60120  0.76450  1.0000 0.1293417108
H   H25       1.0  0.22960  0.83270  0.19760  1.0000 0.34744826
H   H26       1.0  0.83270  0.19760  0.22960  1.0000 0.34744826
H   H27       1.0  0.19760  0.22960  0.83270  1.0000 0.34744826
H   H28       1.0  0.77040  0.16730  0.80240  1.0000 0.34744826
H   H29       1.0  0.16730  0.80240  0.77040  1.0000 0.34744826
H   H30       1.0  0.80240  0.77040  0.16730  1.0000 0.34744826
H   H31       1.0  0.55140  0.30710  0.97880  1.0000 0.302697808
H   H32       1.0  0.30710  0.97880  0.55140  1.0000 0.3051589665
H   H33       1.0  0.97880  0.55140  0.30710  1.0000 0.3051589665
H   H34       1.0  0.44860  0.69290  0.02120  1.0000 0.3051589665
H   H35       1.0  0.69290  0.02120  0.44860  1.0000 0.302697808
H   H36       1.0  0.02120  0.44860  0.69290  1.0000 0.3051589665
H   H37       1.0  0.49080  0.08290  0.76860  1.0000 0.3051589665
H   H38       1.0  0.08290  0.76860  0.49080  1.0000 0.3051589665
H   H39       1.0  0.76860  0.49080  0.08290  1.0000 0.3051589665
H   H40       1.0  0.50920  0.91710  0.23140  1.0000 0.3051589665
H   H41       1.0  0.91710  0.23140  0.50920  1.0000 0.302697808
H   H42       1.0  0.23140  0.50920  0.91710  1.0000 0.3051589665
H   H43       1.0  0.04970  0.67610  0.99530  1.0000 0.2834853683
H   H44       1.0  0.67610  0.99530  0.04970  1.0000 0.2834853683
H   H45       1.0  0.99530  0.04970  0.67610  1.0000 0.2834853683
H   H46       1.0  0.95030  0.32390  0.00470  1.0000 0.2834853683
H   H47       1.0  0.32390  0.00470  0.95030  1.0000 0.2834853683
H   H48       1.0  0.00470  0.95030  0.32390  1.0000 0.2834853683
H   H49       1.0  0.54460  0.14800  0.75140  1.0000 0.2368944589
H   H50       1.0  0.14800  0.75140  0.54460  1.0000 0.2368944589
H   H51       1.0  0.75140  0.54460  0.14800  1.0000 0.2368944589
H   H52       1.0  0.45540  0.85200  0.24860  1.0000 0.2368944589
H   H53       1.0  0.85200  0.24860  0.45540  1.0000 0.2368944589
H   H54       1.0  0.24860  0.45540  0.85200  1.0000 0.2368944589
H   H55       1.0  0.14800  0.70600  0.05400  1.0000 0.2879274839
H   H56       1.0  0.70600  0.05400  0.14800  1.0000 0.2879274839
H   H57       1.0  0.05400  0.14800  0.70600  1.0000 0.2879274839
H   H58       1.0  0.85200  0.29400  0.94600  1.0000 0.2879274839
H   H59       1.0  0.29400  0.94600  0.85200  1.0000 0.2879274839
H   H60       1.0  0.94600  0.85200  0.29400  1.0000 0.2879274839
H   H61       1.0  0.45000  0.23600  0.92300  1.0000 0.2879274839
H   H62       1.0  0.23600  0.92300  0.45000  1.0000 0.2879274839
H   H63       1.0  0.92300  0.45000  0.23600  1.0000 0.2879274839
H   H64       1.0  0.55000  0.76400  0.07700  1.0000 0.2879274839
H   H65       1.0  0.76400  0.07700  0.55000  1.0000 0.2879274839
H   H66       1.0  0.07700  0.55000  0.76400  1.0000 0.2879274839
C   C1        1.0  0.57563  0.22790  0.59607  1.0000 0.3226178889
C   C2        1.0  0.22790  0.59607  0.57563  1.0000 0.3226178889
C   C3        1.0  0.59607  0.57563  0.22790  1.0000 0.3226178889
C   C4        1.0  0.42437  0.77210  0.40393  1.0000 0.3226178889
C   C5        1.0  0.77210  0.40393  0.42437  1.0000 0.3226178889
C   C6        1.0  0.40393  0.42437  0.77210  1.0000 0.3226178889
C   C7        1.0  0.46223  0.14890  0.49237  1.0000 0.0584630598
C   C8        1.0  0.14890  0.49237  0.46223  1.0000 0.0584630598
C   C9        1.0  0.49237  0.46223  0.14890  1.0000 0.0584630598
C   C10       1.0  0.53777  0.85110  0.50763  1.0000 0.0584630598
C   C11       1.0  0.85110  0.50763  0.53777  1.0000 0.0584630598
C   C12       1.0  0.50763  0.53777  0.85110  1.0000 0.0584630598
C   C13       1.0  0.75270  0.41970  0.89020  1.0000 0.5642176721
C   C14       1.0  0.41970  0.89020  0.75270  1.0000 0.5642176721
C   C15       1.0  0.89020  0.75270  0.41970  1.0000 0.5642176721
C   C16       1.0  0.24730  0.58030  0.10980  1.0000 0.5642176721
C   C17       1.0  0.58030  0.10980  0.24730  1.0000 0.5642176721
C   C18       1.0  0.10980  0.24730  0.58030  1.0000 0.5642176721
C   C19       1.0  0.70771  0.34844  0.77035  1.0000 -0.0002295607
C   C20       1.0  0.34844  0.77035  0.70771  1.0000 -0.0002295607
C   C21       1.0  0.77035  0.70771  0.34844  1.0000 -0.0002295607
C   C22       1.0  0.29229  0.65156  0.22965  1.0000 -0.0002295607
C   C23       1.0  0.65156  0.22965  0.29229  1.0000 -0.0002295607
C   C24       1.0  0.22965  0.29229  0.65156  1.0000 -0.0002295607
C   C25       1.0  0.24620  0.00010  0.30160  1.0000 -0.2300531935
C   C26       1.0  0.00010  0.30160  0.24620  1.0000 -0.2300531935
C   C27       1.0  0.30160  0.24620  0.00010  1.0000 -0.2300531935
C   C28       1.0  0.75380  0.99990  0.69840  1.0000 -0.2300531935
C   C29       1.0  0.99990  0.69840  0.75380  1.0000 -0.2300531935
C   C30       1.0  0.69840  0.75380  0.99990  1.0000 -0.2300531935
C   C31       1.0  0.43410  0.05020  0.40590  1.0000 -0.2300531935
C   C32       1.0  0.05020  0.40590  0.43410  1.0000 -0.2300531935
C   C33       1.0  0.40590  0.43410  0.05020  1.0000 -0.2300531935
C   C34       1.0  0.56590  0.94980  0.59410  1.0000 -0.2300531935
C   C35       1.0  0.94980  0.59410  0.56590  1.0000 -0.2300531935
C   C36       1.0  0.59410  0.56590  0.94980  1.0000 -0.2300531935
C   C37       1.0  0.32670  0.97620  0.31160  1.0000 0.302697808
C   C38       1.0  0.97620  0.31160  0.32670  1.0000 0.302697808
C   C39       1.0  0.31160  0.32670  0.97620  1.0000 0.302697808
C   C40       1.0  0.67330  0.02380  0.68840  1.0000 0.302697808
C   C41       1.0  0.02380  0.68840  0.67330  1.0000 0.302697808
C   C42       1.0  0.68840  0.67330  0.02380  1.0000 0.302697808
C   C43       1.0  0.27250  0.09510  0.38580  1.0000 -0.0666125475
C   C44       1.0  0.09510  0.38580  0.27250  1.0000 -0.0666125475
C   C45       1.0  0.38580  0.27250  0.09510  1.0000 -0.0666125475
C   C46       1.0  0.72750  0.90490  0.61420  1.0000 -0.0666125475
C   C47       1.0  0.90490  0.61420  0.72750  1.0000 -0.0666125475
C   C48       1.0  0.61420  0.72750  0.90490  1.0000 -0.0666125475
C   C49       1.0  0.38130  0.17060  0.48260  1.0000 -0.1361525973
C   C50       1.0  0.17060  0.48260  0.38130  1.0000 -0.1361525973
C   C51       1.0  0.48260  0.38130  0.17060  1.0000 -0.1361525973
C   C52       1.0  0.61870  0.82940  0.51740  1.0000 -0.1361525973
C   C53       1.0  0.82940  0.51740  0.61870  1.0000 -0.1361525973
C   C54       1.0  0.51740  0.61870  0.82940  1.0000 -0.1361525973
C   C55       1.0  0.75473  0.33116  0.70941  1.0000 -0.0091455661
C   C56       1.0  0.33116  0.70941  0.75473  1.0000 -0.0091455661
C   C57       1.0  0.70941  0.75473  0.33116  1.0000 -0.0091455661
C   C58       1.0  0.24527  0.66884  0.29059  1.0000 -0.0091455661
C   C59       1.0  0.66884  0.29059  0.24527  1.0000 -0.0091455661
C   C60       1.0  0.29059  0.24527  0.66884  1.0000 -0.0091455661
C   C61       1.0  0.87001  0.37560  0.73809  1.0000 0.5642176721
C   C62       1.0  0.37560  0.73809  0.87001  1.0000 0.5642176721
C   C63       1.0  0.73809  0.87001  0.37560  1.0000 0.5642176721
C   C64       1.0  0.12999  0.62440  0.26191  1.0000 0.5642176721
C   C65       1.0  0.62440  0.26191  0.12999  1.0000 0.5642176721
C   C66       1.0  0.26191  0.12999  0.62440  1.0000 0.5642176721
N   N1        1.0  0.59330  0.28176  0.69734  1.0000 -0.4008374707
N   N2        1.0  0.28176  0.69734  0.59330  1.0000 -0.4008374707
N   N3        1.0  0.69734  0.59330  0.28176  1.0000 -0.4008374707
N   N4        1.0  0.40670  0.71824  0.30266  1.0000 -0.4008374707
N   N5        1.0  0.71824  0.30266  0.40670  1.0000 -0.4008374707
N   N6        1.0  0.30266  0.40670  0.71824  1.0000 -0.4008374707
N   N7        1.0  0.66937  0.25400  0.59833  1.0000 -0.3704659637
N   N8        1.0  0.25400  0.59833  0.66937  1.0000 -0.3704659637
N   N9        1.0  0.59833  0.66937  0.25400  1.0000 -0.3704659637
N   N10       1.0  0.33063  0.74600  0.40167  1.0000 -0.3704659637
N   N11       1.0  0.74600  0.40167  0.33063  1.0000 -0.3704659637
N   N12       1.0  0.40167  0.33063  0.74600  1.0000 -0.3704659637
O   O1        1.0  0.68302  0.40191  0.91656  1.0000 -0.4926557189
O   O2        1.0  0.40191  0.91656  0.68302  1.0000 -0.4926557189
O   O3        1.0  0.91656  0.68302  0.40191  1.0000 -0.4926557189
O   O4        1.0  0.31698  0.59809  0.08344  1.0000 -0.4926557189
O   O5        1.0  0.59809  0.08344  0.31698  1.0000 -0.4926557189
O   O6        1.0  0.08344  0.31698  0.59809  1.0000 -0.4926557189
O   O7        1.0  0.85406  0.49590  0.96044  1.0000 -0.5404548492
O   O8        1.0  0.49590  0.96044  0.85406  1.0000 -0.5404548492
O   O9        1.0  0.96044  0.85406  0.49590  1.0000 -0.5404548492
O   O10       1.0  0.14594  0.50410  0.03956  1.0000 -0.5404548492
O   O11       1.0  0.50410  0.03956  0.14594  1.0000 -0.5404548492
O   O12       1.0  0.03956  0.14594  0.50410  1.0000 -0.5404548492
O   O13       1.0  0.95346  0.44300  0.83594  1.0000 -0.5404548492
O   O14       1.0  0.44300  0.83594  0.95346  1.0000 -0.5404548492
O   O15       1.0  0.83594  0.95346  0.44300  1.0000 -0.5404548492
O   O16       1.0  0.04654  0.55700  0.16406  1.0000 -0.5404548492
O   O17       1.0  0.55700  0.16406  0.04654  1.0000 -0.5404548492
O   O18       1.0  0.16406  0.04654  0.55700  1.0000 -0.5404548492
O   O19       1.0  0.29420  0.88100  0.22480  1.0000 -0.4008374707
O   O20       1.0  0.88100  0.22480  0.29420  1.0000 -0.4008374707
O   O21       1.0  0.22480  0.29420  0.88100  1.0000 -0.4008374707
O   O22       1.0  0.70580  0.11900  0.77520  1.0000 -0.4008374707
O   O23       1.0  0.11900  0.77520  0.70580  1.0000 -0.4008374707
O   O24       1.0  0.77520  0.70580  0.11900  1.0000 -0.4008374707
O   O25       1.0  0.87955  0.33889  0.65636  1.0000 -0.5189115898
O   O26       1.0  0.33889  0.65636  0.87955  1.0000 -0.5189115898
O   O27       1.0  0.65636  0.87955  0.33889  1.0000 -0.5189115898
O   O28       1.0  0.12045  0.66111  0.34364  1.0000 -0.5189115898
O   O29       1.0  0.66111  0.34364  0.12045  1.0000 -0.5189115898
O   O30       1.0  0.34364  0.12045  0.66111  1.0000 -0.5189115898
O   O31       1.0  0.49485  0.29280  0.92815  1.0000 -0.6253205037
O   O32       1.0  0.29280  0.92815  0.49485  1.0000 -0.6253205037
O   O33       1.0  0.92815  0.49485  0.29280  1.0000 -0.6253205037
O   O34       1.0  0.50515  0.70720  0.07185  1.0000 -0.6253205037
O   O35       1.0  0.70720  0.07185  0.50515  1.0000 -0.6253205037
O   O36       1.0  0.07185  0.50515  0.70720  1.0000 -0.6253205037
O   O37       1.0  0.54882  0.14518  0.80760  1.0000 -0.6208479698
O   O38       1.0  0.14518  0.80760  0.54882  1.0000 -0.6208479698
O   O39       1.0  0.80760  0.54882  0.14518  1.0000 -0.6208479698
O   O40       1.0  0.45118  0.85482  0.19240  1.0000 -0.6208479698
O   O41       1.0  0.85482  0.19240  0.45118  1.0000 -0.6208479698
O   O42       1.0  0.19240  0.45118  0.85482  1.0000 -0.6208479698
O   O43       1.0  0.08510  0.67300  0.04700  1.0000 -0.6483756598
O   O44       1.0  0.67300  0.04700  0.08510  1.0000 -0.6483756598
O   O45       1.0  0.04700  0.08510  0.67300  1.0000 -0.6483756598
O   O46       1.0  0.91490  0.32700  0.95300  1.0000 -0.6483756598
O   O47       1.0  0.32700  0.95300  0.91490  1.0000 -0.6483756598
O   O48       1.0  0.95300  0.91490  0.32700  1.0000 -0.6483756598
