# DDEC6 charges by PACMAN v1.1 (https://github.com/mtap-research/PACMAN-charge/)
data_2016[Cu][tfw]2[FSR]3
_chemical_formula_sum              "Cu4 H28 C34 N20 O8"
_cell_length_a       14.0394
_cell_length_b       14.0394
_cell_length_c       9.3295
_cell_angle_alpha    77.6312
_cell_angle_beta     102.369
_cell_angle_gamma    141.457

_symmetry_space_group_name_H-M    "P 1"
_symmetry_Int_Tables_number       1

loop_
  _symmetry_equiv_pos_as_xyz
  'x, y, z'

loop_
  _atom_site_type_symbol
  _atom_site_label
  _atom_site_symmetry_multiplicity
  _atom_site_fract_x
  _atom_site_fract_y
  _atom_site_fract_z
  _atom_site_occupancy
  _atom_site_charge
Cu  Cu1       1.0  0.64288  0.01852  0.93806  1.0000 0.6171595681
Cu  Cu2       1.0  0.01852  0.64288  0.56194  1.0000 0.6171595681
Cu  Cu3       1.0  0.35712  0.98148  0.06194  1.0000 0.6171595681
Cu  Cu4       1.0  0.98148  0.35712  0.43806  1.0000 0.6171595681
H   H1        1.0  0.70665  0.93521  0.18016  1.0000 0.1094340313
H   H2        1.0  0.93521  0.70665  0.31984  1.0000 0.1094340313
H   H3        1.0  0.29335  0.06479  0.81984  1.0000 0.1094340313
H   H4        1.0  0.06479  0.29335  0.68016  1.0000 0.1094340313
H   H5        1.0  0.63969  0.74159  0.34495  1.0000 0.1467313956
H   H6        1.0  0.74159  0.63969  0.15505  1.0000 0.1467313956
H   H7        1.0  0.36031  0.25841  0.65505  1.0000 0.1467313956
H   H8        1.0  0.25841  0.36031  0.84495  1.0000 0.1467313956
H   H9        1.0  0.23360  0.43022  0.09543  1.0000 0.1467313956
H   H10       1.0  0.43022  0.23360  0.40457  1.0000 0.1467313956
H   H11       1.0  0.76640  0.56978  0.90457  1.0000 0.1467313956
H   H12       1.0  0.56978  0.76640  0.59543  1.0000 0.1467313956
H   H13       1.0  0.31416  0.63440  0.93870  1.0000 0.1094340313
H   H14       1.0  0.63440  0.31416  0.56130  1.0000 0.1094340313
H   H15       1.0  0.68584  0.36560  0.06130  1.0000 0.1094340313
H   H16       1.0  0.36560  0.68584  0.43870  1.0000 0.1094340313
H   H17       1.0  0.30326  0.39294  0.39826  1.0000 0.1311807729
H   H18       1.0  0.39294  0.30326  0.10174  1.0000 0.1311807729
H   H19       1.0  0.69674  0.60706  0.60174  1.0000 0.1311807729
H   H20       1.0  0.60706  0.69674  0.89826  1.0000 0.1311807729
H   H21       1.0  0.46674  0.47439  0.40101  1.0000 0.1001076031
H   H22       1.0  0.47439  0.46674  0.09899  1.0000 0.1001076031
H   H23       1.0  0.53326  0.52562  0.59899  1.0000 0.1001076031
H   H24       1.0  0.52562  0.53326  0.90101  1.0000 0.1001076031
H   H25       1.0  0.22936  0.27844  0.18472  1.0000 0.1094340313
H   H26       1.0  0.27844  0.22936  0.31528  1.0000 0.1094340313
H   H27       1.0  0.77064  0.72156  0.81528  1.0000 0.1094340313
H   H28       1.0  0.72156  0.77064  0.68472  1.0000 0.1094340313
C   C1        1.0  0.93930  0.23790  0.19200  1.0000 0.524535172
C   C2        1.0  0.23790  0.93930  0.30800  1.0000 0.5250474739
C   C3        1.0  0.06070  0.76210  0.80800  1.0000 0.5250474739
C   C4        1.0  0.76210  0.06070  0.69200  1.0000 0.5250474739
C   C5        1.0  0.79570  0.18170  0.19800  1.0000 0.1311807729
C   C6        1.0  0.18170  0.79570  0.30200  1.0000 0.1311807729
C   C7        1.0  0.20430  0.81830  0.80200  1.0000 0.1311807729
C   C8        1.0  0.81830  0.20430  0.69800  1.0000 0.1311807729
C   C9        1.0  0.60880  0.83040  0.16310  1.0000 0.0767054635
C   C10       1.0  0.83040  0.60880  0.33690  1.0000 0.0767054635
C   C11       1.0  0.39120  0.16960  0.83690  1.0000 0.0767054635
C   C12       1.0  0.16960  0.39120  0.66310  1.0000 0.0767054635
C   C13       1.0  0.57090  0.71690  0.26200  1.0000 -0.2032570702
C   C14       1.0  0.71690  0.57090  0.23800  1.0000 -0.2032570702
C   C15       1.0  0.42910  0.28310  0.73800  1.0000 -0.2032570702
C   C16       1.0  0.28310  0.42910  0.76200  1.0000 -0.2032570702
C   C17       1.0  0.42887  0.56573  0.23564  1.0000 0.1708565767
C   C18       1.0  0.56573  0.42887  0.26436  1.0000 0.1708565767
C   C19       1.0  0.57113  0.43427  0.76436  1.0000 0.1708565767
C   C20       1.0  0.43427  0.57113  0.73564  1.0000 0.1708565767
C   C21       1.0  0.33200  0.53400  0.11480  1.0000 -0.1850992214
C   C22       1.0  0.53400  0.33200  0.38520  1.0000 -0.1850992214
C   C23       1.0  0.66800  0.46600  0.88520  1.0000 -0.1850992214
C   C24       1.0  0.46600  0.66800  0.61480  1.0000 -0.1850992214
C   C25       1.0  0.38100  0.65620  0.02240  1.0000 0.1001076031
C   C26       1.0  0.65620  0.38100  0.47760  1.0000 0.1001076031
C   C27       1.0  0.61900  0.34380  0.97760  1.0000 0.1001076031
C   C28       1.0  0.34380  0.61900  0.52240  1.0000 0.1001076031
C   C29       1.0  0.37963  0.43597  0.33872  1.0000 -0.2509902638
C   C30       1.0  0.43597  0.37963  0.16128  1.0000 -0.2509902638
C   C31       1.0  0.62037  0.56403  0.66128  1.0000 -0.2509902638
C   C32       1.0  0.56403  0.62037  0.83872  1.0000 -0.2509902638
C   C33       1.0  0.31370  0.31370  0.25000  1.0000 -0.1318760735
C   C34       1.0  0.68630  0.68630  0.75000  1.0000 -0.1318760735
N   N1        1.0  0.78920  0.22840  0.30060  1.0000 -0.2032570702
N   N2        1.0  0.22840  0.78920  0.19940  1.0000 -0.2032570702
N   N3        1.0  0.21080  0.77160  0.69940  1.0000 -0.2082823437
N   N4        1.0  0.77160  0.21080  0.80060  1.0000 -0.2082823437
N   N5        1.0  0.64940  0.16120  0.28100  1.0000 -0.0547475514
N   N6        1.0  0.16120  0.64940  0.21900  1.0000 -0.0547475514
N   N7        1.0  0.35060  0.83880  0.71900  1.0000 -0.0547475514
N   N8        1.0  0.83880  0.35060  0.78100  1.0000 -0.0547475514
N   N9        1.0  0.57530  0.07630  0.16750  1.0000 -0.0702077408
N   N10       1.0  0.07630  0.57530  0.33250  1.0000 -0.0702077408
N   N11       1.0  0.42470  0.92370  0.83250  1.0000 -0.0702077408
N   N12       1.0  0.92370  0.42470  0.66750  1.0000 -0.0702077408
N   N13       1.0  0.66520  0.08800  0.11490  1.0000 -0.2032570702
N   N14       1.0  0.08800  0.66520  0.38510  1.0000 -0.2032570702
N   N15       1.0  0.33480  0.91200  0.88510  1.0000 -0.2032570702
N   N16       1.0  0.91200  0.33480  0.61490  1.0000 -0.2032570702
N   N17       1.0  0.51780  0.80380  0.04480  1.0000 -0.2082823437
N   N18       1.0  0.80380  0.51780  0.45520  1.0000 -0.2082823437
N   N19       1.0  0.48220  0.19620  0.95520  1.0000 -0.2082823437
N   N20       1.0  0.19620  0.48220  0.54480  1.0000 -0.2082823437
O   O1        1.0  0.94480  0.20120  0.08850  1.0000 -0.5259614211
O   O2        1.0  0.20120  0.94480  0.41150  1.0000 -0.5259614211
O   O3        1.0  0.05520  0.79880  0.91150  1.0000 -0.5259614211
O   O4        1.0  0.79880  0.05520  0.58850  1.0000 -0.5259614211
O   O5        1.0  0.04090  0.31890  0.29620  1.0000 -0.5004722175
O   O6        1.0  0.31890  0.04090  0.20380  1.0000 -0.5004722175
O   O7        1.0  0.95910  0.68110  0.70380  1.0000 -0.5004722175
O   O8        1.0  0.68110  0.95910  0.79620  1.0000 -0.5004722175
