# DDEC6 charges by PACMAN v1.1 (https://github.com/mtap-research/PACMAN-charge/)
data_2016[Fe][nan]3[FSR]3
_chemical_formula_sum              "Fe6 H18 C42 O18"
_cell_length_a       21.823
_cell_length_b       21.823
_cell_length_c       6.8695
_cell_angle_alpha    90
_cell_angle_beta     90
_cell_angle_gamma    120

_symmetry_space_group_name_H-M    "P 1"
_symmetry_Int_Tables_number       1

loop_
  _symmetry_equiv_pos_as_xyz
  'x, y, z'

loop_
  _atom_site_type_symbol
  _atom_site_label
  _atom_site_symmetry_multiplicity
  _atom_site_fract_x
  _atom_site_fract_y
  _atom_site_fract_z
  _atom_site_occupancy
  _atom_site_charge
Fe  Fe1       1.0  0.61380  0.28170  0.14290  1.0000 0.8719800384
Fe  Fe2       1.0  0.71830  0.33210  0.80957  1.0000 0.8719800384
Fe  Fe3       1.0  0.66790  0.38620  0.47623  1.0000 0.8719800384
Fe  Fe4       1.0  0.28170  0.61380  0.85710  1.0000 0.8719800384
Fe  Fe5       1.0  0.38620  0.66790  0.52377  1.0000 0.8719800384
Fe  Fe6       1.0  0.33210  0.71830  0.19043  1.0000 0.8719800384
H   H1        1.0  0.54700  0.08980  0.46940  1.0000 0.1167665754
H   H2        1.0  0.91020  0.45720  0.13607  1.0000 0.1167665754
H   H3        1.0  0.54280  0.45300  0.80273  1.0000 0.1167665754
H   H4        1.0  0.08980  0.54700  0.53060  1.0000 0.1167665754
H   H5        1.0  0.45300  0.54280  0.19727  1.0000 0.1167665754
H   H6        1.0  0.45720  0.91020  0.86393  1.0000 0.1167665754
H   H7        1.0  0.55380  0.00670  0.98810  1.0000 0.1051738979
H   H8        1.0  0.99330  0.54710  0.65477  1.0000 0.1051738979
H   H9        1.0  0.45290  0.44620  0.32143  1.0000 0.1051738979
H   H10       1.0  0.00670  0.55380  0.01190  1.0000 0.1051738979
H   H11       1.0  0.44620  0.45290  0.67857  1.0000 0.1047437684
H   H12       1.0  0.54710  0.99330  0.34523  1.0000 0.1051738979
H   H13       1.0  0.60700  0.11820  0.12620  1.0000 0.139601347
H   H14       1.0  0.88180  0.48880  0.79287  1.0000 0.139601347
H   H15       1.0  0.51120  0.39300  0.45953  1.0000 0.139601347
H   H16       1.0  0.11820  0.60700  0.87380  1.0000 0.139601347
H   H17       1.0  0.39300  0.51120  0.54047  1.0000 0.139601347
H   H18       1.0  0.48880  0.88180  0.20713  1.0000 0.139601347
C   C1        1.0  0.61380  0.17440  0.87870  1.0000 0.3506205302
C   C2        1.0  0.82560  0.43940  0.54537  1.0000 0.3506205302
C   C3        1.0  0.56060  0.38620  0.21203  1.0000 0.3506205302
C   C4        1.0  0.17440  0.61380  0.12130  1.0000 0.3506205302
C   C5        1.0  0.38620  0.56060  0.78797  1.0000 0.3506205302
C   C6        1.0  0.43940  0.82560  0.45463  1.0000 0.3506205302
C   C7        1.0  0.59400  0.16490  0.68100  1.0000 -0.1962161316
C   C8        1.0  0.83510  0.42910  0.34767  1.0000 -0.1962161316
C   C9        1.0  0.57090  0.40600  0.01433  1.0000 -0.1962161316
C   C10       1.0  0.16490  0.59400  0.31900  1.0000 -0.1962161316
C   C11       1.0  0.40600  0.57090  0.98567  1.0000 -0.1962161316
C   C12       1.0  0.42910  0.83510  0.65233  1.0000 -0.1962161316
C   C13       1.0  0.56020  0.09580  0.60290  1.0000 -0.1399625345
C   C14       1.0  0.90420  0.46440  0.26957  1.0000 -0.1399625345
C   C15       1.0  0.53560  0.43980  0.93623  1.0000 -0.1399625345
C   C16       1.0  0.09580  0.56020  0.39710  1.0000 -0.1399625345
C   C17       1.0  0.43980  0.53560  0.06377  1.0000 -0.1399625345
C   C18       1.0  0.46440  0.90420  0.73043  1.0000 -0.1399625345
C   C19       1.0  0.54490  0.03550  0.71050  1.0000 0.0590096199
C   C20       1.0  0.96450  0.50940  0.37717  1.0000 0.0590096199
C   C21       1.0  0.49060  0.45510  0.04383  1.0000 0.0590096199
C   C22       1.0  0.03550  0.54490  0.28950  1.0000 0.0590096199
C   C23       1.0  0.45510  0.49060  0.95617  1.0000 0.0590096199
C   C24       1.0  0.50940  0.96450  0.62283  1.0000 0.0590096199
C   C25       1.0  0.56380  0.04650  0.90890  1.0000 -0.1181936181
C   C26       1.0  0.95350  0.51730  0.57557  1.0000 -0.1181936181
C   C27       1.0  0.48270  0.43620  0.24223  1.0000 -0.1181936181
C   C28       1.0  0.04650  0.56380  0.09110  1.0000 -0.1181936181
C   C29       1.0  0.43620  0.48270  0.75777  1.0000 -0.1181936181
C   C30       1.0  0.51730  0.95350  0.42443  1.0000 -0.1181936181
C   C31       1.0  0.59620  0.11320  0.99110  1.0000 -0.2291107604
C   C32       1.0  0.88680  0.48300  0.65777  1.0000 -0.2291107604
C   C33       1.0  0.51700  0.40380  0.32443  1.0000 -0.2291107604
C   C34       1.0  0.11320  0.59620  0.00890  1.0000 -0.2291107604
C   C35       1.0  0.40380  0.51700  0.67557  1.0000 -0.2291107604
C   C36       1.0  0.48300  0.88680  0.34223  1.0000 -0.2291107604
C   C37       1.0  0.60500  0.22290  0.54810  1.0000 0.5984300446
C   C38       1.0  0.77710  0.38210  0.21477  1.0000 0.5984300446
C   C39       1.0  0.61790  0.39500  0.88143  1.0000 0.5984300446
C   C40       1.0  0.22290  0.60500  0.45190  1.0000 0.5984300446
C   C41       1.0  0.39500  0.61790  0.11857  1.0000 0.5984300446
C   C42       1.0  0.38210  0.77710  0.78523  1.0000 0.5984300446
O   O1        1.0  0.65260  0.23800  0.94700  1.0000 -0.5668350387
O   O2        1.0  0.76200  0.41460  0.61367  1.0000 -0.5668350387
O   O3        1.0  0.58540  0.34740  0.28033  1.0000 -0.5668350387
O   O4        1.0  0.23800  0.65260  0.05300  1.0000 -0.5668350387
O   O5        1.0  0.34740  0.58540  0.71967  1.0000 -0.5668350387
O   O6        1.0  0.41460  0.76200  0.38633  1.0000 -0.5668350387
O   O7        1.0  0.63530  0.28190  0.59200  1.0000 -0.471268453
O   O8        1.0  0.71810  0.35340  0.25867  1.0000 -0.471268453
O   O9        1.0  0.64660  0.36470  0.92533  1.0000 -0.471268453
O   O10       1.0  0.28190  0.63530  0.40800  1.0000 -0.471268453
O   O11       1.0  0.36470  0.64660  0.07467  1.0000 -0.471268453
O   O12       1.0  0.35340  0.71810  0.74133  1.0000 -0.471268453
O   O13       1.0  0.58120  0.20690  0.37300  1.0000 -0.5199238289
O   O14       1.0  0.79310  0.37430  0.03967  1.0000 -0.5199238289
O   O15       1.0  0.62570  0.41880  0.70633  1.0000 -0.5199238289
O   O16       1.0  0.20690  0.58120  0.62700  1.0000 -0.5199238289
O   O17       1.0  0.41880  0.62570  0.29367  1.0000 -0.5199238289
O   O18       1.0  0.37430  0.79310  0.96033  1.0000 -0.5199238289
