# DDEC6 charges by PACMAN v1.1 (https://github.com/mtap-research/PACMAN-charge/)
data_2016[Er][ant]3[FSR]1
_chemical_formula_sum              "Er2 H28 C40 N10 O14"
_cell_length_a       11.8895
_cell_length_b       11.8895
_cell_length_c       9.806
_cell_angle_alpha    70.8443
_cell_angle_beta     109.156
_cell_angle_gamma    112.835

_symmetry_space_group_name_H-M    "P 1"
_symmetry_Int_Tables_number       1

loop_
  _symmetry_equiv_pos_as_xyz
  'x, y, z'

loop_
  _atom_site_type_symbol
  _atom_site_label
  _atom_site_symmetry_multiplicity
  _atom_site_fract_x
  _atom_site_fract_y
  _atom_site_fract_z
  _atom_site_occupancy
  _atom_site_charge
Er  Er1       1.0  0.94126  0.94126  0.25000  1.0000 1.9487772131
Er  Er2       1.0  0.05874  0.05874  0.75000  1.0000 1.9487772131
H   H1        1.0  0.29080  0.10720  0.09460  1.0000 0.2697456324
H   H2        1.0  0.10720  0.29080  0.40540  1.0000 0.2697456324
H   H3        1.0  0.70920  0.89280  0.90540  1.0000 0.2697456324
H   H4        1.0  0.89280  0.70920  0.59460  1.0000 0.2697456324
H   H5        1.0  0.65890  0.08190  0.18170  1.0000 0.116967569
H   H6        1.0  0.08190  0.65890  0.31830  1.0000 0.116967569
H   H7        1.0  0.34110  0.91810  0.81830  1.0000 0.116967569
H   H8        1.0  0.91810  0.34110  0.68170  1.0000 0.116967569
H   H9        1.0  0.43830  0.19830  0.29960  1.0000 0.1125542739
H   H10       1.0  0.19830  0.43830  0.20040  1.0000 0.1125542739
H   H11       1.0  0.56170  0.80170  0.70040  1.0000 0.1125542739
H   H12       1.0  0.80170  0.56170  0.79960  1.0000 0.1125542739
H   H13       1.0  0.56370  0.18490  0.53580  1.0000 0.116967569
H   H14       1.0  0.18490  0.56370  0.96420  1.0000 0.116967569
H   H15       1.0  0.43630  0.81510  0.46420  1.0000 0.116967569
H   H16       1.0  0.81510  0.43630  0.03580  1.0000 0.116967569
H   H17       1.0  0.74390  0.13150  0.59270  1.0000 0.116967569
H   H18       1.0  0.13150  0.74390  0.90730  1.0000 0.116967569
H   H19       1.0  0.25610  0.86850  0.40730  1.0000 0.116967569
H   H20       1.0  0.86850  0.25610  0.09270  1.0000 0.116967569
H   H21       1.0  0.57070  0.20450  0.91580  1.0000 0.1426255399
H   H22       1.0  0.20450  0.57070  0.58420  1.0000 0.1426255399
H   H23       1.0  0.42930  0.79550  0.08420  1.0000 0.1426255399
H   H24       1.0  0.79550  0.42930  0.41580  1.0000 0.1426255399
H   H25       1.0  0.37530  0.19850  0.72100  1.0000 0.116967569
H   H26       1.0  0.19850  0.37530  0.77900  1.0000 0.116967569
H   H27       1.0  0.62470  0.80150  0.27900  1.0000 0.116967569
H   H28       1.0  0.80150  0.62470  0.22100  1.0000 0.116967569
C   C1        1.0  0.83330  0.06130  0.43080  1.0000 0.6554963136
C   C2        1.0  0.06130  0.83330  0.06920  1.0000 0.6554963136
C   C3        1.0  0.16670  0.93870  0.56920  1.0000 0.6554963136
C   C4        1.0  0.93870  0.16670  0.93080  1.0000 0.6554963136
C   C5        1.0  0.71860  0.10040  0.39190  1.0000 -0.0281658663
C   C6        1.0  0.10040  0.71860  0.10810  1.0000 -0.0281658663
C   C7        1.0  0.28140  0.89960  0.60810  1.0000 -0.0281658663
C   C8        1.0  0.89960  0.28140  0.89190  1.0000 -0.0281658663
C   C9        1.0  0.64080  0.10460  0.25240  1.0000 -0.1543991683
C   C10       1.0  0.10460  0.64080  0.24760  1.0000 -0.1543991683
C   C11       1.0  0.35920  0.89540  0.74760  1.0000 -0.1543991683
C   C12       1.0  0.89540  0.35920  0.75240  1.0000 -0.1543991683
C   C13       1.0  0.53580  0.14220  0.21560  1.0000 0.04413782
C   C14       1.0  0.14220  0.53580  0.28440  1.0000 0.04413782
C   C15       1.0  0.46420  0.85780  0.78440  1.0000 0.04413782
C   C16       1.0  0.85780  0.46420  0.71560  1.0000 0.04413782
C   C17       1.0  0.50860  0.17300  0.32290  1.0000 -0.1369857645
C   C18       1.0  0.17300  0.50860  0.17710  1.0000 -0.1369857645
C   C19       1.0  0.49140  0.82700  0.67710  1.0000 -0.1369857645
C   C20       1.0  0.82700  0.49140  0.82290  1.0000 -0.1369857645
C   C21       1.0  0.58440  0.16640  0.46380  1.0000 -0.086135876
C   C22       1.0  0.16640  0.58440  0.03620  1.0000 -0.086135876
C   C23       1.0  0.41560  0.83360  0.53620  1.0000 -0.086135876
C   C24       1.0  0.83360  0.41560  0.96380  1.0000 -0.086135876
C   C25       1.0  0.69090  0.13270  0.49860  1.0000 -0.1139452016
C   C26       1.0  0.13270  0.69090  0.00140  1.0000 -0.1139452016
C   C27       1.0  0.30910  0.86730  0.50140  1.0000 -0.1139452016
C   C28       1.0  0.86730  0.30910  0.99860  1.0000 -0.1139452016
C   C29       1.0  0.45880  0.15120  0.06330  1.0000 0.1346211725
C   C30       1.0  0.15120  0.45880  0.43670  1.0000 0.1346211725
C   C31       1.0  0.54120  0.84880  0.93670  1.0000 0.1346211725
C   C32       1.0  0.84880  0.54120  0.56330  1.0000 0.1346211725
C   C33       1.0  0.49100  0.18380  0.93050  1.0000 -0.2768909639
C   C34       1.0  0.18380  0.49100  0.56950  1.0000 -0.2768909639
C   C35       1.0  0.50900  0.81620  0.06950  1.0000 -0.2768909639
C   C36       1.0  0.81620  0.50900  0.43050  1.0000 -0.2768909639
C   C37       1.0  0.38070  0.17990  0.82230  1.0000 0.028074466
C   C38       1.0  0.17990  0.38070  0.67770  1.0000 0.028074466
C   C39       1.0  0.61930  0.82010  0.17770  1.0000 0.028074466
C   C40       1.0  0.82010  0.61930  0.32230  1.0000 0.028074466
N   N1        1.0  0.28316  0.14604  0.88190  1.0000 -0.2957149899
N   N2        1.0  0.14604  0.28316  0.61810  1.0000 -0.2957149899
N   N3        1.0  0.71684  0.85396  0.11810  1.0000 -0.2957149899
N   N4        1.0  0.85396  0.71684  0.38190  1.0000 -0.2957149899
N   N5        1.0  0.33381  0.12939  0.02930  1.0000 -0.086135876
N   N6        1.0  0.12939  0.33381  0.47070  1.0000 -0.086135876
N   N7        1.0  0.66619  0.87061  0.97070  1.0000 -0.086135876
N   N8        1.0  0.87061  0.66619  0.52930  1.0000 -0.086135876
N   N9        1.0  0.16340  0.16340  0.25000  1.0000 0.6833787704
N   N10       1.0  0.83660  0.83660  0.75000  1.0000 0.6833787704
O   O1        1.0  0.83462  0.99678  0.35300  1.0000 -0.680077002
O   O2        1.0  0.99678  0.83462  0.14700  1.0000 -0.680077002
O   O3        1.0  0.16538  0.00322  0.64700  1.0000 -0.680077002
O   O4        1.0  0.00322  0.16538  0.85300  1.0000 -0.680077002
O   O5        1.0  0.91955  0.09565  0.53710  1.0000 -0.673313067
O   O6        1.0  0.09565  0.91955  0.96290  1.0000 -0.673313067
O   O7        1.0  0.08045  0.90435  0.46290  1.0000 -0.673313067
O   O8        1.0  0.90435  0.08045  0.03710  1.0000 -0.673313067
O   O9        1.0  0.15359  0.07221  0.20400  1.0000 -0.4614245301
O   O10       1.0  0.07221  0.15359  0.29600  1.0000 -0.4614245301
O   O11       1.0  0.84641  0.92779  0.79600  1.0000 -0.4614245301
O   O12       1.0  0.92779  0.84641  0.70400  1.0000 -0.4614245301
O   O13       1.0  0.25470  0.25470  0.25000  1.0000 -0.3560303605
O   O14       1.0  0.74530  0.74530  0.75000  1.0000 -0.3560303605
