# DDEC6 charges by PACMAN v1.1 (https://github.com/mtap-research/PACMAN-charge/)
data_2016[Zn][nan]3[FSR]16
_chemical_formula_sum              "Zn8 H32 C48 N24 O16"
_cell_length_a       9.5121
_cell_length_b       10.0327
_cell_length_c       25.651
_cell_angle_alpha    90
_cell_angle_beta     90
_cell_angle_gamma    90

_symmetry_space_group_name_H-M    "P 1"
_symmetry_Int_Tables_number       1

loop_
  _symmetry_equiv_pos_as_xyz
  'x, y, z'

loop_
  _atom_site_type_symbol
  _atom_site_label
  _atom_site_symmetry_multiplicity
  _atom_site_fract_x
  _atom_site_fract_y
  _atom_site_fract_z
  _atom_site_occupancy
  _atom_site_charge
Zn  Zn1       1.0  0.07823  0.39245  0.45186  1.0000 0.6681253467
Zn  Zn2       1.0  0.57823  0.10755  0.54814  1.0000 0.6681253467
Zn  Zn3       1.0  0.42177  0.89245  0.04814  1.0000 0.6681253467
Zn  Zn4       1.0  0.92177  0.60755  0.95186  1.0000 0.6681253467
Zn  Zn5       1.0  0.92177  0.60755  0.54814  1.0000 0.6681253467
Zn  Zn6       1.0  0.42177  0.89245  0.45186  1.0000 0.6681253467
Zn  Zn7       1.0  0.57823  0.10755  0.95186  1.0000 0.6681253467
Zn  Zn8       1.0  0.07823  0.39245  0.04814  1.0000 0.6681253467
H   H1        1.0  0.18360  0.10400  0.42450  1.0000 0.1207546628
H   H2        1.0  0.68360  0.39600  0.57550  1.0000 0.1207546628
H   H3        1.0  0.31640  0.60400  0.07550  1.0000 0.1207546628
H   H4        1.0  0.81640  0.89600  0.92450  1.0000 0.1207546628
H   H5        1.0  0.81640  0.89600  0.57550  1.0000 0.1207546628
H   H6        1.0  0.31640  0.60400  0.42450  1.0000 0.1207546628
H   H7        1.0  0.68360  0.39600  0.92450  1.0000 0.1207546628
H   H8        1.0  0.18360  0.10400  0.07550  1.0000 0.1207546628
H   H9        1.0  0.36060  0.34230  0.52250  1.0000 0.1207546628
H   H10       1.0  0.86060  0.15770  0.47750  1.0000 0.1207546628
H   H11       1.0  0.13940  0.84230  0.97750  1.0000 0.1207546628
H   H12       1.0  0.63940  0.65770  0.02250  1.0000 0.1207546628
H   H13       1.0  0.63940  0.65770  0.47750  1.0000 0.1207546628
H   H14       1.0  0.13940  0.84230  0.52250  1.0000 0.1207546628
H   H15       1.0  0.86060  0.15770  0.02250  1.0000 0.1207546628
H   H16       1.0  0.36060  0.34230  0.97750  1.0000 0.1207546628
H   H17       1.0  0.15710  0.42610  0.25000  1.0000 0.1207546628
H   H18       1.0  0.65710  0.07390  0.75000  1.0000 0.1207546628
H   H19       1.0  0.34290  0.92610  0.25000  1.0000 0.1207546628
H   H20       1.0  0.84290  0.57390  0.75000  1.0000 0.1207546628
H   H21       1.0  0.98100  0.12340  0.32760  1.0000 0.1207546628
H   H22       1.0  0.48100  0.37660  0.67240  1.0000 0.1207546628
H   H23       1.0  0.51900  0.62340  0.17240  1.0000 0.1207546628
H   H24       1.0  0.01900  0.87660  0.82760  1.0000 0.1207546628
H   H25       1.0  0.01900  0.87660  0.67240  1.0000 0.1207546628
H   H26       1.0  0.51900  0.62340  0.32760  1.0000 0.1207546628
H   H27       1.0  0.48100  0.37660  0.82760  1.0000 0.1207546628
H   H28       1.0  0.98100  0.12340  0.17240  1.0000 0.1207546628
H   H29       1.0  0.93410  0.01660  0.25000  1.0000 0.1279168953
H   H30       1.0  0.43410  0.48340  0.75000  1.0000 0.1279168953
H   H31       1.0  0.56590  0.51660  0.25000  1.0000 0.1279168953
H   H32       1.0  0.06590  0.98340  0.75000  1.0000 0.1279168953
C   C1        1.0  0.24480  0.13910  0.44920  1.0000 0.1645114749
C   C2        1.0  0.74480  0.36090  0.55080  1.0000 0.1645114749
C   C3        1.0  0.25520  0.63910  0.05080  1.0000 0.1645114749
C   C4        1.0  0.75520  0.86090  0.94920  1.0000 0.1652777423
C   C5        1.0  0.75520  0.86090  0.55080  1.0000 0.1652777423
C   C6        1.0  0.25520  0.63910  0.44920  1.0000 0.1645114749
C   C7        1.0  0.74480  0.36090  0.94920  1.0000 0.1645114749
C   C8        1.0  0.24480  0.13910  0.05080  1.0000 0.1645114749
C   C9        1.0  0.33980  0.26780  0.50230  1.0000 0.1463672597
C   C10       1.0  0.83980  0.23220  0.49770  1.0000 0.1463672597
C   C11       1.0  0.16020  0.76780  0.99770  1.0000 0.1463672597
C   C12       1.0  0.66020  0.73220  0.00230  1.0000 0.1463672597
C   C13       1.0  0.66020  0.73220  0.49770  1.0000 0.1463672597
C   C14       1.0  0.16020  0.76780  0.50230  1.0000 0.1463672597
C   C15       1.0  0.83980  0.23220  0.00230  1.0000 0.1463672597
C   C16       1.0  0.33980  0.26780  0.99770  1.0000 0.1463672597
C   C17       1.0  0.10030  0.35460  0.34850  1.0000 0.5540421088
C   C18       1.0  0.60030  0.14540  0.65150  1.0000 0.5540421088
C   C19       1.0  0.39970  0.85460  0.15150  1.0000 0.5540421088
C   C20       1.0  0.89970  0.64540  0.84850  1.0000 0.5540421088
C   C21       1.0  0.89970  0.64540  0.65150  1.0000 0.5540421088
C   C22       1.0  0.39970  0.85460  0.34850  1.0000 0.5540421088
C   C23       1.0  0.60030  0.14540  0.84850  1.0000 0.5540421088
C   C24       1.0  0.10030  0.35460  0.15150  1.0000 0.5540421088
C   C25       1.0  0.10850  0.34560  0.25000  1.0000 -0.0982018882
C   C26       1.0  0.60850  0.15440  0.75000  1.0000 -0.0982018882
C   C27       1.0  0.39150  0.84560  0.25000  1.0000 -0.0982018882
C   C28       1.0  0.89150  0.65440  0.75000  1.0000 -0.0982018882
C   C29       1.0  0.07210  0.28540  0.29720  1.0000 -0.0202121786
C   C30       1.0  0.57210  0.21460  0.70280  1.0000 -0.0202121786
C   C31       1.0  0.42790  0.78540  0.20280  1.0000 -0.0202121786
C   C32       1.0  0.92790  0.71460  0.79720  1.0000 -0.0202121786
C   C33       1.0  0.92790  0.71460  0.70280  1.0000 -0.0202121786
C   C34       1.0  0.42790  0.78540  0.29720  1.0000 -0.0202121786
C   C35       1.0  0.57210  0.21460  0.79720  1.0000 -0.0202121786
C   C36       1.0  0.07210  0.28540  0.20280  1.0000 -0.0202121786
C   C37       1.0  0.00570  0.16390  0.29630  1.0000 -0.0905175149
C   C38       1.0  0.50570  0.33610  0.70370  1.0000 -0.0905175149
C   C39       1.0  0.49430  0.66390  0.20370  1.0000 -0.0905175149
C   C40       1.0  0.99430  0.83610  0.79630  1.0000 -0.0905175149
C   C41       1.0  0.99430  0.83610  0.70370  1.0000 -0.0905175149
C   C42       1.0  0.49430  0.66390  0.29630  1.0000 -0.0905175149
C   C43       1.0  0.50570  0.33610  0.79630  1.0000 -0.0905175149
C   C44       1.0  0.00570  0.16390  0.20370  1.0000 -0.0905175149
C   C45       1.0  0.97500  0.10080  0.25000  1.0000 -0.0982018882
C   C46       1.0  0.47500  0.39920  0.75000  1.0000 -0.0982018882
C   C47       1.0  0.52500  0.60080  0.25000  1.0000 -0.0982018882
C   C48       1.0  0.02500  0.89920  0.75000  1.0000 -0.0982018882
N   N1        1.0  0.23070  0.26150  0.46910  1.0000 -0.3194015991
N   N2        1.0  0.73070  0.23850  0.53090  1.0000 -0.3194015991
N   N3        1.0  0.26930  0.76150  0.03090  1.0000 -0.3194015991
N   N4        1.0  0.76930  0.73850  0.96910  1.0000 -0.3194015991
N   N5        1.0  0.76930  0.73850  0.53090  1.0000 -0.3194015991
N   N6        1.0  0.26930  0.76150  0.46910  1.0000 -0.3194015991
N   N7        1.0  0.73070  0.23850  0.96910  1.0000 -0.3194015991
N   N8        1.0  0.23070  0.26150  0.03090  1.0000 -0.3194015991
N   N9        1.0  0.35100  0.07380  0.46740  1.0000 -0.2005073368
N   N10       1.0  0.85100  0.42620  0.53260  1.0000 -0.2005073368
N   N11       1.0  0.14900  0.57380  0.03260  1.0000 -0.2005073368
N   N12       1.0  0.64900  0.92620  0.96740  1.0000 -0.2005073368
N   N13       1.0  0.64900  0.92620  0.53260  1.0000 -0.2005073368
N   N14       1.0  0.14900  0.57380  0.46740  1.0000 -0.2005073368
N   N15       1.0  0.85100  0.42620  0.96740  1.0000 -0.2005073368
N   N16       1.0  0.35100  0.07380  0.03260  1.0000 -0.2005073368
N   N17       1.0  0.41400  0.15680  0.50316  1.0000 -0.2005073368
N   N18       1.0  0.91400  0.34320  0.49684  1.0000 -0.2005073368
N   N19       1.0  0.08600  0.65680  0.99684  1.0000 -0.2005073368
N   N20       1.0  0.58600  0.84320  0.00316  1.0000 -0.2005073368
N   N21       1.0  0.58600  0.84320  0.49684  1.0000 -0.2005073368
N   N22       1.0  0.08600  0.65680  0.50316  1.0000 -0.2005073368
N   N23       1.0  0.91400  0.34320  0.00316  1.0000 -0.2005073368
N   N24       1.0  0.41400  0.15680  0.99684  1.0000 -0.2005073368
O   O1        1.0  0.01780  0.32330  0.38481  1.0000 -0.5541243624
O   O2        1.0  0.51780  0.17670  0.61519  1.0000 -0.5541243624
O   O3        1.0  0.48220  0.82330  0.11519  1.0000 -0.5541243624
O   O4        1.0  0.98220  0.67670  0.88481  1.0000 -0.5541243624
O   O5        1.0  0.98220  0.67670  0.61519  1.0000 -0.5541243624
O   O6        1.0  0.48220  0.82330  0.38481  1.0000 -0.5541243624
O   O7        1.0  0.51780  0.17670  0.88481  1.0000 -0.5541243624
O   O8        1.0  0.01780  0.32330  0.11519  1.0000 -0.5541243624
O   O9        1.0  0.19850  0.43300  0.35320  1.0000 -0.5363653075
O   O10       1.0  0.69850  0.06700  0.64680  1.0000 -0.5363653075
O   O11       1.0  0.30150  0.93300  0.14680  1.0000 -0.5363653075
O   O12       1.0  0.80150  0.56700  0.85320  1.0000 -0.5363653075
O   O13       1.0  0.80150  0.56700  0.64680  1.0000 -0.5363653075
O   O14       1.0  0.30150  0.93300  0.35320  1.0000 -0.5363653075
O   O15       1.0  0.69850  0.06700  0.85320  1.0000 -0.5363653075
O   O16       1.0  0.19850  0.43300  0.14680  1.0000 -0.5363653075
