# DDEC6 charges by PACMAN v1.1 (https://github.com/mtap-research/PACMAN-charge/)
data_2016[Cd][nan]3[FSR]33
_chemical_formula_sum              "Cd12 H108 C204 S24 O60"
_cell_length_a       19.6
_cell_length_b       19.6
_cell_length_c       20.76
_cell_angle_alpha    90
_cell_angle_beta     90
_cell_angle_gamma    120

_symmetry_space_group_name_H-M    "P 1"
_symmetry_Int_Tables_number       1

loop_
  _symmetry_equiv_pos_as_xyz
  'x, y, z'

loop_
  _atom_site_type_symbol
  _atom_site_label
  _atom_site_symmetry_multiplicity
  _atom_site_fract_x
  _atom_site_fract_y
  _atom_site_fract_z
  _atom_site_occupancy
  _atom_site_charge
Cd  Cd1       1.0  0.69038  0.25956  0.08877  1.0000 0.9908460255
Cd  Cd2       1.0  0.74044  0.43082  0.75544  1.0000 0.9908460255
Cd  Cd3       1.0  0.56918  0.30962  0.42210  1.0000 0.9908460255
Cd  Cd4       1.0  0.30962  0.74044  0.58877  1.0000 0.9908460255
Cd  Cd5       1.0  0.25956  0.56918  0.25544  1.0000 0.9908460255
Cd  Cd6       1.0  0.43082  0.69038  0.92210  1.0000 0.9908460255
Cd  Cd7       1.0  0.72692  0.34505  0.93149  1.0000 1.0374821103
Cd  Cd8       1.0  0.65495  0.38187  0.59816  1.0000 1.0374821103
Cd  Cd9       1.0  0.61813  0.27308  0.26482  1.0000 1.0374821103
Cd  Cd10      1.0  0.27308  0.65495  0.43149  1.0000 1.0374821103
Cd  Cd11      1.0  0.34505  0.61813  0.09816  1.0000 1.0374821103
Cd  Cd12      1.0  0.38187  0.72692  0.76482  1.0000 1.0374821103
H   H1        1.0  0.61100  0.36200  0.87300  1.0000 0.3268322623
H   H2        1.0  0.63800  0.24900  0.53967  1.0000 0.3268322623
H   H3        1.0  0.75100  0.38900  0.20633  1.0000 0.3268322623
H   H4        1.0  0.38900  0.63800  0.37300  1.0000 0.3268322623
H   H5        1.0  0.36200  0.75100  0.03967  1.0000 0.3268322623
H   H6        1.0  0.24900  0.61100  0.70633  1.0000 0.3268322623
H   H7        1.0  0.60500  0.37500  0.93300  1.0000 0.3092779195
H   H8        1.0  0.62500  0.23000  0.59967  1.0000 0.3092779195
H   H9        1.0  0.77000  0.39500  0.26633  1.0000 0.3092779195
H   H10       1.0  0.39500  0.62500  0.43300  1.0000 0.3092779195
H   H11       1.0  0.37500  0.77000  0.09967  1.0000 0.3092779195
H   H12       1.0  0.23000  0.60500  0.76633  1.0000 0.3092779195
H   H13       1.0  0.91770  0.09660  0.02340  1.0000 0.1198012714
H   H14       1.0  0.90340  0.82110  0.69007  1.0000 0.1198012714
H   H15       1.0  0.17890  0.08230  0.35673  1.0000 0.1198012714
H   H16       1.0  0.08230  0.90340  0.52340  1.0000 0.1198012714
H   H17       1.0  0.09660  0.17890  0.19007  1.0000 0.1198012714
H   H18       1.0  0.82110  0.91770  0.85673  1.0000 0.1198012714
H   H19       1.0  0.82780  0.13860  0.04750  1.0000 0.1198012714
H   H20       1.0  0.86140  0.68920  0.71417  1.0000 0.1198012714
H   H21       1.0  0.31080  0.17220  0.38083  1.0000 0.1198012714
H   H22       1.0  0.17220  0.86140  0.54750  1.0000 0.1198012714
H   H23       1.0  0.13860  0.31080  0.21417  1.0000 0.1198012714
H   H24       1.0  0.68920  0.82780  0.88083  1.0000 0.1198012714
H   H25       1.0  0.93790  0.31780  0.92060  1.0000 0.127868066
H   H26       1.0  0.68220  0.62010  0.58727  1.0000 0.127868066
H   H27       1.0  0.37990  0.06210  0.25393  1.0000 0.127868066
H   H28       1.0  0.06210  0.68220  0.42060  1.0000 0.127868066
H   H29       1.0  0.31780  0.37990  0.08727  1.0000 0.127868066
H   H30       1.0  0.62010  0.93790  0.75393  1.0000 0.127868066
H   H31       1.0  0.02680  0.27650  0.89610  1.0000 0.127868066
H   H32       1.0  0.72350  0.75030  0.56277  1.0000 0.127868066
H   H33       1.0  0.24970  0.97320  0.22943  1.0000 0.127868066
H   H34       1.0  0.97320  0.72350  0.39610  1.0000 0.127868066
H   H35       1.0  0.27650  0.24970  0.06277  1.0000 0.127868066
H   H36       1.0  0.75030  0.02680  0.72943  1.0000 0.127868066
H   H37       1.0  0.10520  0.30460  0.01860  1.0000 0.1198012714
H   H38       1.0  0.69540  0.80060  0.68527  1.0000 0.1198012714
H   H39       1.0  0.19940  0.89480  0.35193  1.0000 0.1198012714
H   H40       1.0  0.89480  0.69540  0.51860  1.0000 0.1198012714
H   H41       1.0  0.30460  0.19940  0.18527  1.0000 0.1198012714
H   H42       1.0  0.80060  0.10520  0.85193  1.0000 0.1198012714
H   H43       1.0  0.18810  0.44020  0.02550  1.0000 0.127868066
H   H44       1.0  0.55980  0.74790  0.69217  1.0000 0.127868066
H   H45       1.0  0.25210  0.81190  0.35883  1.0000 0.127868066
H   H46       1.0  0.81190  0.55980  0.52550  1.0000 0.127868066
H   H47       1.0  0.44020  0.25210  0.19217  1.0000 0.127868066
H   H48       1.0  0.74790  0.18810  0.85883  1.0000 0.127868066
H   H49       1.0  0.34290  0.42670  0.90500  1.0000 0.127868066
H   H50       1.0  0.57330  0.91620  0.57167  1.0000 0.127868066
H   H51       1.0  0.08380  0.65710  0.23833  1.0000 0.127868066
H   H52       1.0  0.65710  0.57330  0.40500  1.0000 0.127868066
H   H53       1.0  0.42670  0.08380  0.07167  1.0000 0.127868066
H   H54       1.0  0.91620  0.34290  0.73833  1.0000 0.127868066
H   H55       1.0  0.25830  0.29090  0.89590  1.0000 0.1122215727
H   H56       1.0  0.70910  0.96740  0.56257  1.0000 0.1122215727
H   H57       1.0  0.03260  0.74170  0.22923  1.0000 0.1122215727
H   H58       1.0  0.74170  0.70910  0.39590  1.0000 0.1122215727
H   H59       1.0  0.29090  0.03260  0.06257  1.0000 0.1122215727
H   H60       1.0  0.96740  0.25830  0.72923  1.0000 0.1122215727
H   H61       1.0  0.93130  0.75760  0.82050  1.0000 0.1198012714
H   H62       1.0  0.24240  0.17370  0.48717  1.0000 0.1198012714
H   H63       1.0  0.82630  0.06870  0.15383  1.0000 0.1198012714
H   H64       1.0  0.06870  0.24240  0.32050  1.0000 0.1198012714
H   H65       1.0  0.75760  0.82630  0.98717  1.0000 0.1198012714
H   H66       1.0  0.17370  0.93130  0.65383  1.0000 0.1198012714
H   H67       1.0  0.84100  0.62230  0.81730  1.0000 0.127868066
H   H68       1.0  0.37770  0.21870  0.48397  1.0000 0.127868066
H   H69       1.0  0.78130  0.15900  0.15063  1.0000 0.127868066
H   H70       1.0  0.15900  0.37770  0.31730  1.0000 0.127868066
H   H71       1.0  0.62230  0.78130  0.98397  1.0000 0.127868066
H   H72       1.0  0.21870  0.84100  0.65063  1.0000 0.127868066
H   H73       1.0  0.94910  0.58980  0.97040  1.0000 0.127868066
H   H74       1.0  0.41020  0.35930  0.63707  1.0000 0.127868066
H   H75       1.0  0.64070  0.05090  0.30373  1.0000 0.127868066
H   H76       1.0  0.05090  0.41020  0.47040  1.0000 0.127868066
H   H77       1.0  0.58980  0.64070  0.13707  1.0000 0.127868066
H   H78       1.0  0.35930  0.94910  0.80373  1.0000 0.127868066
H   H79       1.0  0.03930  0.72470  0.97350  1.0000 0.1198012714
H   H80       1.0  0.27530  0.31460  0.64017  1.0000 0.1198012714
H   H81       1.0  0.68540  0.96070  0.30683  1.0000 0.1198012714
H   H82       1.0  0.96070  0.27530  0.47350  1.0000 0.1198012714
H   H83       1.0  0.72470  0.68540  0.14017  1.0000 0.1198012714
H   H84       1.0  0.31460  0.03930  0.80683  1.0000 0.1198012714
H   H85       1.0  0.12500  0.76660  0.83520  1.0000 0.127868066
H   H86       1.0  0.23340  0.35840  0.50187  1.0000 0.127868066
H   H87       1.0  0.64160  0.87500  0.16853  1.0000 0.127868066
H   H88       1.0  0.87500  0.23340  0.33520  1.0000 0.127868066
H   H89       1.0  0.76660  0.64160  0.00187  1.0000 0.127868066
H   H90       1.0  0.35840  0.12500  0.66853  1.0000 0.127868066
H   H91       1.0  0.21010  0.71580  0.83690  1.0000 0.1198012714
H   H92       1.0  0.28420  0.49430  0.50357  1.0000 0.1198012714
H   H93       1.0  0.50570  0.78990  0.17023  1.0000 0.1198012714
H   H94       1.0  0.78990  0.28420  0.33690  1.0000 0.1198012714
H   H95       1.0  0.71580  0.50570  0.00357  1.0000 0.1198012714
H   H96       1.0  0.49430  0.21010  0.67023  1.0000 0.1198012714
H   H97       1.0  0.33950  0.87180  0.97620  1.0000 0.127868066
H   H98       1.0  0.12820  0.46770  0.64287  1.0000 0.127868066
H   H99       1.0  0.53230  0.66050  0.30953  1.0000 0.127868066
H   H100      1.0  0.66050  0.12820  0.47620  1.0000 0.127868066
H   H101      1.0  0.87180  0.53230  0.14287  1.0000 0.127868066
H   H102      1.0  0.46770  0.33950  0.80953  1.0000 0.127868066
H   H103      1.0  0.25520  0.92340  0.97360  1.0000 0.1198012714
H   H104      1.0  0.07660  0.33180  0.64027  1.0000 0.1198012714
H   H105      1.0  0.66820  0.74480  0.30693  1.0000 0.1198012714
H   H106      1.0  0.74480  0.07660  0.47360  1.0000 0.1198012714
H   H107      1.0  0.92340  0.66820  0.14027  1.0000 0.1198012714
H   H108      1.0  0.33180  0.25520  0.80693  1.0000 0.1198012714
C   C1        1.0  0.08160  0.05280  0.92150  1.0000 -0.0906106943
C   C2        1.0  0.94720  0.02880  0.58817  1.0000 -0.0906106943
C   C3        1.0  0.97120  0.91840  0.25483  1.0000 -0.0906106943
C   C4        1.0  0.91840  0.94720  0.42150  1.0000 -0.0906106943
C   C5        1.0  0.05280  0.97120  0.08817  1.0000 -0.0906106943
C   C6        1.0  0.02880  0.08160  0.75483  1.0000 -0.0906106943
C   C7        1.0  0.03980  0.15710  0.94590  1.0000 -0.0611105067
C   C8        1.0  0.84290  0.88270  0.61257  1.0000 -0.0611105067
C   C9        1.0  0.11730  0.96020  0.27923  1.0000 -0.0611105067
C   C10       1.0  0.96020  0.84290  0.44590  1.0000 -0.0611105067
C   C11       1.0  0.15710  0.11730  0.11257  1.0000 -0.0611105067
C   C12       1.0  0.88270  0.03980  0.77923  1.0000 -0.0611105067
C   C13       1.0  0.11930  0.19860  0.94520  1.0000 -0.0514148082
C   C14       1.0  0.80140  0.92070  0.61187  1.0000 -0.0514148082
C   C15       1.0  0.07930  0.88070  0.27853  1.0000 -0.0514148082
C   C16       1.0  0.88070  0.80140  0.44520  1.0000 -0.0514148082
C   C17       1.0  0.19860  0.07930  0.11187  1.0000 -0.0514148082
C   C18       1.0  0.92070  0.11930  0.77853  1.0000 -0.0514148082
C   C19       1.0  0.08300  0.98710  0.91230  1.0000 -0.0906106943
C   C20       1.0  0.01290  0.09590  0.57897  1.0000 -0.0906106943
C   C21       1.0  0.90410  0.91700  0.24563  1.0000 -0.0906106943
C   C22       1.0  0.91700  0.01290  0.41230  1.0000 -0.0906106943
C   C23       1.0  0.98710  0.90410  0.07897  1.0000 -0.0906106943
C   C24       1.0  0.09590  0.08300  0.74563  1.0000 -0.0906106943
C   C25       1.0  0.04720  0.84090  0.90070  1.0000 -0.0514148082
C   C26       1.0  0.15910  0.20630  0.56737  1.0000 -0.0514148082
C   C27       1.0  0.79370  0.95280  0.23403  1.0000 -0.0514148082
C   C28       1.0  0.95280  0.15910  0.40070  1.0000 -0.0514148082
C   C29       1.0  0.84090  0.79370  0.06737  1.0000 -0.0514148082
C   C30       1.0  0.20630  0.04720  0.73403  1.0000 -0.0514148082
C   C31       1.0  0.12580  0.88080  0.90480  1.0000 -0.0514148082
C   C32       1.0  0.11920  0.24500  0.57147  1.0000 -0.0611105067
C   C33       1.0  0.75500  0.87420  0.23813  1.0000 -0.0611105067
C   C34       1.0  0.87420  0.11920  0.40480  1.0000 -0.0611105067
C   C35       1.0  0.88080  0.75500  0.07147  1.0000 -0.0611105067
C   C36       1.0  0.24500  0.12580  0.73813  1.0000 -0.0611105067
C   C37       1.0  0.98370  0.18480  0.95910  1.0000 0.0903059332
C   C38       1.0  0.81520  0.79890  0.62577  1.0000 0.0903059332
C   C39       1.0  0.20110  0.01630  0.29243  1.0000 0.0903059332
C   C40       1.0  0.01630  0.81520  0.45910  1.0000 0.0903059332
C   C41       1.0  0.18480  0.20110  0.12577  1.0000 0.0903059332
C   C42       1.0  0.79890  0.98370  0.79243  1.0000 0.0903059332
C   C43       1.0  0.92240  0.14220  0.00310  1.0000 -0.1590601819
C   C44       1.0  0.85780  0.78020  0.66977  1.0000 -0.1590601819
C   C45       1.0  0.21980  0.07760  0.33643  1.0000 -0.1590601819
C   C46       1.0  0.07760  0.85780  0.50310  1.0000 -0.1590601819
C   C47       1.0  0.14220  0.21980  0.16977  1.0000 -0.1590601819
C   C48       1.0  0.78020  0.92240  0.83643  1.0000 -0.1590601819
C   C49       1.0  0.86850  0.16680  0.01700  1.0000 -0.0906106943
C   C50       1.0  0.83320  0.70170  0.68367  1.0000 -0.0906106943
C   C51       1.0  0.29830  0.13150  0.35033  1.0000 -0.0906106943
C   C52       1.0  0.13150  0.83320  0.51700  1.0000 -0.0906106943
C   C53       1.0  0.16680  0.29830  0.18367  1.0000 -0.0906106943
C   C54       1.0  0.70170  0.86850  0.85033  1.0000 -0.0906106943
C   C55       1.0  0.87420  0.23210  0.98640  1.0000 -0.0266751808
C   C56       1.0  0.76790  0.64210  0.65307  1.0000 -0.0266751808
C   C57       1.0  0.35790  0.12580  0.31973  1.0000 -0.0266751808
C   C58       1.0  0.12580  0.76790  0.48640  1.0000 -0.0266751808
C   C59       1.0  0.23210  0.35790  0.15307  1.0000 -0.0266751808
C   C60       1.0  0.64210  0.87420  0.81973  1.0000 -0.0266751808
C   C61       1.0  0.93390  0.27290  0.94160  1.0000 -0.0824758093
C   C62       1.0  0.72710  0.66100  0.60827  1.0000 -0.0824758093
C   C63       1.0  0.33900  0.06610  0.27493  1.0000 -0.0824758093
C   C64       1.0  0.06610  0.72710  0.44160  1.0000 -0.0824758093
C   C65       1.0  0.27290  0.33900  0.10827  1.0000 -0.0824758093
C   C66       1.0  0.66100  0.93390  0.77493  1.0000 -0.0824758093
C   C67       1.0  0.98720  0.24900  0.92760  1.0000 -0.1300607911
C   C68       1.0  0.75100  0.73820  0.59427  1.0000 -0.1300607911
C   C69       1.0  0.26180  0.01280  0.26093  1.0000 -0.1300607911
C   C70       1.0  0.01280  0.75100  0.42760  1.0000 -0.1300607911
C   C71       1.0  0.24900  0.26180  0.09427  1.0000 -0.1300607911
C   C72       1.0  0.73820  0.98720  0.76093  1.0000 -0.1300607911
C   C73       1.0  0.81520  0.25800  0.00250  1.0000 0.5792066994
C   C74       1.0  0.74200  0.55720  0.66917  1.0000 0.5792066994
C   C75       1.0  0.44280  0.18480  0.33583  1.0000 0.5792066994
C   C76       1.0  0.18480  0.74200  0.50250  1.0000 0.5792066994
C   C77       1.0  0.25800  0.44280  0.16917  1.0000 0.5792066994
C   C78       1.0  0.55720  0.81520  0.83583  1.0000 0.5792066994
C   C79       1.0  0.17180  0.28380  0.95440  1.0000 0.0903059332
C   C80       1.0  0.71620  0.88800  0.62107  1.0000 0.0903059332
C   C81       1.0  0.11200  0.82820  0.28773  1.0000 0.0903059332
C   C82       1.0  0.82820  0.71620  0.45440  1.0000 0.0903059332
C   C83       1.0  0.28380  0.11200  0.12107  1.0000 0.0903059332
C   C84       1.0  0.88800  0.17180  0.78773  1.0000 0.0903059332
C   C85       1.0  0.15260  0.32930  0.99440  1.0000 -0.1300607911
C   C86       1.0  0.67070  0.82330  0.66107  1.0000 -0.1300607911
C   C87       1.0  0.17670  0.84740  0.32773  1.0000 -0.1300607911
C   C88       1.0  0.84740  0.67070  0.49440  1.0000 -0.1300607911
C   C89       1.0  0.32930  0.17670  0.16107  1.0000 -0.1300607911
C   C90       1.0  0.82330  0.15260  0.82773  1.0000 -0.1300607911
C   C91       1.0  0.20230  0.40990  0.99880  1.0000 -0.0906106943
C   C92       1.0  0.59010  0.79240  0.66547  1.0000 -0.0906106943
C   C93       1.0  0.20760  0.79770  0.33213  1.0000 -0.0906106943
C   C94       1.0  0.79770  0.59010  0.49880  1.0000 -0.0906106943
C   C95       1.0  0.40990  0.20760  0.16547  1.0000 -0.0906106943
C   C96       1.0  0.79240  0.20230  0.83213  1.0000 -0.0906106943
C   C97       1.0  0.27270  0.44700  0.96480  1.0000 -0.0266751808
C   C98       1.0  0.55300  0.82570  0.63147  1.0000 -0.0266751808
C   C99       1.0  0.17430  0.72730  0.29813  1.0000 -0.0266751808
C   C100      1.0  0.72730  0.55300  0.46480  1.0000 -0.0266751808
C   C101      1.0  0.44700  0.17430  0.13147  1.0000 -0.0266751808
C   C102      1.0  0.82570  0.27270  0.79813  1.0000 -0.0266751808
C   C103      1.0  0.29390  0.40220  0.92720  1.0000 -0.0824758093
C   C104      1.0  0.59780  0.89170  0.59387  1.0000 -0.0824758093
C   C105      1.0  0.10830  0.70610  0.26053  1.0000 -0.0824758093
C   C106      1.0  0.70610  0.59780  0.42720  1.0000 -0.0824758093
C   C107      1.0  0.40220  0.10830  0.09387  1.0000 -0.0824758093
C   C108      1.0  0.89170  0.29390  0.76053  1.0000 -0.0824758093
C   C109      1.0  0.24340  0.32110  0.92200  1.0000 -0.1590601819
C   C110      1.0  0.67890  0.92230  0.58867  1.0000 -0.1590601819
C   C111      1.0  0.07770  0.75660  0.25533  1.0000 -0.1590601819
C   C112      1.0  0.75660  0.67890  0.42200  1.0000 -0.1590601819
C   C113      1.0  0.32110  0.07770  0.08867  1.0000 -0.1590601819
C   C114      1.0  0.92230  0.24340  0.75533  1.0000 -0.1590601819
C   C115      1.0  0.32500  0.53490  0.96550  1.0000 0.5792066994
C   C116      1.0  0.46510  0.79010  0.63217  1.0000 0.5792066994
C   C117      1.0  0.20990  0.67500  0.29883  1.0000 0.5792066994
C   C118      1.0  0.67500  0.46510  0.46550  1.0000 0.5792066994
C   C119      1.0  0.53490  0.20990  0.13217  1.0000 0.5792066994
C   C120      1.0  0.79010  0.32500  0.79883  1.0000 0.5792066994
C   C121      1.0  0.99310  0.75380  0.89780  1.0000 0.0903059332
C   C122      1.0  0.24620  0.23930  0.56447  1.0000 0.0903059332
C   C123      1.0  0.76070  0.00690  0.23113  1.0000 0.0903059332
C   C124      1.0  0.00690  0.24620  0.39780  1.0000 0.0903059332
C   C125      1.0  0.75380  0.76070  0.06447  1.0000 0.0903059332
C   C126      1.0  0.23930  0.99310  0.73113  1.0000 0.0903059332
C   C127      1.0  0.93470  0.72350  0.85110  1.0000 -0.1590601819
C   C128      1.0  0.27650  0.21120  0.51777  1.0000 -0.1590601819
C   C129      1.0  0.78880  0.06530  0.18443  1.0000 -0.1590601819
C   C130      1.0  0.06530  0.27650  0.35110  1.0000 -0.1590601819
C   C131      1.0  0.72350  0.78880  0.01777  1.0000 -0.1487019108
C   C132      1.0  0.21120  0.93470  0.68443  1.0000 -0.1590601819
C   C133      1.0  0.88100  0.64300  0.84930  1.0000 -0.0824758093
C   C134      1.0  0.35700  0.23800  0.51597  1.0000 -0.0824758093
C   C135      1.0  0.76200  0.11900  0.18263  1.0000 -0.0824758093
C   C136      1.0  0.11900  0.35700  0.34930  1.0000 -0.0824758093
C   C137      1.0  0.64300  0.76200  0.01597  1.0000 -0.0824758093
C   C138      1.0  0.23800  0.88100  0.68263  1.0000 -0.0824758093
C   C139      1.0  0.88570  0.59300  0.89360  1.0000 -0.0217415705
C   C140      1.0  0.40700  0.29270  0.56027  1.0000 -0.0217415705
C   C141      1.0  0.70730  0.11430  0.22693  1.0000 -0.0217415705
C   C142      1.0  0.11430  0.40700  0.39360  1.0000 -0.0217415705
C   C143      1.0  0.59300  0.70730  0.06027  1.0000 -0.0217415705
C   C144      1.0  0.29270  0.88570  0.72693  1.0000 -0.0217415705
C   C145      1.0  0.94520  0.62390  0.94000  1.0000 -0.0824758093
C   C146      1.0  0.37610  0.32130  0.60667  1.0000 -0.0824758093
C   C147      1.0  0.67870  0.05480  0.27333  1.0000 -0.0824758093
C   C148      1.0  0.05480  0.37610  0.44000  1.0000 -0.0824758093
C   C149      1.0  0.62390  0.67870  0.10667  1.0000 -0.0824758093
C   C150      1.0  0.32130  0.94520  0.77333  1.0000 -0.0824758093
C   C151      1.0  0.99870  0.70400  0.94190  1.0000 -0.1487019108
C   C152      1.0  0.29600  0.29470  0.60857  1.0000 -0.1487019108
C   C153      1.0  0.70530  0.00130  0.27523  1.0000 -0.1487019108
C   C154      1.0  0.00130  0.29600  0.44190  1.0000 -0.1487019108
C   C155      1.0  0.70400  0.70530  0.10857  1.0000 -0.1487019108
C   C156      1.0  0.29470  0.99870  0.77523  1.0000 -0.1487019108
C   C157      1.0  0.82500  0.50700  0.89290  1.0000 0.573561219
C   C158      1.0  0.49300  0.31800  0.55957  1.0000 0.573561219
C   C159      1.0  0.68200  0.17500  0.22623  1.0000 0.573561219
C   C160      1.0  0.17500  0.49300  0.39290  1.0000 0.573561219
C   C161      1.0  0.50700  0.68200  0.05957  1.0000 0.573561219
C   C162      1.0  0.31800  0.82500  0.72623  1.0000 0.573561219
C   C163      1.0  0.17970  0.84830  0.90490  1.0000 0.0965887259
C   C164      1.0  0.15170  0.33140  0.57157  1.0000 0.0965887259
C   C165      1.0  0.66860  0.82030  0.23823  1.0000 0.0965887259
C   C166      1.0  0.82030  0.15170  0.40490  1.0000 0.0965887259
C   C167      1.0  0.84830  0.66860  0.07157  1.0000 0.0965887259
C   C168      1.0  0.33140  0.17970  0.73823  1.0000 0.0965887259
C   C169      1.0  0.16820  0.78780  0.86430  1.0000 -0.1300607911
C   C170      1.0  0.21220  0.38040  0.53097  1.0000 -0.1300607911
C   C171      1.0  0.61960  0.83180  0.19763  1.0000 -0.1300607911
C   C172      1.0  0.83180  0.21220  0.36430  1.0000 -0.1300607911
C   C173      1.0  0.78780  0.61960  0.03097  1.0000 -0.1300607911
C   C174      1.0  0.38040  0.16820  0.69763  1.0000 -0.1300607911
C   C175      1.0  0.21880  0.75740  0.86530  1.0000 -0.0906106943
C   C176      1.0  0.24260  0.46140  0.53197  1.0000 -0.0906106943
C   C177      1.0  0.53860  0.78120  0.19863  1.0000 -0.0906106943
C   C178      1.0  0.78120  0.24260  0.36530  1.0000 -0.0906106943
C   C179      1.0  0.75740  0.53860  0.03197  1.0000 -0.0906106943
C   C180      1.0  0.46140  0.21880  0.69863  1.0000 -0.0906106943
C   C181      1.0  0.28210  0.78780  0.90770  1.0000 -0.0266751808
C   C182      1.0  0.21220  0.49430  0.57437  1.0000 -0.0266751808
C   C183      1.0  0.50570  0.71790  0.24103  1.0000 -0.0266751808
C   C184      1.0  0.71790  0.21220  0.40770  1.0000 -0.0266751808
C   C185      1.0  0.78780  0.50570  0.07437  1.0000 -0.0266751808
C   C186      1.0  0.49430  0.28210  0.74103  1.0000 -0.0266751808
C   C187      1.0  0.29570  0.85000  0.94780  1.0000 -0.0906106943
C   C188      1.0  0.15000  0.44570  0.61447  1.0000 -0.0824758093
C   C189      1.0  0.55430  0.70430  0.28113  1.0000 -0.0824758093
C   C190      1.0  0.70430  0.15000  0.44780  1.0000 -0.0824758093
C   C191      1.0  0.85000  0.55430  0.11447  1.0000 -0.0824758093
C   C192      1.0  0.44570  0.29570  0.78113  1.0000 -0.0824758093
C   C193      1.0  0.24530  0.88040  0.94640  1.0000 -0.1590601819
C   C194      1.0  0.11960  0.36490  0.61307  1.0000 -0.1590601819
C   C195      1.0  0.63510  0.75470  0.27973  1.0000 -0.1590601819
C   C196      1.0  0.75470  0.11960  0.44640  1.0000 -0.1590601819
C   C197      1.0  0.88040  0.63510  0.11307  1.0000 -0.1590601819
C   C198      1.0  0.36490  0.24530  0.77973  1.0000 -0.1590601819
C   C199      1.0  0.33610  0.75470  0.91030  1.0000 0.5792066994
C   C200      1.0  0.24530  0.58140  0.57697  1.0000 0.5792066994
C   C201      1.0  0.41860  0.66390  0.24363  1.0000 0.5792066994
C   C202      1.0  0.66390  0.24530  0.41030  1.0000 0.5792066994
C   C203      1.0  0.75470  0.41860  0.07697  1.0000 0.5792066994
C   C204      1.0  0.58140  0.33610  0.74363  1.0000 0.5792066994
S   S1        1.0  0.99434  0.05688  0.92664  1.0000 0.0663335016
S   S2        1.0  0.94312  0.93746  0.59331  1.0000 0.0663335016
S   S3        1.0  0.06254  0.00566  0.25997  1.0000 0.0581681956
S   S4        1.0  0.00566  0.94312  0.42664  1.0000 0.0663335016
S   S5        1.0  0.05688  0.06254  0.09331  1.0000 0.0663335016
S   S6        1.0  0.93746  0.99434  0.75997  1.0000 0.0663335016
S   S7        1.0  0.16712  0.14514  0.92768  1.0000 0.0581681956
S   S8        1.0  0.85486  0.02198  0.59435  1.0000 0.0581681956
S   S9        1.0  0.97802  0.83288  0.26101  1.0000 0.0581681956
S   S10       1.0  0.83288  0.85486  0.42768  1.0000 0.0581681956
S   S11       1.0  0.14514  0.97802  0.09435  1.0000 0.0581681956
S   S12       1.0  0.02198  0.16712  0.76101  1.0000 0.0581681956
S   S13       1.0  0.99829  0.89515  0.90031  1.0000 0.0581681956
S   S14       1.0  0.10485  0.10314  0.56698  1.0000 0.0581681956
S   S15       1.0  0.89686  0.00171  0.23364  1.0000 0.0581681956
S   S16       1.0  0.00171  0.10485  0.40031  1.0000 0.0541894971
S   S17       1.0  0.89515  0.89686  0.06698  1.0000 0.0581681956
S   S18       1.0  0.10314  0.99829  0.73364  1.0000 0.0581681956
S   S19       1.0  0.17123  0.98412  0.90838  1.0000 0.0541894971
S   S20       1.0  0.01588  0.18711  0.57505  1.0000 0.0581681956
S   S21       1.0  0.81289  0.82877  0.24171  1.0000 0.0581681956
S   S22       1.0  0.82877  0.01588  0.40838  1.0000 0.0581681956
S   S23       1.0  0.98412  0.81289  0.07505  1.0000 0.0581681956
S   S24       1.0  0.18711  0.17123  0.74171  1.0000 0.0541894971
O   O1        1.0  0.77220  0.22640  0.05080  1.0000 -0.5298540616
O   O2        1.0  0.77360  0.54580  0.71747  1.0000 -0.5298540616
O   O3        1.0  0.45420  0.22780  0.38413  1.0000 -0.5298540616
O   O4        1.0  0.22780  0.77360  0.55080  1.0000 -0.5298540616
O   O5        1.0  0.22640  0.45420  0.21747  1.0000 -0.5298540616
O   O6        1.0  0.54580  0.77220  0.88413  1.0000 -0.5298540616
O   O7        1.0  0.81450  0.30920  0.96680  1.0000 -0.5473340376
O   O8        1.0  0.69080  0.50530  0.63347  1.0000 -0.5473340376
O   O9        1.0  0.49470  0.18550  0.30013  1.0000 -0.5473340376
O   O10       1.0  0.18550  0.69080  0.46680  1.0000 -0.5473340376
O   O11       1.0  0.30920  0.49470  0.13347  1.0000 -0.5473340376
O   O12       1.0  0.50530  0.81450  0.80013  1.0000 -0.5473340376
O   O13       1.0  0.38760  0.56410  0.93300  1.0000 -0.4973564619
O   O14       1.0  0.43590  0.82350  0.59967  1.0000 -0.4973564619
O   O15       1.0  0.17650  0.61240  0.26633  1.0000 -0.4973564619
O   O16       1.0  0.61240  0.43590  0.43300  1.0000 -0.4973564619
O   O17       1.0  0.56410  0.17650  0.09967  1.0000 -0.4973564619
O   O18       1.0  0.82350  0.38760  0.76633  1.0000 -0.4973564619
O   O19       1.0  0.30310  0.57640  0.99600  1.0000 -0.5721221391
O   O20       1.0  0.42360  0.72670  0.66267  1.0000 -0.5721221391
O   O21       1.0  0.27330  0.69690  0.32933  1.0000 -0.5721221391
O   O22       1.0  0.69690  0.42360  0.49600  1.0000 -0.5721221391
O   O23       1.0  0.57640  0.27330  0.16267  1.0000 -0.5721221391
O   O24       1.0  0.72670  0.30310  0.82933  1.0000 -0.5721221391
O   O25       1.0  0.76700  0.48390  0.85620  1.0000 -0.5721221391
O   O26       1.0  0.51610  0.28310  0.52287  1.0000 -0.5721221391
O   O27       1.0  0.71690  0.23300  0.18953  1.0000 -0.5721221391
O   O28       1.0  0.23300  0.51610  0.35620  1.0000 -0.5721221391
O   O29       1.0  0.48390  0.71690  0.02287  1.0000 -0.5721221391
O   O30       1.0  0.28310  0.76700  0.68953  1.0000 -0.5721221391
O   O31       1.0  0.83450  0.46340  0.93220  1.0000 -0.5298540616
O   O32       1.0  0.53660  0.37110  0.59887  1.0000 -0.5298540616
O   O33       1.0  0.62890  0.16550  0.26553  1.0000 -0.5298540616
O   O34       1.0  0.16550  0.53660  0.43220  1.0000 -0.5298540616
O   O35       1.0  0.46340  0.62890  0.09887  1.0000 -0.5298540616
O   O36       1.0  0.37110  0.83450  0.76553  1.0000 -0.5298540616
O   O37       1.0  0.38800  0.77770  0.95300  1.0000 -0.5156052633
O   O38       1.0  0.22230  0.61030  0.61967  1.0000 -0.5156052633
O   O39       1.0  0.38970  0.61200  0.28633  1.0000 -0.5156052633
O   O40       1.0  0.61200  0.22230  0.45300  1.0000 -0.5143686855
O   O41       1.0  0.77770  0.38970  0.11967  1.0000 -0.5143686855
O   O42       1.0  0.61030  0.38800  0.78633  1.0000 -0.5143686855
O   O43       1.0  0.32770  0.70270  0.86970  1.0000 -0.5721221391
O   O44       1.0  0.29730  0.62500  0.53637  1.0000 -0.5721221391
O   O45       1.0  0.37500  0.67230  0.20303  1.0000 -0.5721221391
O   O46       1.0  0.67230  0.29730  0.36970  1.0000 -0.5721221391
O   O47       1.0  0.70270  0.37500  0.03637  1.0000 -0.5721221391
O   O48       1.0  0.62500  0.32770  0.70303  1.0000 -0.5721221391
O   O49       1.0  0.61260  0.34530  0.91010  1.0000 -0.6007655684
O   O50       1.0  0.65470  0.26730  0.57677  1.0000 -0.6007655684
O   O51       1.0  0.73270  0.38740  0.24343  1.0000 -0.6007655684
O   O52       1.0  0.38740  0.65470  0.41010  1.0000 -0.6007655684
O   O53       1.0  0.34530  0.73270  0.07677  1.0000 -0.6007655684
O   O54       1.0  0.26730  0.61260  0.74343  1.0000 -0.6007655684
O   O55       1.0  0.63980  0.21910  0.97230  1.0000 -0.2627655143
O   O56       1.0  0.78090  0.42070  0.63897  1.0000 -0.2627655143
O   O57       1.0  0.57930  0.36020  0.30563  1.0000 -0.2473412553
O   O58       1.0  0.36020  0.78090  0.47230  1.0000 -0.2473412553
O   O59       1.0  0.21910  0.57930  0.13897  1.0000 -0.2473412553
O   O60       1.0  0.42070  0.63980  0.80563  1.0000 -0.2473412553
