# DDEC6 charges by PACMAN v1.1 (https://github.com/mtap-research/PACMAN-charge/)
data_2016[In][nan]3[FSR]12
_chemical_formula_sum              "In4 H16 C32 O20"
_cell_length_a       12.5676
_cell_length_b       12.5676
_cell_length_c       12.5676
_cell_angle_alpha    103.867
_cell_angle_beta     103.867
_cell_angle_gamma    121.377

_symmetry_space_group_name_H-M    "P 1"
_symmetry_Int_Tables_number       1

loop_
  _symmetry_equiv_pos_as_xyz
  'x, y, z'

loop_
  _atom_site_type_symbol
  _atom_site_label
  _atom_site_symmetry_multiplicity
  _atom_site_fract_x
  _atom_site_fract_y
  _atom_site_fract_z
  _atom_site_occupancy
  _atom_site_charge
In  In1       1.0  0.18050  0.81950  0.00000  1.0000 1.5508462052
In  In2       1.0  0.43050  0.93050  0.86100  1.0000 1.5508462052
In  In3       1.0  0.81950  0.18050  0.00000  1.0000 1.5508462052
In  In4       1.0  0.06950  0.56950  0.13900  1.0000 1.5508462052
H   H1        1.0  0.43880  0.87500  0.06380  1.0000 0.4019866745
H   H2        1.0  0.62500  0.18880  0.06380  1.0000 0.4019866745
H   H3        1.0  0.81120  0.37500  0.93620  1.0000 0.4019866745
H   H4        1.0  0.12500  0.56120  0.93620  1.0000 0.4019866745
H   H5        1.0  0.12990  0.12990  0.00000  1.0000 0.1370469491
H   H6        1.0  0.37990  0.87990  0.50000  1.0000 0.1370469491
H   H7        1.0  0.12010  0.62010  0.50000  1.0000 0.1370469491
H   H8        1.0  0.87010  0.87010  0.00000  1.0000 0.1370469491
H   H9        1.0  0.49270  0.30790  0.95140  1.0000 0.1136621844
H   H10       1.0  0.79130  0.24270  0.68480  1.0000 0.1136621844
H   H11       1.0  0.35650  0.54130  0.04860  1.0000 0.1136621844
H   H12       1.0  0.55790  0.10650  0.31520  1.0000 0.1136621844
H   H13       1.0  0.89350  0.44210  0.68480  1.0000 0.1136621844
H   H14       1.0  0.45870  0.64350  0.95140  1.0000 0.1136621844
H   H15       1.0  0.75730  0.20870  0.31520  1.0000 0.1136621844
H   H16       1.0  0.69210  0.50730  0.04860  1.0000 0.1136621844
C   C1        1.0  0.29260  0.07240  0.94540  1.0000 0.5954787593
C   C2        1.0  0.59720  0.04260  0.72020  1.0000 0.5954787593
C   C3        1.0  0.12700  0.34720  0.05460  1.0000 0.5954787593
C   C4        1.0  0.32240  0.87700  0.27980  1.0000 0.5954787593
C   C5        1.0  0.12300  0.67760  0.72020  1.0000 0.5954787593
C   C6        1.0  0.65280  0.87300  0.94540  1.0000 0.5948427777
C   C7        1.0  0.95740  0.40280  0.27980  1.0000 0.5954787593
C   C8        1.0  0.92760  0.70740  0.05460  1.0000 0.5954787593
C   C9        1.0  0.30870  0.20019  0.97149  1.0000 -0.0578087506
C   C10       1.0  0.58721  0.05870  0.60851  1.0000 -0.0578087506
C   C11       1.0  0.22870  0.33721  0.02851  1.0000 -0.0578087506
C   C12       1.0  0.45019  0.97870  0.39149  1.0000 -0.0578087506
C   C13       1.0  0.02130  0.54981  0.60851  1.0000 -0.0578087506
C   C14       1.0  0.66279  0.77130  0.97149  1.0000 -0.0578087506
C   C15       1.0  0.94130  0.41279  0.39149  1.0000 -0.0578087506
C   C16       1.0  0.79981  0.69130  0.02851  1.0000 -0.0578087506
C   C17       1.0  0.21100  0.21100  0.00000  1.0000 -0.0954421673
C   C18       1.0  0.46100  0.96100  0.50000  1.0000 -0.0954421673
C   C19       1.0  0.03900  0.53900  0.50000  1.0000 -0.0954421673
C   C20       1.0  0.78900  0.78900  0.00000  1.0000 -0.0954421673
C   C21       1.0  0.42410  0.31559  0.97149  1.0000 -0.1389118087
C   C22       1.0  0.70261  0.17410  0.60851  1.0000 -0.1389118087
C   C23       1.0  0.34410  0.45261  0.02851  1.0000 -0.1389118087
C   C24       1.0  0.56559  0.09410  0.39149  1.0000 -0.1389118087
C   C25       1.0  0.90590  0.43441  0.60851  1.0000 -0.1389118087
C   C26       1.0  0.54739  0.65590  0.97149  1.0000 -0.1389118087
C   C27       1.0  0.82590  0.29739  0.39149  1.0000 -0.1389118087
C   C28       1.0  0.68441  0.57590  0.02851  1.0000 -0.1389118087
C   C29       1.0  0.44180  0.44180  0.00000  1.0000 0.0703392785
C   C30       1.0  0.69180  0.19180  0.50000  1.0000 0.0703392785
C   C31       1.0  0.80820  0.30820  0.50000  1.0000 0.0703392785
C   C32       1.0  0.55820  0.55820  0.00000  1.0000 0.0703392785
O   O1        1.0  0.38070  0.87500  0.00570  1.0000 -0.9343516965
O   O2        1.0  0.62500  0.13070  0.00570  1.0000 -0.9343516965
O   O3        1.0  0.86930  0.37500  0.99430  1.0000 -0.9356345076
O   O4        1.0  0.12500  0.61930  0.99430  1.0000 -0.9356345076
O   O5        1.0  0.22490  0.99400  0.98550  1.0000 -0.5326756377
O   O6        1.0  0.48940  0.97490  0.73090  1.0000 -0.5326756377
O   O7        1.0  0.00850  0.23940  0.01450  1.0000 -0.5326756377
O   O8        1.0  0.24400  0.75850  0.26910  1.0000 -0.5326756377
O   O9        1.0  0.24150  0.75600  0.73090  1.0000 -0.5326756377
O   O10       1.0  0.76060  0.99150  0.98550  1.0000 -0.5326756377
O   O11       1.0  0.02510  0.51060  0.26910  1.0000 -0.5326756377
O   O12       1.0  0.00600  0.77510  0.01450  1.0000 -0.5326756377
O   O13       1.0  0.34710  0.04770  0.88420  1.0000 -0.544557168
O   O14       1.0  0.71290  0.09710  0.79940  1.0000 -0.544557168
O   O15       1.0  0.16350  0.46290  0.11580  1.0000 -0.544557168
O   O16       1.0  0.29770  0.91350  0.20060  1.0000 -0.544557168
O   O17       1.0  0.08650  0.70230  0.79940  1.0000 -0.544557168
O   O18       1.0  0.53710  0.83650  0.88420  1.0000 -0.544557168
O   O19       1.0  0.90290  0.28710  0.20060  1.0000 -0.544557168
O   O20       1.0  0.95230  0.65290  0.11580  1.0000 -0.544557168
