# DDEC6 charges by PACMAN v1.1 (https://github.com/mtap-research/PACMAN-charge/)
data_2016[Ni][bex]2[FSR]1
_chemical_formula_sum              "Ni3 H88 C72 N12 O26"
_cell_length_a       9.2271
_cell_length_b       11.7044
_cell_length_c       22.01
_cell_angle_alpha    83.415
_cell_angle_beta     83.369
_cell_angle_gamma    70.944

_symmetry_space_group_name_H-M    "P 1"
_symmetry_Int_Tables_number       1

loop_
  _symmetry_equiv_pos_as_xyz
  'x, y, z'

loop_
  _atom_site_type_symbol
  _atom_site_label
  _atom_site_symmetry_multiplicity
  _atom_site_fract_x
  _atom_site_fract_y
  _atom_site_fract_z
  _atom_site_occupancy
  _atom_site_charge
Ni  Ni1       1.0  0.74982  0.20351  0.16252  1.0000 0.8112446933
Ni  Ni2       1.0  0.25018  0.79649  0.83748  1.0000 0.8112446933
Ni  Ni3       1.0  0.00000  0.00000  0.50000  1.0000 0.7670978575
H   H1        1.0  0.26540  0.02810  0.40530  1.0000 0.1087126071
H   H2        1.0  0.91090  0.19750  0.42770  1.0000 0.3482531577
H   H3        1.0  0.83440  0.20220  0.48430  1.0000 0.3182979866
H   H4        1.0  0.46030  0.11070  0.39350  1.0000 0.1318357416
H   H5        1.0  0.60830  0.37730  0.08000  1.0000 0.3396844138
H   H6        1.0  0.55550  0.42000  0.13660  1.0000 0.3711929589
H   H7        1.0  0.38690  0.29250  0.57300  1.0000 0.2984540134
H   H8        1.0  0.50730  0.20280  0.47380  1.0000 0.1399432204
H   H9        1.0  0.94970  0.09880  0.08160  1.0000 0.3396844138
H   H10       1.0  0.83660  0.14000  0.04160  1.0000 0.3182979866
H   H11       1.0  0.28490  0.04780  0.03930  1.0000 0.2902569442
H   H12       1.0  0.67770  0.22660  0.27910  1.0000 0.3396844138
H   H13       1.0  0.57770  0.33140  0.25400  1.0000 0.3628370731
H   H14       1.0  0.15970  0.12070  0.57310  1.0000 0.1210002
H   H15       1.0  0.21130  0.37330  0.28430  1.0000 0.2902569442
H   H16       1.0  0.57080  0.05780  0.24300  1.0000 0.1087126071
H   H17       1.0  0.37460  0.97860  0.24000  1.0000 0.1318357416
H   H18       1.0  0.25530  0.00470  0.15000  1.0000 0.1318357416
H   H19       1.0  0.53830  0.18420  0.07110  1.0000 0.1087126071
H   H20       1.0  0.19150  0.10770  0.95520  1.0000 0.1210002
H   H21       1.0  0.10290  0.24670  0.95480  1.0000 0.1318357416
H   H22       1.0  0.38160  0.18180  0.88640  1.0000 0.0984879356
H   H23       1.0  0.24780  0.15180  0.86100  1.0000 0.0984879356
H   H24       1.0  0.23670  0.38030  0.88360  1.0000 0.1087126071
H   H25       1.0  0.10780  0.34850  0.85560  1.0000 0.0984879356
H   H26       1.0  0.25900  0.43140  0.78110  1.0000 0.0984879356
H   H27       1.0  0.40250  0.31880  0.79520  1.0000 0.1087126071
H   H28       1.0  0.15110  0.32210  0.73500  1.0000 0.0984879356
H   H29       1.0  0.26350  0.19920  0.76110  1.0000 0.0984879356
H   H30       1.0  0.46610  0.24400  0.69660  1.0000 0.1318357416
H   H31       1.0  0.34260  0.35660  0.66690  1.0000 0.1318357416
H   H32       1.0  0.95170  0.32630  0.08020  1.0000 0.0984879356
H   H33       1.0  0.14090  0.41120  0.08480  1.0000 0.1399432204
H   H34       1.0  0.23080  0.41480  0.17840  1.0000 0.1318357416
H   H35       1.0  0.93650  0.24470  0.25760  1.0000 0.1210002
H   H36       1.0  0.12810  0.32260  0.42980  1.0000 0.1210002
H   H37       1.0  0.21350  0.39320  0.38150  1.0000 0.1318357416
H   H38       1.0  0.89670  0.48920  0.41160  1.0000 0.0984879356
H   H39       1.0  0.00460  0.55990  0.37770  1.0000 0.0984879356
H   H40       1.0  0.12730  0.53270  0.47260  1.0000 0.1087126071
H   H41       1.0  0.95810  0.62110  0.47540  1.0000 0.0930078074
H   H42       1.0  0.00820  0.96370  0.30760  1.0000 0.1318357416
H   H43       1.0  0.17850  0.73880  0.17360  1.0000 0.1210002
H   H44       1.0  0.30360  0.63040  0.34460  1.0000 0.1210002
H   H45       1.0  0.73460  0.97190  0.59470  1.0000 0.1087126071
H   H46       1.0  0.08910  0.80250  0.57230  1.0000 0.3482531577
H   H47       1.0  0.16560  0.79780  0.51570  1.0000 0.3182979866
H   H48       1.0  0.53970  0.88930  0.60650  1.0000 0.1318357416
H   H49       1.0  0.39170  0.62270  0.92000  1.0000 0.3396844138
H   H50       1.0  0.44450  0.58000  0.86340  1.0000 0.3711929589
H   H51       1.0  0.61310  0.70750  0.42700  1.0000 0.2984540134
H   H52       1.0  0.49270  0.79720  0.52620  1.0000 0.1399432204
H   H53       1.0  0.05030  0.90120  0.91840  1.0000 0.3396844138
H   H54       1.0  0.16340  0.86000  0.95840  1.0000 0.3182979866
H   H55       1.0  0.71510  0.95220  0.96070  1.0000 0.2902569442
H   H56       1.0  0.32230  0.77340  0.72090  1.0000 0.3396844138
H   H57       1.0  0.42230  0.66860  0.74600  1.0000 0.3628370731
H   H58       1.0  0.84030  0.87930  0.42690  1.0000 0.1210002
H   H59       1.0  0.78870  0.62670  0.71570  1.0000 0.2902569442
H   H60       1.0  0.42920  0.94220  0.75700  1.0000 0.1087126071
H   H61       1.0  0.62540  0.02140  0.76000  1.0000 0.1318357416
H   H62       1.0  0.74470  0.99530  0.85000  1.0000 0.1318357416
H   H63       1.0  0.46170  0.81580  0.92890  1.0000 0.1087126071
H   H64       1.0  0.80850  0.89230  0.04480  1.0000 0.1210002
H   H65       1.0  0.89710  0.75330  0.04520  1.0000 0.1318357416
H   H66       1.0  0.61840  0.81820  0.11360  1.0000 0.0984879356
H   H67       1.0  0.75220  0.84820  0.13900  1.0000 0.0984879356
H   H68       1.0  0.76330  0.61970  0.11640  1.0000 0.1087126071
H   H69       1.0  0.89220  0.65150  0.14440  1.0000 0.1087126071
H   H70       1.0  0.74100  0.56860  0.21890  1.0000 0.0984879356
H   H71       1.0  0.59750  0.68120  0.20480  1.0000 0.1087126071
H   H72       1.0  0.84890  0.67790  0.26500  1.0000 0.0984879356
H   H73       1.0  0.73650  0.80080  0.23890  1.0000 0.0984879356
H   H74       1.0  0.53390  0.75600  0.30340  1.0000 0.1318357416
H   H75       1.0  0.65740  0.64340  0.33310  1.0000 0.1318357416
H   H76       1.0  0.04830  0.67370  0.91980  1.0000 0.0984879356
H   H77       1.0  0.85910  0.58880  0.91520  1.0000 0.1399432204
H   H78       1.0  0.76920  0.58520  0.82160  1.0000 0.1318357416
H   H79       1.0  0.06350  0.75530  0.74240  1.0000 0.1210002
H   H80       1.0  0.87190  0.67740  0.57020  1.0000 0.1210002
H   H81       1.0  0.78650  0.60680  0.61850  1.0000 0.1318357416
H   H82       1.0  0.10330  0.51080  0.58840  1.0000 0.0984879356
H   H83       1.0  0.99540  0.44010  0.62230  1.0000 0.0984879356
H   H84       1.0  0.87270  0.46730  0.52740  1.0000 0.1087126071
H   H85       1.0  0.04190  0.37890  0.52460  1.0000 0.0930078074
H   H86       1.0  0.99180  0.03630  0.69240  1.0000 0.1318357416
H   H87       1.0  0.82150  0.26120  0.82640  1.0000 0.1210002
H   H88       1.0  0.69640  0.36960  0.65540  1.0000 0.1210002
C   C1        1.0  0.28280  0.06460  0.43788  1.0000 0.0432298811
C   C2        1.0  0.40000  0.11390  0.43054  1.0000 -0.1194833566
C   C3        1.0  0.42840  0.16850  0.47816  1.0000 -0.145751986
C   C4        1.0  0.33680  0.17080  0.53252  1.0000 0.1728165566
C   C5        1.0  0.22100  0.11910  0.53638  1.0000 -0.0237607573
C   C6        1.0  0.52400  0.06760  0.20665  1.0000 0.045258139
C   C7        1.0  0.40630  0.02030  0.20517  1.0000 -0.1020837978
C   C8        1.0  0.33600  0.03520  0.15161  1.0000 -0.145751986
C   C9        1.0  0.38700  0.09630  0.10001  1.0000 0.1821115136
C   C10       1.0  0.50500  0.14190  0.10519  1.0000 -0.028248519
C   C11       1.0  0.29710  0.19710  0.00025  1.0000 0.5282147049
C   C12       1.0  0.20440  0.18740  0.94980  1.0000 -0.3282385797
C   C13       1.0  0.27060  0.20580  0.88610  1.0000 -0.1194833566
C   C14       1.0  0.21810  0.32580  0.85770  1.0000 -0.1588124664
C   C15       1.0  0.29170  0.34510  0.79340  1.0000 -0.1588124664
C   C16       1.0  0.25640  0.28120  0.74470  1.0000 -0.1194833566
C   C17       1.0  0.35990  0.27520  0.68656  1.0000 -0.3400638134
C   C18       1.0  0.33430  0.19620  0.64204  1.0000 0.5222565799
C   C19       1.0  0.98720  0.32700  0.11792  1.0000 0.0311124332
C   C20       1.0  0.10000  0.37850  0.12059  1.0000 -0.1105928489
C   C21       1.0  0.15260  0.38180  0.17617  1.0000 -0.1320598702
C   C22       1.0  0.08650  0.33500  0.22886  1.0000 0.18765257
C   C23       1.0  0.97690  0.28050  0.22277  1.0000 -0.028248519
C   C24       1.0  0.06620  0.33010  0.34277  1.0000 0.5282147049
C   C25       1.0  0.11530  0.38040  0.39397  1.0000 -0.3400638134
C   C26       1.0  0.99850  0.49720  0.40980  1.0000 -0.1320598702
C   C27       1.0  0.02060  0.53700  0.47230  1.0000 -0.1677244634
C   C28       1.0  0.15060  0.82930  0.40226  1.0000 0.5400422483
C   C29       1.0  0.15750  0.80250  0.33625  1.0000 -0.0237607573
C   C30       1.0  0.07030  0.88910  0.29462  1.0000 -0.1105928489
C   C31       1.0  0.07520  0.86520  0.23401  1.0000 -0.0237607573
C   C32       1.0  0.97790  0.95760  0.18911  1.0000 0.5494940549
C   C33       1.0  0.17180  0.75420  0.21453  1.0000 -0.1194833566
C   C34       1.0  0.25800  0.66640  0.25582  1.0000 -0.028248519
C   C35       1.0  0.36070  0.54540  0.23445  1.0000 0.5400422483
C   C36       1.0  0.24870  0.69000  0.31658  1.0000 -0.1320598702
C   C37       1.0  0.71720  0.93540  0.56212  1.0000 0.0432298811
C   C38       1.0  0.60000  0.88610  0.56946  1.0000 -0.1194833566
C   C39       1.0  0.57160  0.83150  0.52184  1.0000 -0.145751986
C   C40       1.0  0.66320  0.82920  0.46748  1.0000 0.1728165566
C   C41       1.0  0.77900  0.88090  0.46362  1.0000 -0.0237607573
C   C42       1.0  0.47600  0.93240  0.79335  1.0000 0.0432298811
C   C43       1.0  0.59370  0.97970  0.79483  1.0000 -0.1020837978
C   C44       1.0  0.66400  0.96480  0.84839  1.0000 -0.145751986
C   C45       1.0  0.61300  0.90370  0.89999  1.0000 0.1821115136
C   C46       1.0  0.49500  0.85810  0.89481  1.0000 -0.028248519
C   C47       1.0  0.70290  0.80290  0.99975  1.0000 0.5282147049
C   C48       1.0  0.79560  0.81260  0.05020  1.0000 -0.3282385797
C   C49       1.0  0.72940  0.79420  0.11390  1.0000 -0.1194833566
C   C50       1.0  0.78190  0.67420  0.14230  1.0000 -0.1588124664
C   C51       1.0  0.70830  0.65490  0.20660  1.0000 -0.1588124664
C   C52       1.0  0.74360  0.71880  0.25530  1.0000 -0.1194833566
C   C53       1.0  0.64010  0.72480  0.31344  1.0000 -0.3400638134
C   C54       1.0  0.66570  0.80380  0.35796  1.0000 0.5222565799
C   C55       1.0  0.01280  0.67300  0.88208  1.0000 0.0311124332
C   C56       1.0  0.90000  0.62150  0.87941  1.0000 -0.1105928489
C   C57       1.0  0.84740  0.61820  0.82383  1.0000 -0.1320598702
C   C58       1.0  0.91350  0.66500  0.77114  1.0000 0.18765257
C   C59       1.0  0.02310  0.71950  0.77723  1.0000 -0.028248519
C   C60       1.0  0.93380  0.66990  0.65723  1.0000 0.5282147049
C   C61       1.0  0.88470  0.61960  0.60603  1.0000 -0.3400638134
C   C62       1.0  0.00150  0.50280  0.59020  1.0000 -0.1320598702
C   C63       1.0  0.97940  0.46300  0.52770  1.0000 -0.1677244634
C   C64       1.0  0.84940  0.17070  0.59774  1.0000 0.5400422483
C   C65       1.0  0.84250  0.19750  0.66375  1.0000 -0.0237607573
C   C66       1.0  0.92970  0.11090  0.70538  1.0000 -0.1105928489
C   C67       1.0  0.92480  0.13480  0.76599  1.0000 -0.028248519
C   C68       1.0  0.02210  0.04240  0.81089  1.0000 0.5494940549
C   C69       1.0  0.82820  0.24580  0.78547  1.0000 -0.1194833566
C   C70       1.0  0.74200  0.33360  0.74418  1.0000 -0.028248519
C   C71       1.0  0.63930  0.45460  0.76555  1.0000 0.5400422483
C   C72       1.0  0.75130  0.31000  0.68342  1.0000 -0.1320598702
N   N1        1.0  0.19220  0.06680  0.49024  1.0000 -0.2122551084
N   N2        1.0  0.57340  0.12790  0.15698  1.0000 -0.2388831109
N   N3        1.0  0.35720  0.22980  0.58206  1.0000 -0.3773907632
N   N4        1.0  0.31760  0.10640  0.04487  1.0000 -0.3773907632
N   N5        1.0  0.92720  0.27800  0.16821  1.0000 -0.2388831109
N   N6        1.0  0.13210  0.34940  0.28590  1.0000 -0.3773907632
N   N7        1.0  0.80780  0.93320  0.50976  1.0000 -0.2122551084
N   N8        1.0  0.42660  0.87210  0.84302  1.0000 -0.2388831109
N   N9        1.0  0.64280  0.77020  0.41794  1.0000 -0.3738633723
N   N10       1.0  0.68240  0.89360  0.95513  1.0000 -0.3773907632
N   N11       1.0  0.07280  0.72200  0.83179  1.0000 -0.2388831109
N   N12       1.0  0.86790  0.65060  0.71410  1.0000 -0.3773907632
O   O1        1.0  0.06530  0.93251  0.41617  1.0000 -0.5436731309
O   O2        1.0  0.86420  0.15941  0.45374  1.0000 -0.6502661139
O   O3        1.0  0.22740  0.74880  0.43892  1.0000 -0.5522836775
O   O4        1.0  0.61660  0.36035  0.11825  1.0000 -0.6714385679
O   O5        1.0  0.87940  0.04837  0.21004  1.0000 -0.5606029362
O   O6        1.0  0.85740  0.14361  0.07781  1.0000 -0.6789002946
O   O7        1.0  0.00270  0.93720  0.13335  1.0000 -0.5803880424
O   O8        1.0  0.64830  0.26622  0.24543  1.0000 -0.6714385679
O   O9        1.0  0.38830  0.45524  0.27360  1.0000 -0.5941396088
O   O10       1.0  0.40760  0.54071  0.17883  1.0000 -0.5677675933
O   O11       1.0  0.34870  0.28150  0.00059  1.0000 -0.518342498
O   O12       1.0  0.29870  0.10530  0.66046  1.0000 -0.4780231596
O   O13       1.0  0.96920  0.27930  0.35212  1.0000 -0.4780231596
O   O14       1.0  0.93470  0.06749  0.58383  1.0000 -0.5436731309
O   O15       1.0  0.13580  0.84059  0.54626  1.0000 -0.6502661139
O   O16       1.0  0.77260  0.25120  0.56108  1.0000 -0.5522836775
O   O17       1.0  0.38340  0.63965  0.88175  1.0000 -0.6714385679
O   O18       1.0  0.12060  0.95163  0.78996  1.0000 -0.5606029362
O   O19       1.0  0.14260  0.85639  0.92219  1.0000 -0.6789002946
O   O20       1.0  0.99730  0.06280  0.86665  1.0000 -0.5803880424
O   O21       1.0  0.35170  0.73378  0.75457  1.0000 -0.6789002946
O   O22       1.0  0.61170  0.54476  0.72640  1.0000 -0.5941396088
O   O23       1.0  0.59240  0.45929  0.82117  1.0000 -0.5677675933
O   O24       1.0  0.65130  0.71850  0.99941  1.0000 -0.518342498
O   O25       1.0  0.70130  0.89470  0.33954  1.0000 -0.4780231596
O   O26       1.0  0.03080  0.72070  0.64788  1.0000 -0.4780231596
