# DDEC6 charges by PACMAN v1.1 (https://github.com/mtap-research/PACMAN-charge/)
data_2016[Zn][ths]3[FSR]9
_chemical_formula_sum              "Zn12 H104 C144 I24 N48"
_cell_length_a       18.8154
_cell_length_b       18.8154
_cell_length_c       31.4266
_cell_angle_alpha    80.0905
_cell_angle_beta     99.9095
_cell_angle_gamma    133.634

_symmetry_space_group_name_H-M    "P 1"
_symmetry_Int_Tables_number       1

loop_
  _symmetry_equiv_pos_as_xyz
  'x, y, z'

loop_
  _atom_site_type_symbol
  _atom_site_label
  _atom_site_symmetry_multiplicity
  _atom_site_fract_x
  _atom_site_fract_y
  _atom_site_fract_z
  _atom_site_occupancy
  _atom_site_charge
Zn  Zn1       1.0  0.72138  0.46744  0.56264  1.0000 0.4688586711
Zn  Zn2       1.0  0.53256  0.27862  0.06264  1.0000 0.4688586711
Zn  Zn3       1.0  0.03508  0.20798  0.90357  1.0000 0.4621890008
Zn  Zn4       1.0  0.79202  0.96492  0.40357  1.0000 0.4621890008
Zn  Zn5       1.0  0.18195  0.52413  0.72915  1.0000 0.4440621405
Zn  Zn6       1.0  0.47587  0.81805  0.22915  1.0000 0.4440621405
Zn  Zn7       1.0  0.46744  0.72138  0.93736  1.0000 0.4688586711
Zn  Zn8       1.0  0.27862  0.53256  0.43736  1.0000 0.4688586711
Zn  Zn9       1.0  0.20798  0.03508  0.59643  1.0000 0.4621890008
Zn  Zn10      1.0  0.96492  0.79202  0.09643  1.0000 0.4621890008
Zn  Zn11      1.0  0.52413  0.18195  0.77085  1.0000 0.4440621405
Zn  Zn12      1.0  0.81805  0.47587  0.27085  1.0000 0.4440621405
H   H1        1.0  0.25380  0.71460  0.67640  1.0000 0.1075361773
H   H2        1.0  0.28540  0.74620  0.17640  1.0000 0.1075361773
H   H3        1.0  0.58540  0.93120  0.14870  1.0000 0.1002962459
H   H4        1.0  0.06880  0.41460  0.64870  1.0000 0.1002962459
H   H5        1.0  0.55060  0.39740  0.11830  1.0000 0.1002962459
H   H6        1.0  0.60260  0.44940  0.61830  1.0000 0.1002962459
H   H7        1.0  0.98740  0.31280  0.83840  1.0000 0.1075361773
H   H8        1.0  0.68720  0.01260  0.33840  1.0000 0.1075361773
H   H9        1.0  0.73380  0.98460  0.80720  1.0000 0.1384766934
H   H10       1.0  0.01540  0.26620  0.30720  1.0000 0.1384766934
H   H11       1.0  0.38690  0.66290  0.76780  1.0000 0.1002962459
H   H12       1.0  0.33710  0.61310  0.26780  1.0000 0.1002962459
H   H13       1.0  0.87980  0.27500  0.77760  1.0000 0.1203096851
H   H14       1.0  0.72500  0.12020  0.27760  1.0000 0.1203096851
H   H15       1.0  0.65520  0.92080  0.09780  1.0000 0.1320627015
H   H16       1.0  0.07920  0.34480  0.59780  1.0000 0.1320627015
H   H17       1.0  0.85220  0.87040  0.97810  1.0000 0.1320627015
H   H18       1.0  0.12960  0.14780  0.47810  1.0000 0.1320627015
H   H19       1.0  0.60930  0.45470  0.99810  1.0000 0.1002962459
H   H20       1.0  0.54530  0.39070  0.49810  1.0000 0.1002962459
H   H21       1.0  0.39450  0.87830  0.67020  1.0000 0.1384766934
H   H22       1.0  0.12170  0.60550  0.17020  1.0000 0.1384766934
H   H23       1.0  0.96560  0.00520  0.93390  1.0000 0.1075361773
H   H24       1.0  0.99480  0.03440  0.43390  1.0000 0.1075361773
H   H25       1.0  0.59160  0.25120  0.57130  1.0000 0.1002962459
H   H26       1.0  0.74880  0.40840  0.07130  1.0000 0.1002962459
H   H27       1.0  0.89990  0.14810  0.96790  1.0000 0.1002962459
H   H28       1.0  0.85190  0.10010  0.46790  1.0000 0.1002962459
H   H29       1.0  0.53310  0.82550  0.76220  1.0000 0.1384766934
H   H30       1.0  0.17450  0.46690  0.26220  1.0000 0.1384766934
H   H31       1.0  0.80230  0.44530  0.65160  1.0000 0.1075361773
H   H32       1.0  0.55470  0.19770  0.15160  1.0000 0.1075361773
H   H33       1.0  0.85620  0.03520  0.86130  1.0000 0.1002962459
H   H34       1.0  0.96480  0.14380  0.36130  1.0000 0.1002962459
H   H35       1.0  0.78330  0.01170  0.01240  1.0000 0.1384766934
H   H36       1.0  0.98830  0.21670  0.51240  1.0000 0.1384766934
H   H37       1.0  0.55650  0.12050  0.61790  1.0000 0.1384766934
H   H38       1.0  0.87950  0.44350  0.11790  1.0000 0.1384766934
H   H39       1.0  0.78660  0.32960  0.69680  1.0000 0.1075361773
H   H40       1.0  0.67040  0.21340  0.19680  1.0000 0.1075361773
H   H41       1.0  0.65010  0.60290  0.99310  1.0000 0.1320627015
H   H42       1.0  0.39710  0.34990  0.49310  1.0000 0.1320627015
H   H43       1.0  0.60330  0.55170  0.12020  1.0000 0.1384766934
H   H44       1.0  0.44830  0.39670  0.62020  1.0000 0.1384766934
H   H45       1.0  0.46450  0.67250  0.19870  1.0000 0.1002962459
H   H46       1.0  0.32750  0.53550  0.69870  1.0000 0.1002962459
H   H47       1.0  0.54010  0.65750  0.15730  1.0000 0.1384766934
H   H48       1.0  0.34250  0.45990  0.65730  1.0000 0.1384766934
H   H49       1.0  0.72540  0.74720  0.00500  1.0000 0.2810436084
H   H50       1.0  0.25280  0.27460  0.50500  1.0000 0.2810436084
H   H51       1.0  0.77620  0.23020  0.72930  1.0000 0.2691728964
H   H52       1.0  0.76980  0.22380  0.22930  1.0000 0.2691728964
H   H53       1.0  0.71460  0.25380  0.82360  1.0000 0.1075361773
H   H54       1.0  0.74620  0.28540  0.32360  1.0000 0.1075361773
H   H55       1.0  0.93120  0.58540  0.35130  1.0000 0.1002962459
H   H56       1.0  0.41460  0.06880  0.85130  1.0000 0.1002962459
H   H57       1.0  0.39740  0.55060  0.38170  1.0000 0.1002962459
H   H58       1.0  0.44940  0.60260  0.88170  1.0000 0.1002962459
H   H59       1.0  0.31280  0.98740  0.66160  1.0000 0.1075361773
H   H60       1.0  0.01260  0.68720  0.16160  1.0000 0.1075361773
H   H61       1.0  0.98460  0.73380  0.69280  1.0000 0.1384766934
H   H62       1.0  0.26620  0.01540  0.19280  1.0000 0.1384766934
H   H63       1.0  0.66290  0.38690  0.73220  1.0000 0.1002962459
H   H64       1.0  0.61310  0.33710  0.23220  1.0000 0.1002962459
H   H65       1.0  0.27500  0.87980  0.72240  1.0000 0.1203096851
H   H66       1.0  0.12020  0.72500  0.22240  1.0000 0.1203096851
H   H67       1.0  0.92080  0.65520  0.40220  1.0000 0.1320627015
H   H68       1.0  0.34480  0.07920  0.90220  1.0000 0.1320627015
H   H69       1.0  0.87040  0.85220  0.52190  1.0000 0.1320627015
H   H70       1.0  0.14780  0.12960  0.02190  1.0000 0.1320627015
H   H71       1.0  0.45470  0.60930  0.50190  1.0000 0.1002962459
H   H72       1.0  0.39070  0.54530  0.00190  1.0000 0.1002962459
H   H73       1.0  0.87830  0.39450  0.82980  1.0000 0.1384766934
H   H74       1.0  0.60550  0.12170  0.32980  1.0000 0.1384766934
H   H75       1.0  0.00520  0.96560  0.56610  1.0000 0.1075361773
H   H76       1.0  0.03440  0.99480  0.06610  1.0000 0.1075361773
H   H77       1.0  0.25120  0.59160  0.92870  1.0000 0.1002962459
H   H78       1.0  0.40840  0.74880  0.42870  1.0000 0.1002962459
H   H79       1.0  0.14810  0.89990  0.53210  1.0000 0.1002962459
H   H80       1.0  0.10010  0.85190  0.03210  1.0000 0.1002962459
H   H81       1.0  0.82550  0.53310  0.73780  1.0000 0.1384766934
H   H82       1.0  0.46690  0.17450  0.23780  1.0000 0.1384766934
H   H83       1.0  0.44530  0.80230  0.84840  1.0000 0.1075361773
H   H84       1.0  0.19770  0.55470  0.34840  1.0000 0.1075361773
H   H85       1.0  0.03520  0.85620  0.63870  1.0000 0.1002962459
H   H86       1.0  0.14380  0.96480  0.13870  1.0000 0.1002962459
H   H87       1.0  0.01170  0.78330  0.48760  1.0000 0.1384766934
H   H88       1.0  0.21670  0.98830  0.98760  1.0000 0.1384766934
H   H89       1.0  0.12050  0.55650  0.88210  1.0000 0.1384766934
H   H90       1.0  0.44350  0.87950  0.38210  1.0000 0.1384766934
H   H91       1.0  0.32960  0.78660  0.80320  1.0000 0.1075361773
H   H92       1.0  0.21340  0.67040  0.30320  1.0000 0.1075361773
H   H93       1.0  0.60290  0.65010  0.50690  1.0000 0.1320627015
H   H94       1.0  0.34990  0.39710  0.00690  1.0000 0.1320627015
H   H95       1.0  0.55170  0.60330  0.37980  1.0000 0.1384766934
H   H96       1.0  0.39670  0.44830  0.87980  1.0000 0.1384766934
H   H97       1.0  0.67250  0.46450  0.30130  1.0000 0.1002962459
H   H98       1.0  0.53550  0.32750  0.80130  1.0000 0.1002962459
H   H99       1.0  0.65750  0.54010  0.34270  1.0000 0.1384766934
H   H100      1.0  0.45990  0.34250  0.84270  1.0000 0.1384766934
H   H101      1.0  0.74720  0.72540  0.49500  1.0000 0.2810436084
H   H102      1.0  0.27460  0.25280  0.99500  1.0000 0.2810436084
H   H103      1.0  0.23020  0.77620  0.77070  1.0000 0.2691728964
H   H104      1.0  0.22380  0.76980  0.27070  1.0000 0.2691728964
C   C1        1.0  0.71480  0.09460  0.74990  1.0000 0.3525625958
C   C2        1.0  0.90540  0.28520  0.24990  1.0000 0.3525625958
C   C3        1.0  0.65520  0.13360  0.69320  1.0000 0.3653781905
C   C4        1.0  0.86640  0.34480  0.19320  1.0000 0.3653781905
C   C5        1.0  0.62260  0.58980  0.05540  1.0000 0.0515490041
C   C6        1.0  0.41020  0.37740  0.55540  1.0000 0.0515490041
C   C7        1.0  0.31100  0.73720  0.69440  1.0000 0.0685973808
C   C8        1.0  0.26280  0.68900  0.19440  1.0000 0.0685973808
C   C9        1.0  0.56950  0.97550  0.71610  1.0000 0.3419956161
C   C10       1.0  0.02450  0.43050  0.21610  1.0000 0.3419956161
C   C11       1.0  0.73480  0.84180  0.03010  1.0000 0.3525625958
C   C12       1.0  0.15820  0.26520  0.53010  1.0000 0.3525625958
C   C13       1.0  0.79070  0.12490  0.78650  1.0000 0.060771443
C   C14       1.0  0.87510  0.20930  0.28650  1.0000 0.060771443
C   C15       1.0  0.57640  0.87460  0.15020  1.0000 0.0909341692
C   C16       1.0  0.12540  0.42360  0.65020  1.0000 0.0909341692
C   C17       1.0  0.80780  0.92760  0.00110  1.0000 0.0515490041
C   C18       1.0  0.07240  0.19220  0.50110  1.0000 0.0515490041
C   C19       1.0  0.57190  0.44050  0.09270  1.0000 0.0909341692
C   C20       1.0  0.55950  0.42810  0.59270  1.0000 0.0909341692
C   C21       1.0  0.60200  0.78800  0.11960  1.0000 0.0795303282
C   C22       1.0  0.21200  0.39800  0.61960  1.0000 0.0795303282
C   C23       1.0  0.93630  0.24650  0.83110  1.0000 0.0795303282
C   C24       1.0  0.75350  0.06370  0.33110  1.0000 0.0795303282
C   C25       1.0  0.47980  0.87160  0.71600  1.0000 0.0685973808
C   C26       1.0  0.12840  0.52020  0.21600  1.0000 0.0685973808
C   C27       1.0  0.64770  0.68370  0.05480  1.0000 0.3419956161
C   C28       1.0  0.31630  0.35230  0.55480  1.0000 0.3419956161
C   C29       1.0  0.78550  0.05230  0.81230  1.0000 -0.1634707164
C   C30       1.0  0.94770  0.21450  0.31230  1.0000 -0.1634707164
C   C31       1.0  0.63870  0.77590  0.08510  1.0000 0.3890605464
C   C32       1.0  0.22410  0.36130  0.58510  1.0000 0.3890605464
C   C33       1.0  0.66840  0.21220  0.66240  1.0000 0.0416353165
C   C34       1.0  0.78780  0.33160  0.16240  1.0000 0.0416353165
C   C35       1.0  0.38890  0.70750  0.74730  1.0000 0.060771443
C   C36       1.0  0.29250  0.61110  0.24730  1.0000 0.060771443
C   C37       1.0  0.87080  0.22380  0.79580  1.0000 -0.1904584024
C   C38       1.0  0.77620  0.12920  0.29580  1.0000 -0.1904584024
C   C39       1.0  0.61700  0.86800  0.11900  1.0000 -0.1416125589
C   C40       1.0  0.13200  0.38300  0.61900  1.0000 -0.1416125589
C   C41       1.0  0.86200  0.92760  0.97650  1.0000 -0.1711611034
C   C42       1.0  0.07240  0.13800  0.47650  1.0000 -0.1711611034
C   C43       1.0  0.60410  0.47330  0.02280  1.0000 0.0909341692
C   C44       1.0  0.52670  0.39590  0.52280  1.0000 0.0909341692
C   C45       1.0  0.39480  0.83500  0.69070  1.0000 -0.1785149791
C   C46       1.0  0.16500  0.60520  0.19070  1.0000 -0.1785149791
C   C47       1.0  0.92860  0.00660  0.95020  1.0000 0.0515490041
C   C48       1.0  0.99340  0.07140  0.45020  1.0000 0.0515490041
C   C49       1.0  0.62990  0.26630  0.59810  1.0000 0.1002962459
C   C50       1.0  0.73370  0.37010  0.09810  1.0000 0.1002962459
C   C51       1.0  0.89010  0.09090  0.97010  1.0000 0.0909341692
C   C52       1.0  0.90910  0.10990  0.47010  1.0000 0.0909341692
C   C53       1.0  0.47600  0.80480  0.74450  1.0000 -0.1497946636
C   C54       1.0  0.19520  0.52400  0.24450  1.0000 -0.1497946636
C   C55       1.0  0.75310  0.37890  0.64430  1.0000 0.0515490041
C   C56       1.0  0.62110  0.24690  0.14430  1.0000 0.0515490041
C   C57       1.0  0.85740  0.08340  0.84490  1.0000 0.0909341692
C   C58       1.0  0.91660  0.14260  0.34490  1.0000 0.0909341692
C   C59       1.0  0.82130  0.01030  0.99690  1.0000 -0.1416125589
C   C60       1.0  0.98970  0.17870  0.49690  1.0000 -0.1416125589
C   C61       1.0  0.60860  0.18700  0.62500  1.0000 -0.1497946636
C   C62       1.0  0.81300  0.39140  0.12500  1.0000 -0.1497946636
C   C63       1.0  0.74330  0.31130  0.67140  1.0000 -0.1711611034
C   C64       1.0  0.68870  0.25670  0.17140  1.0000 -0.1711611034
C   C65       1.0  0.62910  0.56210  0.01940  1.0000 -0.1904584024
C   C66       1.0  0.43790  0.37090  0.51940  1.0000 -0.1904584024
C   C67       1.0  0.59980  0.53100  0.09380  1.0000 -0.1416125589
C   C68       1.0  0.46900  0.40020  0.59380  1.0000 -0.1416125589
C   C69       1.0  0.50940  0.72660  0.17920  1.0000 0.060771443
C   C70       1.0  0.27340  0.49060  0.67920  1.0000 0.060771443
C   C71       1.0  0.54820  0.71380  0.15330  1.0000 -0.1634707164
C   C72       1.0  0.28620  0.45180  0.65330  1.0000 -0.1634707164
C   C73       1.0  0.09460  0.71480  0.75010  1.0000 0.3525625958
C   C74       1.0  0.28520  0.90540  0.25010  1.0000 0.3525625958
C   C75       1.0  0.13360  0.65520  0.80680  1.0000 0.3653781905
C   C76       1.0  0.34480  0.86640  0.30680  1.0000 0.3653781905
C   C77       1.0  0.58980  0.62260  0.44460  1.0000 0.0515490041
C   C78       1.0  0.37740  0.41020  0.94460  1.0000 0.0515490041
C   C79       1.0  0.73720  0.31100  0.80560  1.0000 0.0685973808
C   C80       1.0  0.68900  0.26280  0.30560  1.0000 0.0685973808
C   C81       1.0  0.97550  0.56950  0.78390  1.0000 0.3419956161
C   C82       1.0  0.43050  0.02450  0.28390  1.0000 0.3419956161
C   C83       1.0  0.84180  0.73480  0.46990  1.0000 0.3525625958
C   C84       1.0  0.26520  0.15820  0.96990  1.0000 0.3525625958
C   C85       1.0  0.12490  0.79070  0.71350  1.0000 0.060771443
C   C86       1.0  0.20930  0.87510  0.21350  1.0000 0.060771443
C   C87       1.0  0.87460  0.57640  0.34980  1.0000 0.0909341692
C   C88       1.0  0.42360  0.12540  0.84980  1.0000 0.0909341692
C   C89       1.0  0.92760  0.80780  0.49890  1.0000 0.0515490041
C   C90       1.0  0.19220  0.07240  0.99890  1.0000 0.0515490041
C   C91       1.0  0.44050  0.57190  0.40730  1.0000 0.0909341692
C   C92       1.0  0.42810  0.55950  0.90730  1.0000 0.0909341692
C   C93       1.0  0.78800  0.60200  0.38040  1.0000 0.0795303282
C   C94       1.0  0.39800  0.21200  0.88040  1.0000 0.0795303282
C   C95       1.0  0.24650  0.93630  0.66890  1.0000 0.0795303282
C   C96       1.0  0.06370  0.75350  0.16890  1.0000 0.0795303282
C   C97       1.0  0.87160  0.47980  0.78400  1.0000 0.0685973808
C   C98       1.0  0.52020  0.12840  0.28400  1.0000 0.0685973808
C   C99       1.0  0.68370  0.64770  0.44520  1.0000 0.3419956161
C   C100      1.0  0.35230  0.31630  0.94520  1.0000 0.3419956161
C   C101      1.0  0.05230  0.78550  0.68770  1.0000 -0.1634707164
C   C102      1.0  0.21450  0.94770  0.18770  1.0000 -0.1634707164
C   C103      1.0  0.77590  0.63870  0.41490  1.0000 0.3890605464
C   C104      1.0  0.36130  0.22410  0.91490  1.0000 0.3890605464
C   C105      1.0  0.21220  0.66840  0.83760  1.0000 0.0416353165
C   C106      1.0  0.33160  0.78780  0.33760  1.0000 0.0416353165
C   C107      1.0  0.70750  0.38890  0.75270  1.0000 0.060771443
C   C108      1.0  0.61110  0.29250  0.25270  1.0000 0.060771443
C   C109      1.0  0.22380  0.87080  0.70420  1.0000 -0.1904584024
C   C110      1.0  0.12920  0.77620  0.20420  1.0000 -0.1904584024
C   C111      1.0  0.86800  0.61700  0.38100  1.0000 -0.1416125589
C   C112      1.0  0.38300  0.13200  0.88100  1.0000 -0.1416125589
C   C113      1.0  0.92760  0.86200  0.52350  1.0000 -0.1711611034
C   C114      1.0  0.13800  0.07240  0.02350  1.0000 -0.1711611034
C   C115      1.0  0.47330  0.60410  0.47720  1.0000 0.0909341692
C   C116      1.0  0.39590  0.52670  0.97720  1.0000 0.0909341692
C   C117      1.0  0.83500  0.39480  0.80930  1.0000 -0.1785149791
C   C118      1.0  0.60520  0.16500  0.30930  1.0000 -0.1785149791
C   C119      1.0  0.00660  0.92860  0.54980  1.0000 0.0515490041
C   C120      1.0  0.07140  0.99340  0.04980  1.0000 0.0515490041
C   C121      1.0  0.26630  0.62990  0.90190  1.0000 0.1002962459
C   C122      1.0  0.37010  0.73370  0.40190  1.0000 0.1002962459
C   C123      1.0  0.09090  0.89010  0.52990  1.0000 0.0909341692
C   C124      1.0  0.10990  0.90910  0.02990  1.0000 0.0909341692
C   C125      1.0  0.80480  0.47600  0.75550  1.0000 -0.1497946636
C   C126      1.0  0.52400  0.19520  0.25550  1.0000 -0.1497946636
C   C127      1.0  0.37890  0.75310  0.85570  1.0000 0.0515490041
C   C128      1.0  0.24690  0.62110  0.35570  1.0000 0.0515490041
C   C129      1.0  0.08340  0.85740  0.65510  1.0000 0.0909341692
C   C130      1.0  0.14260  0.91660  0.15510  1.0000 0.0909341692
C   C131      1.0  0.01030  0.82130  0.50310  1.0000 -0.1416125589
C   C132      1.0  0.17870  0.98970  0.00310  1.0000 -0.1416125589
C   C133      1.0  0.18700  0.60860  0.87500  1.0000 -0.1497946636
C   C134      1.0  0.39140  0.81300  0.37500  1.0000 -0.1497946636
C   C135      1.0  0.31130  0.74330  0.82860  1.0000 -0.1711611034
C   C136      1.0  0.25670  0.68870  0.32860  1.0000 -0.1711611034
C   C137      1.0  0.56210  0.62910  0.48060  1.0000 -0.1904584024
C   C138      1.0  0.37090  0.43790  0.98060  1.0000 -0.1904584024
C   C139      1.0  0.53100  0.59980  0.40620  1.0000 -0.1416125589
C   C140      1.0  0.40020  0.46900  0.90620  1.0000 -0.1416125589
C   C141      1.0  0.72660  0.50940  0.32080  1.0000 0.060771443
C   C142      1.0  0.49060  0.27340  0.82080  1.0000 0.060771443
C   C143      1.0  0.71380  0.54820  0.34670  1.0000 -0.1634707164
C   C144      1.0  0.45180  0.28620  0.84670  1.0000 -0.1634707164
I   I1        1.0  0.02608  0.49164  0.70894  1.0000 -0.4704062661
I   I2        1.0  0.50836  0.97392  0.20894  1.0000 -0.4704062661
I   I3        1.0  0.20921  0.45983  0.80299  1.0000 -0.4446562832
I   I4        1.0  0.54017  0.79079  0.30299  1.0000 -0.4446562832
I   I5        1.0  0.84201  0.62763  0.60146  1.0000 -0.4940880866
I   I6        1.0  0.37237  0.15799  0.10146  1.0000 -0.4940880866
I   I7        1.0  0.13289  0.18413  0.87269  1.0000 -0.4648413763
I   I8        1.0  0.81587  0.86711  0.37269  1.0000 -0.4704062661
I   I9        1.0  0.74825  0.45039  0.49042  1.0000 -0.4704062661
I   I10       1.0  0.54961  0.25175  0.99042  1.0000 -0.4704062661
I   I11       1.0  0.10881  0.36055  0.93776  1.0000 -0.4704062661
I   I12       1.0  0.63945  0.89119  0.43776  1.0000 -0.4704062661
I   I13       1.0  0.49164  0.02608  0.79106  1.0000 -0.4704062661
I   I14       1.0  0.97392  0.50836  0.29106  1.0000 -0.4704062661
I   I15       1.0  0.45983  0.20921  0.69701  1.0000 -0.4446562832
I   I16       1.0  0.79079  0.54017  0.19701  1.0000 -0.4453364418
I   I17       1.0  0.62763  0.84201  0.89854  1.0000 -0.4940880866
I   I18       1.0  0.15799  0.37237  0.39854  1.0000 -0.4940880866
I   I19       1.0  0.18413  0.13289  0.62731  1.0000 -0.4648413763
I   I20       1.0  0.86711  0.81587  0.12731  1.0000 -0.4704062661
I   I21       1.0  0.45039  0.74825  0.00958  1.0000 -0.4704062661
I   I22       1.0  0.25175  0.54961  0.50958  1.0000 -0.4704062661
I   I23       1.0  0.36055  0.10881  0.56224  1.0000 -0.4704062661
I   I24       1.0  0.89119  0.63945  0.06224  1.0000 -0.4704062661
N   N1        1.0  0.30640  0.67280  0.72220  1.0000 -0.1904584024
N   N2        1.0  0.32720  0.69360  0.22220  1.0000 -0.1904584024
N   N3        1.0  0.57510  0.04230  0.68760  1.0000 -0.4001928375
N   N4        1.0  0.95770  0.42490  0.18760  1.0000 -0.4001928375
N   N5        1.0  0.94270  0.08970  0.94730  1.0000 -0.1963649199
N   N6        1.0  0.91030  0.05730  0.44730  1.0000 -0.1963649199
N   N7        1.0  0.70260  0.85500  0.05970  1.0000 -0.4001928375
N   N8        1.0  0.14500  0.29740  0.55970  1.0000 -0.4001928375
N   N9        1.0  0.92790  0.17450  0.85530  1.0000 -0.1904584024
N   N10       1.0  0.82550  0.07210  0.35530  1.0000 -0.1904584024
N   N11       1.0  0.70630  0.75550  0.02580  1.0000 -0.3155767725
N   N12       1.0  0.24450  0.29370  0.52580  1.0000 -0.3155767725
N   N13       1.0  0.64030  0.99930  0.74710  1.0000 -0.4001928375
N   N14       1.0  0.00070  0.35970  0.24710  1.0000 -0.4001928375
N   N15       1.0  0.57380  0.41280  0.05760  1.0000 -0.1904584024
N   N16       1.0  0.58720  0.42620  0.55760  1.0000 -0.1904584024
N   N17       1.0  0.69710  0.35930  0.60620  1.0000 -0.1904584024
N   N18       1.0  0.64070  0.30290  0.10620  1.0000 -0.1904584024
N   N19       1.0  0.61020  0.68940  0.08550  1.0000 -0.4103956179
N   N20       1.0  0.31060  0.38980  0.58550  1.0000 -0.4103956179
N   N21       1.0  0.72680  0.16720  0.72510  1.0000 -0.3300478563
N   N22       1.0  0.83280  0.27320  0.22510  1.0000 -0.3300478563
N   N23       1.0  0.52750  0.80650  0.18050  1.0000 -0.1904584024
N   N24       1.0  0.19350  0.47250  0.68050  1.0000 -0.1904584024
N   N25       1.0  0.67280  0.30640  0.77780  1.0000 -0.1904584024
N   N26       1.0  0.69360  0.32720  0.27780  1.0000 -0.1904584024
N   N27       1.0  0.04230  0.57510  0.81240  1.0000 -0.4001928375
N   N28       1.0  0.42490  0.95770  0.31240  1.0000 -0.4001928375
N   N29       1.0  0.08970  0.94270  0.55270  1.0000 -0.1963649199
N   N30       1.0  0.05730  0.91030  0.05270  1.0000 -0.1963649199
N   N31       1.0  0.85500  0.70260  0.44030  1.0000 -0.4001928375
N   N32       1.0  0.29740  0.14500  0.94030  1.0000 -0.4001928375
N   N33       1.0  0.17450  0.92790  0.64470  1.0000 -0.1904584024
N   N34       1.0  0.07210  0.82550  0.14470  1.0000 -0.1904584024
N   N35       1.0  0.75550  0.70630  0.47420  1.0000 -0.3155767725
N   N36       1.0  0.29370  0.24450  0.97420  1.0000 -0.3155767725
N   N37       1.0  0.99930  0.64030  0.75290  1.0000 -0.4001928375
N   N38       1.0  0.35970  0.00070  0.25290  1.0000 -0.4001928375
N   N39       1.0  0.41280  0.57380  0.44240  1.0000 -0.1904584024
N   N40       1.0  0.42620  0.58720  0.94240  1.0000 -0.1904584024
N   N41       1.0  0.35930  0.69710  0.89380  1.0000 -0.1904584024
N   N42       1.0  0.30290  0.64070  0.39380  1.0000 -0.1904584024
N   N43       1.0  0.68940  0.61020  0.41450  1.0000 -0.4103956179
N   N44       1.0  0.38980  0.31060  0.91450  1.0000 -0.4103956179
N   N45       1.0  0.16720  0.72680  0.77490  1.0000 -0.3300478563
N   N46       1.0  0.27320  0.83280  0.27490  1.0000 -0.3300478563
N   N47       1.0  0.80650  0.52750  0.31950  1.0000 -0.1904584024
N   N48       1.0  0.47250  0.19350  0.81950  1.0000 -0.1904584024
