# DDEC6 charges by PACMAN v1.1 (https://github.com/mtap-research/PACMAN-charge/)
data_2016[Ga][nan]3[FSR]6
_chemical_formula_sum              "Ga4 H16 C32 O20"
_cell_length_a       12.1881
_cell_length_b       12.1881
_cell_length_c       12.1881
_cell_angle_alpha    103.725
_cell_angle_beta     103.725
_cell_angle_gamma    121.699

_symmetry_space_group_name_H-M    "P 1"
_symmetry_Int_Tables_number       1

loop_
  _symmetry_equiv_pos_as_xyz
  'x, y, z'

loop_
  _atom_site_type_symbol
  _atom_site_label
  _atom_site_symmetry_multiplicity
  _atom_site_fract_x
  _atom_site_fract_y
  _atom_site_fract_z
  _atom_site_occupancy
  _atom_site_charge
Ga  Ga1       1.0  0.19473  0.19473  0.38946  1.0000 1.439337324
Ga  Ga2       1.0  0.80527  0.80527  0.61054  1.0000 1.439337324
Ga  Ga3       1.0  0.05527  0.94473  0.50000  1.0000 1.439337324
Ga  Ga4       1.0  0.44473  0.55527  0.50000  1.0000 1.439337324
H   H1        1.0  0.43290  0.37500  0.55790  1.0000 0.4054071713
H   H2        1.0  0.81710  0.87500  0.44210  1.0000 0.4054071713
H   H3        1.0  0.12500  0.18290  0.55790  1.0000 0.4054071713
H   H4        1.0  0.62500  0.56710  0.44210  1.0000 0.4054071713
H   H5        1.0  0.13020  0.63020  0.50000  1.0000 0.1400773857
H   H6        1.0  0.88020  0.88020  0.00000  1.0000 0.1400773857
H   H7        1.0  0.11980  0.11980  0.00000  1.0000 0.1400773857
H   H8        1.0  0.36980  0.86980  0.50000  1.0000 0.1400773857
H   H9        1.0  0.89260  0.21170  0.44370  1.0000 0.1222192781
H   H10       1.0  0.76800  0.44890  0.55630  1.0000 0.1222192781
H   H11       1.0  0.69890  0.64260  0.18090  1.0000 0.1222192781
H   H12       1.0  0.46170  0.51800  0.81910  1.0000 0.1222192781
H   H13       1.0  0.35740  0.30110  0.81910  1.0000 0.1222192781
H   H14       1.0  0.48200  0.53830  0.18090  1.0000 0.1222192781
H   H15       1.0  0.55110  0.23200  0.44370  1.0000 0.1222192781
H   H16       1.0  0.78830  0.10740  0.55630  1.0000 0.1222192781
C   C1        1.0  0.05020  0.55020  0.50000  1.0000 -0.0932254795
C   C2        1.0  0.80020  0.80020  0.00000  1.0000 -0.0932254795
C   C3        1.0  0.19980  0.19980  0.00000  1.0000 -0.0932254795
C   C4        1.0  0.44980  0.94980  0.50000  1.0000 -0.0932254795
C   C5        1.0  0.14070  0.41030  0.45420  1.0000 0.609077822
C   C6        1.0  0.95610  0.68650  0.54580  1.0000 0.609077822
C   C7        1.0  0.93650  0.89070  0.23040  1.0000 0.609077822
C   C8        1.0  0.66030  0.70610  0.76960  1.0000 0.609077822
C   C9        1.0  0.10930  0.06350  0.76960  1.0000 0.609077822
C   C10       1.0  0.29390  0.33970  0.23040  1.0000 0.609077822
C   C11       1.0  0.31350  0.04390  0.45420  1.0000 0.609077822
C   C12       1.0  0.58970  0.85930  0.54580  1.0000 0.609077822
C   C13       1.0  0.03080  0.42000  0.47140  1.0000 -0.0529585029
C   C14       1.0  0.94860  0.55940  0.52860  1.0000 -0.0529585029
C   C15       1.0  0.80940  0.78080  0.11080  1.0000 -0.0529585029
C   C16       1.0  0.67000  0.69860  0.88920  1.0000 -0.0529585029
C   C17       1.0  0.21920  0.19060  0.88920  1.0000 -0.0529585029
C   C18       1.0  0.30140  0.33000  0.11080  1.0000 -0.0529585029
C   C19       1.0  0.44060  0.05140  0.47140  1.0000 -0.0529585029
C   C20       1.0  0.58000  0.96920  0.52860  1.0000 -0.0529585029
C   C21       1.0  0.81360  0.31360  0.50000  1.0000 0.0776609886
C   C22       1.0  0.56360  0.56360  0.00000  1.0000 0.0776609886
C   C23       1.0  0.43640  0.43640  0.00000  1.0000 0.0776609886
C   C24       1.0  0.68640  0.18640  0.50000  1.0000 0.0776609886
C   C25       1.0  0.90890  0.30100  0.46810  1.0000 -0.1380541422
C   C26       1.0  0.83290  0.44080  0.53190  1.0000 -0.1380541422
C   C27       1.0  0.69080  0.65890  0.10790  1.0000 -0.1380541422
C   C28       1.0  0.55100  0.58290  0.89210  1.0000 -0.1380541422
C   C29       1.0  0.34110  0.30920  0.89210  1.0000 -0.1380541422
C   C30       1.0  0.41710  0.44900  0.10790  1.0000 -0.1380541422
C   C31       1.0  0.55920  0.16710  0.46810  1.0000 -0.1380541422
C   C32       1.0  0.69900  0.09110  0.53190  1.0000 -0.1380541422
O   O1        1.0  0.09840  0.28460  0.38540  1.0000 -0.5798283931
O   O2        1.0  0.89920  0.71300  0.61460  1.0000 -0.5798283931
O   O3        1.0  0.96300  0.84840  0.31380  1.0000 -0.5798283931
O   O4        1.0  0.53460  0.64920  0.68620  1.0000 -0.5798283931
O   O5        1.0  0.15160  0.03700  0.68620  1.0000 -0.5798283931
O   O6        1.0  0.35080  0.46540  0.31380  1.0000 -0.5798283931
O   O7        1.0  0.28700  0.10080  0.38540  1.0000 -0.5798283931
O   O8        1.0  0.71540  0.90160  0.61460  1.0000 -0.5798283931
O   O9        1.0  0.37730  0.37500  0.50230  1.0000 -0.8595277559
O   O10       1.0  0.87270  0.87500  0.49770  1.0000 -0.8595277559
O   O11       1.0  0.12500  0.12730  0.50230  1.0000 -0.8595277559
O   O12       1.0  0.62500  0.62270  0.49770  1.0000 -0.8595277559
O   O13       1.0  0.26760  0.52320  0.50580  1.0000 -0.5154725546
O   O14       1.0  0.01740  0.76180  0.49420  1.0000 -0.5154725546
O   O15       1.0  0.01180  0.01760  0.24440  1.0000 -0.5154725546
O   O16       1.0  0.77320  0.76740  0.75560  1.0000 -0.5142591488
O   O17       1.0  0.98240  0.98820  0.75560  1.0000 -0.5154725546
O   O18       1.0  0.23260  0.22680  0.24440  1.0000 -0.5154725546
O   O19       1.0  0.23820  0.98260  0.50580  1.0000 -0.5154725546
O   O20       1.0  0.47680  0.73240  0.49420  1.0000 -0.5154725546
