# DDEC6 charges by PACMAN v1.1 (https://github.com/mtap-research/PACMAN-charge/)
data_2016[In][bpq]3[FSR]2
_chemical_formula_sum              "In4 H32 C60 N4 O40"
_cell_length_a       7.2776
_cell_length_b       22.06
_cell_length_c       15.6729
_cell_angle_alpha    90
_cell_angle_beta     108.637
_cell_angle_gamma    90

_symmetry_space_group_name_H-M    "P 1"
_symmetry_Int_Tables_number       1

loop_
  _symmetry_equiv_pos_as_xyz
  'x, y, z'

loop_
  _atom_site_type_symbol
  _atom_site_label
  _atom_site_symmetry_multiplicity
  _atom_site_fract_x
  _atom_site_fract_y
  _atom_site_fract_z
  _atom_site_occupancy
  _atom_site_charge
In  In1       1.0  0.00000  0.50000  0.00000  1.0000 1.4882882458
In  In2       1.0  1.00000  0.00000  0.50000  1.0000 1.4882882458
In  In3       1.0  0.50000  0.50000  0.00000  1.0000 1.5564874035
In  In4       1.0  0.50000  0.00000  0.50000  1.0000 1.5564874035
H   H1        1.0  0.32030  0.49590  0.71820  1.0000 0.1305642746
H   H2        1.0  0.67970  0.99590  0.78180  1.0000 0.1305642746
H   H3        1.0  0.67970  0.50410  0.28180  1.0000 0.1305642746
H   H4        1.0  0.32030  0.00410  0.21820  1.0000 0.1305642746
H   H5        1.0  0.82700  0.41310  0.71940  1.0000 0.1524591368
H   H6        1.0  0.17300  0.91310  0.78060  1.0000 0.1524591368
H   H7        1.0  0.17300  0.58690  0.28060  1.0000 0.1524591368
H   H8        1.0  0.82700  0.08690  0.21940  1.0000 0.1524591368
H   H9        1.0  0.98740  0.40950  0.49670  1.0000 0.1384430431
H   H10       1.0  0.01260  0.90950  0.00330  1.0000 0.1384430431
H   H11       1.0  0.01260  0.59050  0.50330  1.0000 0.1384430431
H   H12       1.0  0.98740  0.09050  0.99670  1.0000 0.1384430431
H   H13       1.0  0.02790  0.30050  0.57580  1.0000 0.1305642746
H   H14       1.0  0.97210  0.80050  0.92420  1.0000 0.1305642746
H   H15       1.0  0.97210  0.69950  0.42420  1.0000 0.1305642746
H   H16       1.0  0.02790  0.19950  0.07580  1.0000 0.1305642746
H   H17       1.0  0.03490  0.19800  0.55680  1.0000 0.1305642746
H   H18       1.0  0.96510  0.69800  0.94320  1.0000 0.1305642746
H   H19       1.0  0.96510  0.80200  0.44320  1.0000 0.1305642746
H   H20       1.0  0.03490  0.30200  0.05680  1.0000 0.1305642746
H   H21       1.0  0.46130  0.19050  0.51230  1.0000 0.1384430431
H   H22       1.0  0.53870  0.69050  0.98770  1.0000 0.1384430431
H   H23       1.0  0.53870  0.80950  0.48770  1.0000 0.1384430431
H   H24       1.0  0.46130  0.30950  0.01230  1.0000 0.1384430431
H   H25       1.0  0.27890  0.45360  0.10870  1.0000 0.4037104395
H   H26       1.0  0.72110  0.95360  0.39130  1.0000 0.4037104395
H   H27       1.0  0.72110  0.54640  0.89130  1.0000 0.4037104395
H   H28       1.0  0.27890  0.04640  0.60870  1.0000 0.4037104395
H   H29       1.0  0.37000  0.46590  0.45530  1.0000 0.3620652181
H   H30       1.0  0.63000  0.96590  0.04470  1.0000 0.3620652181
H   H31       1.0  0.63000  0.53410  0.54470  1.0000 0.3620652181
H   H32       1.0  0.37000  0.03410  0.95530  1.0000 0.3620652181
C   C1        1.0  0.12450  0.47520  0.83130  1.0000 0.6003613693
C   C2        1.0  0.87550  0.97520  0.66870  1.0000 0.6003613693
C   C3        1.0  0.87550  0.52480  0.16870  1.0000 0.6003613693
C   C4        1.0  0.12450  0.02480  0.33130  1.0000 0.6003613693
C   C5        1.0  0.08210  0.45700  0.73480  1.0000 -0.0004958099
C   C6        1.0  0.91790  0.95700  0.76520  1.0000 0.0001618377
C   C7        1.0  0.91790  0.54300  0.26520  1.0000 0.0001618377
C   C8        1.0  0.08210  0.04300  0.23480  1.0000 -0.0004958099
C   C9        1.0  0.21070  0.47310  0.68920  1.0000 -0.1194801278
C   C10       1.0  0.78930  0.97310  0.81080  1.0000 -0.1194801278
C   C11       1.0  0.78930  0.52690  0.31080  1.0000 -0.1194801278
C   C12       1.0  0.21070  0.02690  0.18920  1.0000 -0.1194801278
C   C13       1.0  0.91690  0.42280  0.69070  1.0000 -0.1953899491
C   C14       1.0  0.08310  0.92280  0.80930  1.0000 -0.1953899491
C   C15       1.0  0.08310  0.57720  0.30930  1.0000 -0.1953899491
C   C16       1.0  0.91690  0.07720  0.19070  1.0000 -0.1915579039
C   C17       1.0  0.17550  0.45520  0.60030  1.0000 -0.0177723356
C   C18       1.0  0.82450  0.95520  0.89970  1.0000 -0.0177723356
C   C19       1.0  0.82450  0.54480  0.39970  1.0000 -0.0177723356
C   C20       1.0  0.17550  0.04480  0.10030  1.0000 -0.0177723356
C   C21       1.0  0.01320  0.42090  0.55650  1.0000 -0.2099337488
C   C22       1.0  0.98680  0.92090  0.94350  1.0000 -0.2099337488
C   C23       1.0  0.98680  0.57910  0.44350  1.0000 -0.2099337488
C   C24       1.0  0.01320  0.07910  0.05650  1.0000 -0.2099337488
C   C25       1.0  0.89050  0.40380  0.60410  1.0000 0.2446978909
C   C26       1.0  0.10950  0.90380  0.89590  1.0000 0.2455007058
C   C27       1.0  0.10950  0.59620  0.39590  1.0000 0.2446978909
C   C28       1.0  0.89050  0.09620  0.10410  1.0000 0.2446978909
C   C29       1.0  0.91310  0.27850  0.56220  1.0000 -0.1915579039
C   C30       1.0  0.08690  0.77850  0.93780  1.0000 -0.1915579039
C   C31       1.0  0.08690  0.72150  0.43780  1.0000 -0.1915579039
C   C32       1.0  0.91310  0.22150  0.06220  1.0000 -0.1915579039
C   C33       1.0  0.74680  0.30780  0.55470  1.0000 0.2146894258
C   C34       1.0  0.25320  0.80780  0.94530  1.0000 0.2150948566
C   C35       1.0  0.25320  0.69220  0.44530  1.0000 0.2146894258
C   C36       1.0  0.74680  0.19220  0.05470  1.0000 0.2146894258
C   C37       1.0  0.91740  0.21720  0.55030  1.0000 -0.0660480972
C   C38       1.0  0.08260  0.71720  0.94970  1.0000 -0.0660480972
C   C39       1.0  0.08260  0.78280  0.44970  1.0000 -0.0660480972
C   C40       1.0  0.91740  0.28280  0.05030  1.0000 -0.0660480972
C   C41       1.0  0.57830  0.27340  0.53520  1.0000 -0.0177723356
C   C42       1.0  0.42170  0.77340  0.96480  1.0000 -0.0177723356
C   C43       1.0  0.42170  0.72660  0.46480  1.0000 -0.0177723356
C   C44       1.0  0.57830  0.22660  0.03520  1.0000 -0.0177723356
C   C45       1.0  0.31780  0.47370  0.55510  1.0000 0.5525266749
C   C46       1.0  0.68220  0.97370  0.94490  1.0000 0.5525266749
C   C47       1.0  0.68220  0.52630  0.44490  1.0000 0.5525266749
C   C48       1.0  0.31780  0.02630  0.05510  1.0000 0.5525266749
C   C49       1.0  0.74850  0.18350  0.52860  1.0000 -0.0177723356
C   C50       1.0  0.25150  0.68350  0.97140  1.0000 -0.0177723356
C   C51       1.0  0.25150  0.81650  0.47140  1.0000 -0.0177723356
C   C52       1.0  0.74850  0.31650  0.02860  1.0000 -0.0177723356
C   C53       1.0  0.74830  0.11620  0.51490  1.0000 0.6135400754
C   C54       1.0  0.25170  0.61620  0.98510  1.0000 0.6135400754
C   C55       1.0  0.25170  0.88380  0.48510  1.0000 0.6135400754
C   C56       1.0  0.74830  0.38380  0.01490  1.0000 0.6135400754
C   C57       1.0  0.57580  0.21240  0.52350  1.0000 -0.1341858932
C   C58       1.0  0.42420  0.71240  0.97650  1.0000 -0.1341858932
C   C59       1.0  0.42420  0.78760  0.47650  1.0000 -0.1352630633
C   C60       1.0  0.57580  0.28760  0.02350  1.0000 -0.1341858932
N   N1        1.0  0.39870  0.30210  0.53900  1.0000 0.5133452636
N   N2        1.0  0.60130  0.80210  0.96100  1.0000 0.5133452636
N   N3        1.0  0.60130  0.69790  0.46100  1.0000 0.5133452636
N   N4        1.0  0.39870  0.19790  0.03900  1.0000 0.5152267438
O   O1        1.0  0.28550  0.47110  0.05410  1.0000 -0.8805594224
O   O2        1.0  0.71450  0.97110  0.44590  1.0000 -0.8805594224
O   O3        1.0  0.71450  0.52890  0.94590  1.0000 -0.8805594224
O   O4        1.0  0.28550  0.02890  0.55410  1.0000 -0.8805594224
O   O5        1.0  0.99670  0.46920  0.86590  1.0000 -0.5463956374
O   O6        1.0  0.00330  0.96920  0.63410  1.0000 -0.5463956374
O   O7        1.0  0.00330  0.53080  0.13410  1.0000 -0.5463956374
O   O8        1.0  0.99670  0.03080  0.36590  1.0000 -0.5463956374
O   O9        1.0  0.28900  0.49630  0.86800  1.0000 -0.5692974506
O   O10       1.0  0.71100  0.99630  0.63200  1.0000 -0.5692974506
O   O11       1.0  0.71100  0.50370  0.13200  1.0000 -0.5692974506
O   O12       1.0  0.28900  0.00370  0.36800  1.0000 -0.5692974506
O   O13       1.0  0.72310  0.36950  0.56080  1.0000 -0.2099337488
O   O14       1.0  0.27690  0.86950  0.93920  1.0000 -0.2099337488
O   O15       1.0  0.27690  0.63050  0.43920  1.0000 -0.2099337488
O   O16       1.0  0.72310  0.13050  0.06080  1.0000 -0.2099337488
O   O17       1.0  0.28020  0.45640  0.47360  1.0000 -0.4275547791
O   O18       1.0  0.71980  0.95640  0.02640  1.0000 -0.4275547791
O   O19       1.0  0.71980  0.54360  0.52640  1.0000 -0.4275547791
O   O20       1.0  0.28020  0.04360  0.97360  1.0000 -0.4275547791
O   O21       1.0  0.46150  0.50380  0.59690  1.0000 -0.5119152147
O   O22       1.0  0.53850  0.00380  0.90310  1.0000 -0.5119152147
O   O23       1.0  0.53850  0.49620  0.40310  1.0000 -0.5119152147
O   O24       1.0  0.46150  0.99620  0.09690  1.0000 -0.5119152147
O   O25       1.0  0.90540  0.09040  0.52500  1.0000 -0.5646469372
O   O26       1.0  0.09460  0.59040  0.97500  1.0000 -0.5646469372
O   O27       1.0  0.09460  0.90960  0.47500  1.0000 -0.5646469372
O   O28       1.0  0.90540  0.40960  0.02500  1.0000 -0.5692974506
O   O29       1.0  0.58220  0.09180  0.48960  1.0000 -0.5692974506
O   O30       1.0  0.41780  0.59180  0.01040  1.0000 -0.5692974506
O   O31       1.0  0.41780  0.90820  0.51040  1.0000 -0.5692974506
O   O32       1.0  0.58220  0.40820  0.98960  1.0000 -0.5692974506
O   O33       1.0  0.25380  0.29280  0.47280  1.0000 -0.3189209032
O   O34       1.0  0.74620  0.79280  0.02720  1.0000 -0.3189209032
O   O35       1.0  0.74620  0.70720  0.52720  1.0000 -0.3189209032
O   O36       1.0  0.25380  0.20720  0.97280  1.0000 -0.3189209032
O   O37       1.0  0.39680  0.33440  0.59880  1.0000 -0.2800594944
O   O38       1.0  0.60320  0.83440  0.90120  1.0000 -0.2800594944
O   O39       1.0  0.60320  0.66560  0.40120  1.0000 -0.2800594944
O   O40       1.0  0.39680  0.16560  0.09880  1.0000 -0.2800594944
