# DDEC6 charges by PACMAN v1.1 (https://github.com/mtap-research/PACMAN-charge/)
data_2016[Mg][pcu]3[FSR]1
_chemical_formula_sum              "Mg8 H24 C24 O48"
_cell_length_a       12.1246
_cell_length_b       12.2087
_cell_length_c       17.2006
_cell_angle_alpha    90
_cell_angle_beta     133.41
_cell_angle_gamma    90

_symmetry_space_group_name_H-M    "P 1"
_symmetry_Int_Tables_number       1

loop_
  _symmetry_equiv_pos_as_xyz
  'x, y, z'

loop_
  _atom_site_type_symbol
  _atom_site_label
  _atom_site_symmetry_multiplicity
  _atom_site_fract_x
  _atom_site_fract_y
  _atom_site_fract_z
  _atom_site_occupancy
  _atom_site_charge
Mg  Mg1       1.0  0.73564  0.24887  0.99422  1.0000 1.3065269606
Mg  Mg2       1.0  0.26436  0.74887  0.50578  1.0000 1.3065269606
Mg  Mg3       1.0  0.26436  0.75113  0.00578  1.0000 1.3065269606
Mg  Mg4       1.0  0.73564  0.25113  0.49422  1.0000 1.3065269606
Mg  Mg5       1.0  0.23661  0.25082  0.99518  1.0000 1.3025350289
Mg  Mg6       1.0  0.76339  0.75082  0.50482  1.0000 1.3025350289
Mg  Mg7       1.0  0.76339  0.74918  0.00482  1.0000 1.3025350289
Mg  Mg8       1.0  0.23661  0.24918  0.49518  1.0000 1.3025350289
H   H1        1.0  0.92980  0.27770  0.93690  1.0000 0.1182738904
H   H2        1.0  0.07020  0.77770  0.56310  1.0000 0.1182738904
H   H3        1.0  0.07020  0.72230  0.06310  1.0000 0.1182738904
H   H4        1.0  0.92980  0.22230  0.43690  1.0000 0.1182738904
H   H5        1.0  0.44530  0.34670  0.24250  1.0000 0.1267685758
H   H6        1.0  0.55470  0.84670  0.25750  1.0000 0.1267685758
H   H7        1.0  0.55470  0.65330  0.75750  1.0000 0.1267685758
H   H8        1.0  0.44530  0.15330  0.74250  1.0000 0.1267685758
H   H9        1.0  0.69720  0.99940  0.91940  1.0000 0.114409426
H   H10       1.0  0.30280  0.49940  0.58060  1.0000 0.114409426
H   H11       1.0  0.30280  0.00060  0.08060  1.0000 0.114409426
H   H12       1.0  0.69720  0.50060  0.41940  1.0000 0.114409426
H   H13       1.0  0.77240  0.50310  0.06470  1.0000 0.114409426
H   H14       1.0  0.22760  0.00310  0.43530  1.0000 0.114409426
H   H15       1.0  0.22760  0.49690  0.93530  1.0000 0.114409426
H   H16       1.0  0.77240  0.99690  0.56470  1.0000 0.114409426
H   H17       1.0  0.03910  0.17120  0.24310  1.0000 0.1182738904
H   H18       1.0  0.96090  0.67120  0.25690  1.0000 0.1182738904
H   H19       1.0  0.96090  0.82880  0.75690  1.0000 0.1182738904
H   H20       1.0  0.03910  0.32880  0.74310  1.0000 0.1182738904
H   H21       1.0  0.42180  0.19500  0.92500  1.0000 0.114409426
H   H22       1.0  0.57820  0.69500  0.57500  1.0000 0.114409426
H   H23       1.0  0.57820  0.80500  0.07500  1.0000 0.114409426
H   H24       1.0  0.42180  0.30500  0.42500  1.0000 0.114409426
C   C1        1.0  0.98180  0.22560  0.99120  1.0000 0.5359774546
C   C2        1.0  0.01820  0.72560  0.50880  1.0000 0.5359774546
C   C3        1.0  0.01820  0.77440  0.00880  1.0000 0.5359774546
C   C4        1.0  0.98180  0.27440  0.49120  1.0000 0.5359774546
C   C5        1.0  0.48770  0.28250  0.24360  1.0000 0.5323989914
C   C6        1.0  0.51230  0.78250  0.25640  1.0000 0.5323989914
C   C7        1.0  0.51230  0.71750  0.75640  1.0000 0.5323989914
C   C8        1.0  0.48770  0.21750  0.74360  1.0000 0.5323989914
C   C9        1.0  0.70290  0.99920  0.97610  1.0000 0.5323989914
C   C10       1.0  0.29710  0.49920  0.52390  1.0000 0.5323989914
C   C11       1.0  0.29710  0.00080  0.02390  1.0000 0.5323989914
C   C12       1.0  0.70290  0.50080  0.47610  1.0000 0.5323989914
C   C13       1.0  0.78370  0.50100  0.01640  1.0000 0.5323989914
C   C14       1.0  0.21630  0.00100  0.48360  1.0000 0.5323989914
C   C15       1.0  0.21630  0.49900  0.98360  1.0000 0.5323989914
C   C16       1.0  0.78370  0.99900  0.51640  1.0000 0.5323989914
C   C17       1.0  0.98920  0.22700  0.24540  1.0000 0.5323989914
C   C18       1.0  0.01080  0.72700  0.25460  1.0000 0.5323989914
C   C19       1.0  0.01080  0.77300  0.75460  1.0000 0.5323989914
C   C20       1.0  0.98920  0.27300  0.74540  1.0000 0.5323989914
C   C21       1.0  0.45270  0.26250  0.95930  1.0000 0.5323989914
C   C22       1.0  0.54730  0.76250  0.54070  1.0000 0.5323989914
C   C23       1.0  0.54730  0.73750  0.04070  1.0000 0.5323989914
C   C24       1.0  0.45270  0.23750  0.45930  1.0000 0.5323989914
O   O1        1.0  0.10747  0.19522  0.02680  1.0000 -0.5520984246
O   O2        1.0  0.89253  0.69522  0.47320  1.0000 -0.5520984246
O   O3        1.0  0.89253  0.80478  0.97320  1.0000 -0.5520984246
O   O4        1.0  0.10747  0.30478  0.52680  1.0000 -0.5520984246
O   O5        1.0  0.56720  0.29986  0.98601  1.0000 -0.5182060106
O   O6        1.0  0.43280  0.79986  0.51399  1.0000 -0.5182060106
O   O7        1.0  0.43280  0.70014  0.01399  1.0000 -0.5182060106
O   O8        1.0  0.56720  0.20014  0.48601  1.0000 -0.5182060106
O   O9        1.0  0.78093  0.40913  0.98351  1.0000 -0.5424588306
O   O10       1.0  0.21907  0.90913  0.51649  1.0000 -0.5424588306
O   O11       1.0  0.21907  0.59087  0.01649  1.0000 -0.5424588306
O   O12       1.0  0.78093  0.09087  0.48351  1.0000 -0.5424588306
O   O13       1.0  0.68677  0.08904  0.00123  1.0000 -0.5775087459
O   O14       1.0  0.31323  0.58904  0.49877  1.0000 -0.5775087459
O   O15       1.0  0.31323  0.91096  0.99877  1.0000 -0.5775087459
O   O16       1.0  0.68677  0.41096  0.50123  1.0000 -0.5775087459
O   O17       1.0  0.87300  0.26378  0.15881  1.0000 -0.5182060106
O   O18       1.0  0.12700  0.76378  0.34119  1.0000 -0.5254318102
O   O19       1.0  0.12700  0.73622  0.84119  1.0000 -0.5254318102
O   O20       1.0  0.87300  0.23622  0.65881  1.0000 -0.5254318102
O   O21       1.0  0.92010  0.19345  0.02080  1.0000 -0.5520984246
O   O22       1.0  0.07990  0.69345  0.47920  1.0000 -0.5520984246
O   O23       1.0  0.07990  0.80655  0.97920  1.0000 -0.5520984246
O   O24       1.0  0.92010  0.30655  0.52080  1.0000 -0.5520984246
O   O25       1.0  0.42228  0.24065  0.15742  1.0000 -0.5123525245
O   O26       1.0  0.57772  0.74065  0.34258  1.0000 -0.5123525245
O   O27       1.0  0.57772  0.75935  0.84258  1.0000 -0.5123525245
O   O28       1.0  0.42228  0.25935  0.65742  1.0000 -0.5123525245
O   O29       1.0  0.37245  0.30154  0.97151  1.0000 -0.5520984246
O   O30       1.0  0.62755  0.80154  0.52849  1.0000 -0.5520984246
O   O31       1.0  0.62755  0.69846  0.02849  1.0000 -0.5520984246
O   O32       1.0  0.37245  0.19846  0.47151  1.0000 -0.5520984246
O   O33       1.0  0.04525  0.25709  0.33416  1.0000 -0.5520984246
O   O34       1.0  0.95475  0.75709  0.16584  1.0000 -0.5520984246
O   O35       1.0  0.95475  0.74291  0.66584  1.0000 -0.5520984246
O   O36       1.0  0.04525  0.24291  0.83416  1.0000 -0.5520984246
O   O37       1.0  0.79991  0.58928  0.99070  1.0000 -0.5665829165
O   O38       1.0  0.20009  0.08928  0.50930  1.0000 -0.5665829165
O   O39       1.0  0.20009  0.41072  0.00930  1.0000 -0.5665829165
O   O40       1.0  0.79991  0.91072  0.49070  1.0000 -0.5665829165
O   O41       1.0  0.72513  0.91095  0.01761  1.0000 -0.5123525245
O   O42       1.0  0.27487  0.41095  0.48239  1.0000 -0.5123525245
O   O43       1.0  0.27487  0.08905  0.98239  1.0000 -0.5123525245
O   O44       1.0  0.72513  0.58905  0.51761  1.0000 -0.5123525245
O   O45       1.0  0.60318  0.25011  0.33198  1.0000 -0.5520984246
O   O46       1.0  0.39682  0.75011  0.16802  1.0000 -0.5520984246
O   O47       1.0  0.39682  0.74989  0.66802  1.0000 -0.5520984246
O   O48       1.0  0.60318  0.24989  0.83198  1.0000 -0.5520984246
