# DDEC6 charges by PACMAN v1.1 (https://github.com/mtap-research/PACMAN-charge/)
data_2016[In][nan]3[FSR]9
_chemical_formula_sum              "In4 H16 C32 O20"
_cell_length_a       12.5655
_cell_length_b       12.5655
_cell_length_c       12.5655
_cell_angle_alpha    103.884
_cell_angle_beta     103.884
_cell_angle_gamma    121.338

_symmetry_space_group_name_H-M    "P 1"
_symmetry_Int_Tables_number       1

loop_
  _symmetry_equiv_pos_as_xyz
  'x, y, z'

loop_
  _atom_site_type_symbol
  _atom_site_label
  _atom_site_symmetry_multiplicity
  _atom_site_fract_x
  _atom_site_fract_y
  _atom_site_fract_z
  _atom_site_occupancy
  _atom_site_charge
In  In1       1.0  0.18400  0.81600  0.00000  1.0000 1.5745398709
In  In2       1.0  0.43400  0.93400  0.86800  1.0000 1.5745398709
In  In3       1.0  0.81600  0.18400  0.00000  1.0000 1.5745398709
In  In4       1.0  0.06600  0.56600  0.13200  1.0000 1.5745398709
H   H1        1.0  0.44350  0.87500  0.06850  1.0000 0.4027539798
H   H2        1.0  0.62500  0.19350  0.06850  1.0000 0.4027539798
H   H3        1.0  0.80650  0.37500  0.93150  1.0000 0.4027539798
H   H4        1.0  0.12500  0.55650  0.93150  1.0000 0.4027539798
H   H5        1.0  0.12540  0.12540  0.00000  1.0000 0.1374438711
H   H6        1.0  0.37540  0.87540  0.50000  1.0000 0.1374438711
H   H7        1.0  0.12460  0.62460  0.50000  1.0000 0.1374438711
H   H8        1.0  0.87460  0.87460  0.00000  1.0000 0.1374438711
H   H9        1.0  0.48960  0.30380  0.94520  1.0000 0.1135926851
H   H10       1.0  0.79440  0.23960  0.68580  1.0000 0.1135926851
H   H11       1.0  0.35860  0.54440  0.05480  1.0000 0.1135926851
H   H12       1.0  0.55380  0.10860  0.31420  1.0000 0.1135926851
H   H13       1.0  0.89140  0.44620  0.68580  1.0000 0.1135926851
H   H14       1.0  0.45560  0.64140  0.94520  1.0000 0.1135926851
H   H15       1.0  0.76040  0.20560  0.31420  1.0000 0.1135926851
H   H16       1.0  0.69620  0.51040  0.05480  1.0000 0.1135926851
C   C1        1.0  0.29260  0.07340  0.94800  1.0000 0.6057696649
C   C2        1.0  0.59460  0.04260  0.71920  1.0000 0.6057696649
C   C3        1.0  0.12540  0.34460  0.05200  1.0000 0.6057696649
C   C4        1.0  0.32340  0.87540  0.28080  1.0000 0.6057696649
C   C5        1.0  0.12460  0.67660  0.71920  1.0000 0.6057696649
C   C6        1.0  0.65540  0.87460  0.94800  1.0000 0.6057696649
C   C7        1.0  0.95740  0.40540  0.28080  1.0000 0.6057696649
C   C8        1.0  0.92660  0.70740  0.05200  1.0000 0.6057696649
C   C9        1.0  0.30507  0.19882  0.96869  1.0000 -0.050716444
C   C10       1.0  0.58638  0.05507  0.60625  1.0000 -0.050716444
C   C11       1.0  0.23013  0.33638  0.03131  1.0000 -0.050716444
C   C12       1.0  0.44882  0.98013  0.39375  1.0000 -0.050716444
C   C13       1.0  0.01987  0.55118  0.60625  1.0000 -0.050716444
C   C14       1.0  0.66362  0.76987  0.96869  1.0000 -0.050716444
C   C15       1.0  0.94493  0.41362  0.39375  1.0000 -0.050716444
C   C16       1.0  0.80118  0.69493  0.03131  1.0000 -0.050716444
C   C17       1.0  0.21070  0.21070  0.00000  1.0000 -0.0925033978
C   C18       1.0  0.46070  0.96070  0.50000  1.0000 -0.0925033978
C   C19       1.0  0.03930  0.53930  0.50000  1.0000 -0.0925033978
C   C20       1.0  0.78930  0.78930  0.00000  1.0000 -0.0925033978
C   C21       1.0  0.41889  0.31264  0.96869  1.0000 -0.129864852
C   C22       1.0  0.70020  0.16889  0.60625  1.0000 -0.129864852
C   C23       1.0  0.34395  0.45020  0.03131  1.0000 -0.129864852
C   C24       1.0  0.56264  0.09395  0.39375  1.0000 -0.129864852
C   C25       1.0  0.90605  0.43736  0.60625  1.0000 -0.129864852
C   C26       1.0  0.54980  0.65605  0.96869  1.0000 -0.129864852
C   C27       1.0  0.83111  0.29980  0.39375  1.0000 -0.129864852
C   C28       1.0  0.68736  0.58111  0.03131  1.0000 -0.129864852
C   C29       1.0  0.43833  0.43833  0.00000  1.0000 0.0791159355
C   C30       1.0  0.68833  0.18833  0.50000  1.0000 0.0791159355
C   C31       1.0  0.81167  0.31167  0.50000  1.0000 0.0791159355
C   C32       1.0  0.56167  0.56167  0.00000  1.0000 0.0791159355
O   O1        1.0  0.38540  0.87500  0.01040  1.0000 -0.9316306404
O   O2        1.0  0.62500  0.13540  0.01040  1.0000 -0.9316306404
O   O3        1.0  0.86460  0.37500  0.98960  1.0000 -0.9316306404
O   O4        1.0  0.12500  0.61460  0.98960  1.0000 -0.9316306404
O   O5        1.0  0.22830  0.99800  0.99470  1.0000 -0.5520114294
O   O6        1.0  0.48360  0.97830  0.73030  1.0000 -0.5520114294
O   O7        1.0  0.00330  0.23360  0.00530  1.0000 -0.5520114294
O   O8        1.0  0.24800  0.75330  0.26970  1.0000 -0.5520114294
O   O9        1.0  0.24670  0.75200  0.73030  1.0000 -0.5520114294
O   O10       1.0  0.76640  0.99670  0.99470  1.0000 -0.5520114294
O   O11       1.0  0.02170  0.51640  0.26970  1.0000 -0.5520114294
O   O12       1.0  0.00200  0.77170  0.00530  1.0000 -0.5520114294
O   O13       1.0  0.34660  0.04580  0.88440  1.0000 -0.571629434
O   O14       1.0  0.71220  0.09660  0.80080  1.0000 -0.571629434
O   O15       1.0  0.16140  0.46220  0.11560  1.0000 -0.571629434
O   O16       1.0  0.29580  0.91140  0.19920  1.0000 -0.571629434
O   O17       1.0  0.08860  0.70420  0.80080  1.0000 -0.571629434
O   O18       1.0  0.53780  0.83860  0.88440  1.0000 -0.571629434
O   O19       1.0  0.90340  0.28780  0.19920  1.0000 -0.571629434
O   O20       1.0  0.95420  0.65340  0.11560  1.0000 -0.571629434
