# DDEC6 charges by PACMAN v1.1 (https://github.com/mtap-research/PACMAN-charge/)
data_2016[CuEu][nan]3[FSR]1
_chemical_formula_sum              "Eu2 Cu8 H56 C72 I8 N6 O16"
_cell_length_a       9.6689
_cell_length_b       16.716
_cell_length_c       21.277
_cell_angle_alpha    104.23
_cell_angle_beta     100.42
_cell_angle_gamma    96.86

_symmetry_space_group_name_H-M    "P 1"
_symmetry_Int_Tables_number       1

loop_
  _symmetry_equiv_pos_as_xyz
  'x, y, z'

loop_
  _atom_site_type_symbol
  _atom_site_label
  _atom_site_symmetry_multiplicity
  _atom_site_fract_x
  _atom_site_fract_y
  _atom_site_fract_z
  _atom_site_occupancy
  _atom_site_charge
Eu  Eu1       1.0  0.27613  0.51536  0.99816  1.0000 2.2164517419
Eu  Eu2       1.0  0.72387  0.48464  0.00184  1.0000 2.2164517419
Cu  Cu1       1.0  0.01404  0.94278  0.54053  1.0000 0.1391487756
Cu  Cu2       1.0  0.98596  0.05722  0.45947  1.0000 0.1391487756
Cu  Cu3       1.0  0.75541  0.82741  0.50277  1.0000 0.1483810471
Cu  Cu4       1.0  0.24459  0.17259  0.49723  1.0000 0.1483810471
Cu  Cu5       1.0  0.82078  0.94673  0.62266  1.0000 0.1570077018
Cu  Cu6       1.0  0.17922  0.05327  0.37734  1.0000 0.1570077018
Cu  Cu7       1.0  0.96271  0.81831  0.59992  1.0000 0.1483810471
Cu  Cu8       1.0  0.03729  0.18169  0.40008  1.0000 0.1483810471
H   H1        1.0  0.44860  0.83110  0.47000  1.0000 0.1096042076
H   H2        1.0  0.55140  0.16890  0.53000  1.0000 0.1096042076
H   H3        1.0  0.24270  0.76100  0.39850  1.0000 0.1391487756
H   H4        1.0  0.75730  0.23900  0.60150  1.0000 0.1391487756
H   H5        1.0  0.46370  0.60190  0.30630  1.0000 0.1281436459
H   H6        1.0  0.53630  0.39810  0.69370  1.0000 0.1281436459
H   H7        1.0  0.66640  0.67840  0.38110  1.0000 0.1018488334
H   H8        1.0  0.33360  0.32160  0.61890  1.0000 0.1018488334
H   H9        1.0  0.26750  0.61030  0.21180  1.0000 0.1201265463
H   H10       1.0  0.73250  0.38970  0.78820  1.0000 0.1201265463
H   H11       1.0  0.85810  0.49940  0.17900  1.0000 0.1201265463
H   H12       1.0  0.14190  0.50060  0.82100  1.0000 0.1201265463
H   H13       1.0  0.86440  0.54380  0.29100  1.0000 0.1201265463
H   H14       1.0  0.13560  0.45620  0.70900  1.0000 0.1201265463
H   H15       1.0  0.07210  0.61990  0.36400  1.0000 0.1201265463
H   H16       1.0  0.92790  0.38010  0.63600  1.0000 0.1201265463
H   H17       1.0  0.86320  0.11860  0.72360  1.0000 0.1096042076
H   H18       1.0  0.13680  0.88140  0.27640  1.0000 0.1096042076
H   H19       1.0  0.72400  0.21050  0.76740  1.0000 0.1201265463
H   H20       1.0  0.27600  0.78950  0.23260  1.0000 0.1201265463
H   H21       1.0  0.37810  0.04330  0.65580  1.0000 0.1281436459
H   H22       1.0  0.62190  0.95670  0.34420  1.0000 0.1281436459
H   H23       1.0  0.52470  0.95530  0.62150  1.0000 0.1096042076
H   H24       1.0  0.47530  0.04470  0.37850  1.0000 0.1096042076
H   H25       1.0  0.56840  0.26440  0.82720  1.0000 0.1096042076
H   H26       1.0  0.43160  0.73560  0.17280  1.0000 0.1096042076
H   H27       1.0  0.17940  0.32920  0.80320  1.0000 0.1096042076
H   H28       1.0  0.82060  0.67080  0.19680  1.0000 0.1096042076
H   H29       1.0  0.11380  0.23630  0.70000  1.0000 0.1096042076
H   H30       1.0  0.88620  0.76370  0.30000  1.0000 0.1096042076
H   H31       1.0  0.26960  0.15200  0.66180  1.0000 0.1096042076
H   H32       1.0  0.73040  0.84800  0.33820  1.0000 0.1096042076
H   H33       1.0  0.26840  0.80990  0.62160  1.0000 0.1096042076
H   H34       1.0  0.73160  0.19010  0.37840  1.0000 0.1096042076
H   H35       1.0  0.43580  0.74790  0.67180  1.0000 0.1281436459
H   H36       1.0  0.56420  0.25210  0.32820  1.0000 0.1281436459
H   H37       1.0  0.12430  0.62330  0.72930  1.0000 0.1201265463
H   H38       1.0  0.87570  0.37670  0.27070  1.0000 0.1201265463
H   H39       1.0  0.96970  0.68890  0.67580  1.0000 0.1096042076
H   H40       1.0  0.03030  0.31110  0.32420  1.0000 0.1096042076
H   H41       1.0  0.31470  0.63760  0.82310  1.0000 0.1201265463
H   H42       1.0  0.68530  0.36240  0.17690  1.0000 0.1201265463
H   H43       1.0  0.69280  0.55710  0.84210  1.0000 0.1201265463
H   H44       1.0  0.30720  0.44290  0.15790  1.0000 0.1201265463
H   H45       1.0  0.71830  0.58100  0.74330  1.0000 0.1096042076
H   H46       1.0  0.28170  0.41900  0.25670  1.0000 0.1096042076
H   H47       1.0  0.54420  0.63260  0.68260  1.0000 0.1201265463
H   H48       1.0  0.45580  0.36740  0.31740  1.0000 0.1201265463
H   H49       1.0  0.01600  0.37400  0.99800  1.0000 0.3917917387
H   H50       1.0  0.98400  0.62600  0.00200  1.0000 0.3917917387
H   H51       1.0  0.13700  0.32350  0.98400  1.0000 0.4170656727
H   H52       1.0  0.86300  0.67650  0.01600  1.0000 0.4170656727
H   H53       1.0  0.22400  0.70800  0.05530  1.0000 0.414248027
H   H54       1.0  0.77600  0.29200  0.94470  1.0000 0.414248027
H   H55       1.0  0.17600  0.68900  0.97710  1.0000 0.4170656727
H   H56       1.0  0.82400  0.31100  0.02290  1.0000 0.4170656727
C   C1        1.0  0.45260  0.78370  0.43710  1.0000 0.0816616082
C   C2        1.0  0.54740  0.21630  0.56290  1.0000 0.0816616082
C   C3        1.0  0.32760  0.74160  0.39420  1.0000 -0.1903022452
C   C4        1.0  0.67240  0.25840  0.60580  1.0000 -0.1903022452
C   C5        1.0  0.32630  0.67150  0.34530  1.0000 0.1096042076
C   C6        1.0  0.67370  0.32850  0.65470  1.0000 0.1096042076
C   C7        1.0  0.45750  0.64810  0.33980  1.0000 -0.19988887
C   C8        1.0  0.54250  0.35190  0.66020  1.0000 -0.19988887
C   C9        1.0  0.57910  0.69470  0.38520  1.0000 0.0696079211
C   C10       1.0  0.42090  0.30530  0.61480  1.0000 0.0696079211
C   C11       1.0  0.19360  0.62210  0.29710  1.0000 0.0589894439
C   C12       1.0  0.80640  0.37790  0.70290  1.0000 0.0589894439
C   C13       1.0  0.18750  0.59660  0.22810  1.0000 -0.1714487894
C   C14       1.0  0.81250  0.40340  0.77190  1.0000 -0.1714487894
C   C15       1.0  0.06240  0.55110  0.18460  1.0000 -0.0180313793
C   C16       1.0  0.93760  0.44890  0.81540  1.0000 -0.0180313793
C   C17       1.0  0.94120  0.53060  0.20840  1.0000 -0.1203982791
C   C18       1.0  0.05880  0.46940  0.79160  1.0000 -0.1203982791
C   C19       1.0  0.94520  0.55660  0.27500  1.0000 -0.0974380279
C   C20       1.0  0.05480  0.44340  0.72500  1.0000 -0.0974380279
C   C21       1.0  0.07090  0.60230  0.31890  1.0000 -0.1417929305
C   C22       1.0  0.92910  0.39770  0.68110  1.0000 -0.1417929305
C   C23       1.0  0.05790  0.52550  0.11060  1.0000 0.6459125058
C   C24       1.0  0.94210  0.47450  0.88940  1.0000 0.6459125058
C   C25       1.0  0.76440  0.10350  0.71090  1.0000 0.0816616082
C   C26       1.0  0.23560  0.89650  0.28910  1.0000 0.0816616082
C   C27       1.0  0.68100  0.15960  0.73690  1.0000 -0.211367607
C   C28       1.0  0.31900  0.84040  0.26310  1.0000 -0.211367607
C   C29       1.0  0.53140  0.13960  0.71710  1.0000 0.1201265463
C   C30       1.0  0.46860  0.86040  0.28290  1.0000 0.1201265463
C   C31       1.0  0.47630  0.05990  0.67130  1.0000 -0.1903022452
C   C32       1.0  0.52370  0.94010  0.32870  1.0000 -0.1903022452
C   C33       1.0  0.56470  0.00800  0.65010  1.0000 0.0816616082
C   C34       1.0  0.43530  0.99200  0.34990  1.0000 0.0816616082
C   C35       1.0  0.43480  0.19760  0.74230  1.0000 0.0532051028
C   C36       1.0  0.56520  0.80240  0.25770  1.0000 0.0532051028
C   C37       1.0  0.47560  0.25640  0.80250  1.0000 -0.1558358594
C   C38       1.0  0.52440  0.74360  0.19750  1.0000 -0.1558358594
C   C39       1.0  0.37820  0.30480  0.82730  1.0000 -0.0180313793
C   C40       1.0  0.62180  0.69520  0.17270  1.0000 -0.0180313793
C   C41       1.0  0.24360  0.29630  0.78760  1.0000 -0.1090701184
C   C42       1.0  0.75640  0.70370  0.21240  1.0000 -0.1090701184
C   C43       1.0  0.20390  0.24060  0.72630  1.0000 -0.0923749654
C   C44       1.0  0.79610  0.75940  0.27370  1.0000 -0.0923749654
C   C45       1.0  0.29740  0.19070  0.70340  1.0000 -0.1276300473
C   C46       1.0  0.70260  0.80930  0.29660  1.0000 -0.1276300473
C   C47       1.0  0.41960  0.36750  0.89490  1.0000 0.6403205769
C   C48       1.0  0.58040  0.63250  0.10510  1.0000 0.6403205769
C   C49       1.0  0.23880  0.77130  0.64350  1.0000 0.0589894439
C   C50       1.0  0.76120  0.22870  0.35650  1.0000 0.0589894439
C   C51       1.0  0.34100  0.73560  0.67450  1.0000 -0.1796711607
C   C52       1.0  0.65900  0.26440  0.32550  1.0000 -0.1796711607
C   C53       1.0  0.30110  0.68010  0.71060  1.0000 0.1096042076
C   C54       1.0  0.69890  0.31990  0.28940  1.0000 0.1096042076
C   C55       1.0  0.15820  0.66190  0.70840  1.0000 -0.19988887
C   C56       1.0  0.84180  0.33810  0.29160  1.0000 -0.19988887
C   C57       1.0  0.06550  0.70140  0.67490  1.0000 0.0816616082
C   C58       1.0  0.93450  0.29860  0.32510  1.0000 0.0816616082
C   C59       1.0  0.41210  0.64340  0.74550  1.0000 0.0532051028
C   C60       1.0  0.58790  0.35660  0.25450  1.0000 0.0532051028
C   C61       1.0  0.39490  0.62600  0.80650  1.0000 -0.1558358594
C   C62       1.0  0.60510  0.37400  0.19350  1.0000 -0.1558358594
C   C63       1.0  0.49630  0.59210  0.84080  1.0000 -0.0070952143
C   C64       1.0  0.50370  0.40790  0.15920  1.0000 -0.0070952143
C   C65       1.0  0.62180  0.57710  0.81760  1.0000 -0.1090701184
C   C66       1.0  0.37820  0.42290  0.18240  1.0000 -0.1090701184
C   C67       1.0  0.63730  0.59210  0.75930  1.0000 -0.0974380279
C   C68       1.0  0.36270  0.40790  0.24070  1.0000 -0.0974380279
C   C69       1.0  0.53230  0.62410  0.72300  1.0000 -0.1417929305
C   C70       1.0  0.46770  0.37590  0.27700  1.0000 -0.1417929305
C   C71       1.0  0.47790  0.57440  0.90670  1.0000 0.6403205769
C   C72       1.0  0.52210  0.42560  0.09330  1.0000 0.6403205769
I   I1        1.0  0.76300  0.99030  0.50023  1.0000 -0.2484099566
I   I2        1.0  0.23700  0.00970  0.49977  1.0000 -0.2484099566
I   I3        1.0  0.98948  0.77964  0.47165  1.0000 -0.2939439191
I   I4        1.0  0.01052  0.22036  0.52835  1.0000 -0.2939439191
I   I5        1.0  0.08940  0.97873  0.67434  1.0000 -0.2598737701
I   I6        1.0  0.91060  0.02127  0.32566  1.0000 -0.2598737701
I   I7        1.0  0.69772  0.79038  0.61407  1.0000 -0.337651424
I   I8        1.0  0.30228  0.20962  0.38593  1.0000 -0.337651424
N   N1        1.0  0.57780  0.76170  0.43470  1.0000 -0.1714487894
N   N2        1.0  0.42220  0.23830  0.56530  1.0000 -0.1714487894
N   N3        1.0  0.70790  0.02820  0.66810  1.0000 -0.1796711607
N   N4        1.0  0.29210  0.97180  0.33190  1.0000 -0.1796711607
N   N5        1.0  0.09810  0.75470  0.64220  1.0000 -0.1714487894
N   N6        1.0  0.90190  0.24530  0.35780  1.0000 -0.1714487894
O   O1        1.0  0.17040  0.54440  0.09180  1.0000 -0.6689942552
O   O2        1.0  0.82960  0.45560  0.90820  1.0000 -0.6689942552
O   O3        1.0  0.94000  0.48530  0.07200  1.0000 -0.6912379785
O   O4        1.0  0.06000  0.51470  0.92800  1.0000 -0.6912379785
O   O5        1.0  0.54520  0.37540  0.92830  1.0000 -0.677839659
O   O6        1.0  0.45480  0.62460  0.07170  1.0000 -0.677839659
O   O7        1.0  0.32640  0.40800  0.91280  1.0000 -0.6689942552
O   O8        1.0  0.67360  0.59200  0.08720  1.0000 -0.6689942552
O   O9        1.0  0.35920  0.58300  0.92170  1.0000 -0.6577623113
O   O10       1.0  0.64080  0.41700  0.07830  1.0000 -0.6577623113
O   O11       1.0  0.57670  0.55010  0.93880  1.0000 -0.6912379785
O   O12       1.0  0.42330  0.44990  0.06120  1.0000 -0.6912379785
O   O13       1.0  0.11730  0.38340  0.99120  1.0000 -0.8559048398
O   O14       1.0  0.88270  0.61660  0.00880  1.0000 -0.8559048398
O   O15       1.0  0.20330  0.66380  0.01320  1.0000 -0.8295590205
O   O16       1.0  0.79670  0.33620  0.98680  1.0000 -0.8295590205
