# DDEC6 charges by PACMAN v1.1 (https://github.com/mtap-research/PACMAN-charge/)
data_2016[Cd][dia]3[FSR]1
_chemical_formula_sum              "Cd4 H80 C76 N16 O16"
_cell_length_a       9.6799
_cell_length_b       23.6261
_cell_length_c       10.8546
_cell_angle_alpha    90
_cell_angle_beta     104.14
_cell_angle_gamma    90

_symmetry_space_group_name_H-M    "P 1"
_symmetry_Int_Tables_number       1

loop_
  _symmetry_equiv_pos_as_xyz
  'x, y, z'

loop_
  _atom_site_type_symbol
  _atom_site_label
  _atom_site_symmetry_multiplicity
  _atom_site_fract_x
  _atom_site_fract_y
  _atom_site_fract_z
  _atom_site_occupancy
  _atom_site_charge
Cd  Cd1       1.0  0.52762  0.89446  0.68066  1.0000 0.8313311192
Cd  Cd2       1.0  0.97238  0.39446  0.31934  1.0000 0.8313311192
Cd  Cd3       1.0  0.47238  0.10554  0.31934  1.0000 0.8313311192
Cd  Cd4       1.0  0.02762  0.60554  0.68066  1.0000 0.8313311192
H   H1        1.0  0.76800  0.01340  0.02310  1.0000 0.1190312027
H   H2        1.0  0.73200  0.51340  0.97690  1.0000 0.1190312027
H   H3        1.0  0.23200  0.98660  0.97690  1.0000 0.1190312027
H   H4        1.0  0.26800  0.48660  0.02310  1.0000 0.1190312027
H   H5        1.0  0.04260  0.93750  0.84600  1.0000 0.1102098291
H   H6        1.0  0.45740  0.43750  0.15400  1.0000 0.1102098291
H   H7        1.0  0.95740  0.06250  0.15400  1.0000 0.1102098291
H   H8        1.0  0.54260  0.56250  0.84600  1.0000 0.1102098291
H   H9        1.0  0.20940  0.03910  0.46480  1.0000 0.1102098291
H   H10       1.0  0.29060  0.53910  0.53520  1.0000 0.1102098291
H   H11       1.0  0.79060  0.96090  0.53520  1.0000 0.1102098291
H   H12       1.0  0.70940  0.46090  0.46480  1.0000 0.1102098291
H   H13       1.0  0.00890  0.91680  0.61910  1.0000 0.1102098291
H   H14       1.0  0.49110  0.41680  0.38090  1.0000 0.1102098291
H   H15       1.0  0.99110  0.08320  0.38090  1.0000 0.1102098291
H   H16       1.0  0.50890  0.58320  0.61910  1.0000 0.1102098291
H   H17       1.0  0.46600  0.94340  0.38590  1.0000 0.1265187266
H   H18       1.0  0.03400  0.44340  0.61410  1.0000 0.1265187266
H   H19       1.0  0.53400  0.05660  0.61410  1.0000 0.1265187266
H   H20       1.0  0.96600  0.55660  0.38590  1.0000 0.1265187266
H   H21       1.0  0.71050  0.81080  0.50790  1.0000 0.1190312027
H   H22       1.0  0.78950  0.31080  0.49210  1.0000 0.1190312027
H   H23       1.0  0.28950  0.18920  0.49210  1.0000 0.1190312027
H   H24       1.0  0.21050  0.68920  0.50790  1.0000 0.1190312027
H   H25       1.0  0.73840  0.83390  0.29320  1.0000 0.1190312027
H   H26       1.0  0.76160  0.33390  0.70680  1.0000 0.1190312027
H   H27       1.0  0.26160  0.16610  0.70680  1.0000 0.1190312027
H   H28       1.0  0.23840  0.66610  0.29320  1.0000 0.1190312027
H   H29       1.0  0.66830  0.94140  0.16430  1.0000 0.1102098291
H   H30       1.0  0.83170  0.44140  0.83570  1.0000 0.1102098291
H   H31       1.0  0.33170  0.05860  0.83570  1.0000 0.1102098291
H   H32       1.0  0.16830  0.55860  0.16430  1.0000 0.1102098291
H   H33       1.0  0.51400  0.96220  0.17450  1.0000 0.1190312027
H   H34       1.0  0.98600  0.46220  0.82550  1.0000 0.1190312027
H   H35       1.0  0.48600  0.03780  0.82550  1.0000 0.1190312027
H   H36       1.0  0.01400  0.53780  0.17450  1.0000 0.1190312027
H   H37       1.0  0.57200  0.85840  0.06080  1.0000 0.0862759801
H   H38       1.0  0.92800  0.35840  0.93920  1.0000 0.0862759801
H   H39       1.0  0.42800  0.14160  0.93920  1.0000 0.0862759801
H   H40       1.0  0.07200  0.64160  0.06080  1.0000 0.0862759801
H   H41       1.0  0.49040  0.91160  0.98510  1.0000 0.1190312027
H   H42       1.0  0.00960  0.41160  0.01490  1.0000 0.1190312027
H   H43       1.0  0.50960  0.08840  0.01490  1.0000 0.1190312027
H   H44       1.0  0.99040  0.58840  0.98510  1.0000 0.1190312027
H   H45       1.0  0.30080  0.89650  0.08940  1.0000 0.0961758795
H   H46       1.0  0.19920  0.39650  0.91060  1.0000 0.0961758795
H   H47       1.0  0.69920  0.10350  0.91060  1.0000 0.0961758795
H   H48       1.0  0.80080  0.60350  0.08940  1.0000 0.0961758795
H   H49       1.0  0.38070  0.84060  0.15270  1.0000 0.0838233812
H   H50       1.0  0.11930  0.34060  0.84730  1.0000 0.0838233812
H   H51       1.0  0.61930  0.15940  0.84730  1.0000 0.0838233812
H   H52       1.0  0.88070  0.65940  0.15270  1.0000 0.0838233812
H   H53       1.0  0.26990  0.85580  0.88400  1.0000 0.1190312027
H   H54       1.0  0.23010  0.35580  0.11600  1.0000 0.1190312027
H   H55       1.0  0.73010  0.14420  0.11600  1.0000 0.1190312027
H   H56       1.0  0.76990  0.64420  0.88400  1.0000 0.1190312027
H   H57       1.0  0.35290  0.80000  0.94590  1.0000 0.0862759801
H   H58       1.0  0.14710  0.30000  0.05410  1.0000 0.0862759801
H   H59       1.0  0.64710  0.20000  0.05410  1.0000 0.0862759801
H   H60       1.0  0.85290  0.70000  0.94590  1.0000 0.0862759801
H   H61       1.0  0.17110  0.78440  0.05760  1.0000 0.1102098291
H   H62       1.0  0.32890  0.28440  0.94240  1.0000 0.1102098291
H   H63       1.0  0.82890  0.21560  0.94240  1.0000 0.1102098291
H   H64       1.0  0.67110  0.71560  0.05760  1.0000 0.1102098291
H   H65       1.0  0.08650  0.83790  0.98650  1.0000 0.1190312027
H   H66       1.0  0.41350  0.33790  0.01350  1.0000 0.1190312027
H   H67       1.0  0.91350  0.16210  0.01350  1.0000 0.1190312027
H   H68       1.0  0.58650  0.66210  0.98650  1.0000 0.1190312027
H   H69       1.0  0.91390  0.81840  0.76350  1.0000 0.1382586511
H   H70       1.0  0.58610  0.31840  0.23650  1.0000 0.1382586511
H   H71       1.0  0.08610  0.18160  0.23650  1.0000 0.1382586511
H   H72       1.0  0.41390  0.68160  0.76350  1.0000 0.1382586511
H   H73       1.0  0.85670  0.73270  0.63030  1.0000 0.1265187266
H   H74       1.0  0.64330  0.23270  0.36970  1.0000 0.1265187266
H   H75       1.0  0.14330  0.26730  0.36970  1.0000 0.1265187266
H   H76       1.0  0.35670  0.76730  0.63030  1.0000 0.1265187266
H   H77       1.0  0.19550  0.69720  0.90630  1.0000 0.1102098291
H   H78       1.0  0.30450  0.19720  0.09370  1.0000 0.1102098291
H   H79       1.0  0.80450  0.30280  0.09370  1.0000 0.1102098291
H   H80       1.0  0.69550  0.80280  0.90630  1.0000 0.1102098291
C   C1        1.0  0.76419  0.93970  0.83618  1.0000 0.5353618714
C   C2        1.0  0.73581  0.43970  0.16382  1.0000 0.5353618714
C   C3        1.0  0.23581  0.06030  0.16382  1.0000 0.5353618714
C   C4        1.0  0.26419  0.56030  0.83618  1.0000 0.5353618714
C   C5        1.0  0.88675  0.97078  0.92158  1.0000 -0.0128603268
C   C6        1.0  0.61325  0.47078  0.07842  1.0000 -0.0128603268
C   C7        1.0  0.11325  0.02922  0.07842  1.0000 -0.0128603268
C   C8        1.0  0.38675  0.52922  0.92158  1.0000 -0.0128603268
C   C9        1.0  0.86211  0.00798  0.01368  1.0000 -0.1184627352
C   C10       1.0  0.63789  0.50798  0.98632  1.0000 -0.1184627352
C   C11       1.0  0.13789  0.99202  0.98632  1.0000 -0.1184627352
C   C12       1.0  0.36211  0.49202  0.01368  1.0000 -0.1184627352
C   C13       1.0  0.02532  0.96289  0.90845  1.0000 -0.1184627352
C   C14       1.0  0.47468  0.46289  0.09155  1.0000 -0.1184627352
C   C15       1.0  0.97468  0.03711  0.09155  1.0000 -0.1184627352
C   C16       1.0  0.52532  0.53711  0.90845  1.0000 -0.1184627352
C   C17       1.0  0.27173  0.94539  0.60306  1.0000 0.5333270284
C   C18       1.0  0.22827  0.44539  0.39694  1.0000 0.5333270284
C   C19       1.0  0.72827  0.05461  0.39694  1.0000 0.5333270284
C   C20       1.0  0.77173  0.55461  0.60306  1.0000 0.5333270284
C   C21       1.0  0.13086  0.97387  0.55072  1.0000 -0.0159001683
C   C22       1.0  0.36914  0.47387  0.44928  1.0000 -0.0159001683
C   C23       1.0  0.86914  0.02613  0.44928  1.0000 -0.0159001683
C   C24       1.0  0.63086  0.52613  0.55072  1.0000 -0.0159001683
C   C25       1.0  0.12446  0.02329  0.47918  1.0000 -0.1106931726
C   C26       1.0  0.37554  0.52329  0.52082  1.0000 -0.1106931726
C   C27       1.0  0.87554  0.97671  0.52082  1.0000 -0.1106931726
C   C28       1.0  0.62446  0.47671  0.47918  1.0000 -0.1106931726
C   C29       1.0  0.00524  0.95060  0.57091  1.0000 -0.1106931726
C   C30       1.0  0.49476  0.45060  0.42909  1.0000 -0.1106931726
C   C31       1.0  0.99476  0.04940  0.42909  1.0000 -0.1106931726
C   C32       1.0  0.50524  0.54940  0.57091  1.0000 -0.1106931726
C   C33       1.0  0.53087  0.91288  0.39015  1.0000 0.1190312027
C   C34       1.0  0.96913  0.41288  0.60985  1.0000 0.1190312027
C   C35       1.0  0.46913  0.08712  0.60985  1.0000 0.1190312027
C   C36       1.0  0.03087  0.58712  0.39015  1.0000 0.1190312027
C   C37       1.0  0.66380  0.84077  0.45576  1.0000 -0.0471231176
C   C38       1.0  0.83620  0.34077  0.54424  1.0000 -0.0471231176
C   C39       1.0  0.33620  0.15923  0.54424  1.0000 -0.0471231176
C   C40       1.0  0.16380  0.65923  0.45576  1.0000 -0.0471231176
C   C41       1.0  0.68010  0.85320  0.33832  1.0000 -0.1184627352
C   C42       1.0  0.81990  0.35320  0.66168  1.0000 -0.1184627352
C   C43       1.0  0.31990  0.14680  0.66168  1.0000 -0.1184627352
C   C44       1.0  0.18010  0.64680  0.33832  1.0000 -0.1184627352
C   C45       1.0  0.57480  0.92843  0.17524  1.0000 -0.1106931726
C   C46       1.0  0.92520  0.42843  0.82476  1.0000 -0.1106931726
C   C47       1.0  0.42520  0.07157  0.82476  1.0000 -0.1106931726
C   C48       1.0  0.07480  0.57157  0.17524  1.0000 -0.1106931726
C   C49       1.0  0.50580  0.88989  0.06539  1.0000 -0.1912074907
C   C50       1.0  0.99420  0.38989  0.93461  1.0000 -0.1912074907
C   C51       1.0  0.49420  0.11011  0.93461  1.0000 -0.1912074907
C   C52       1.0  0.00580  0.61011  0.06539  1.0000 -0.1912074907
C   C53       1.0  0.36413  0.86528  0.07685  1.0000 -0.1634936479
C   C54       1.0  0.13587  0.36528  0.92315  1.0000 -0.1634936479
C   C55       1.0  0.63587  0.13472  0.92315  1.0000 -0.1634936479
C   C56       1.0  0.86413  0.63472  0.07685  1.0000 -0.1634936479
C   C57       1.0  0.28970  0.83106  0.95989  1.0000 -0.1970780192
C   C58       1.0  0.21030  0.33106  0.04011  1.0000 -0.1970780192
C   C59       1.0  0.71030  0.16894  0.04011  1.0000 -0.1970780192
C   C60       1.0  0.78970  0.66894  0.95989  1.0000 -0.1970780192
C   C61       1.0  0.15130  0.80657  0.97788  1.0000 -0.1184627352
C   C62       1.0  0.34870  0.30657  0.02212  1.0000 -0.1184627352
C   C63       1.0  0.84870  0.19343  0.02212  1.0000 -0.1184627352
C   C64       1.0  0.65130  0.69343  0.97788  1.0000 -0.1184627352
C   C65       1.0  0.96340  0.78339  0.77624  1.0000 -0.1184627352
C   C66       1.0  0.53660  0.28339  0.22376  1.0000 -0.1184627352
C   C67       1.0  0.03660  0.21661  0.22376  1.0000 -0.1184627352
C   C68       1.0  0.46340  0.71661  0.77624  1.0000 -0.1184627352
C   C69       1.0  0.93340  0.73632  0.70355  1.0000 -0.0471231176
C   C70       1.0  0.56660  0.23632  0.29645  1.0000 -0.0471231176
C   C71       1.0  0.06660  0.26368  0.29645  1.0000 -0.0471231176
C   C72       1.0  0.43340  0.76368  0.70355  1.0000 -0.0471231176
C   C73       1.0  0.11717  0.71661  0.85325  1.0000 0.0721790718
C   C74       1.0  0.38283  0.21661  0.14675  1.0000 0.0721790718
C   C75       1.0  0.88283  0.28339  0.14675  1.0000 0.0721790718
C   C76       1.0  0.61717  0.78339  0.85325  1.0000 0.0721790718
N   N1        1.0  0.56953  0.87809  0.48825  1.0000 -0.3088694362
N   N2        1.0  0.93047  0.37809  0.51175  1.0000 -0.3088694362
N   N3        1.0  0.43047  0.12191  0.51175  1.0000 -0.3088694362
N   N4        1.0  0.06953  0.62191  0.48825  1.0000 -0.3088694362
N   N5        1.0  0.59492  0.89950  0.29773  1.0000 0.0398733022
N   N6        1.0  0.90508  0.39950  0.70227  1.0000 0.0398733022
N   N7        1.0  0.40508  0.10050  0.70227  1.0000 0.0398733022
N   N8        1.0  0.09492  0.60050  0.29773  1.0000 0.0398733022
N   N9        1.0  0.08002  0.77009  0.87218  1.0000 0.0468429087
N   N10       1.0  0.41998  0.27009  0.12782  1.0000 0.0468429087
N   N11       1.0  0.91998  0.22991  0.12782  1.0000 0.0468429087
N   N12       1.0  0.58002  0.72991  0.87218  1.0000 0.0468429087
N   N13       1.0  0.03081  0.69449  0.75152  1.0000 -0.2925885392
N   N14       1.0  0.46919  0.19449  0.24848  1.0000 -0.2925885392
N   N15       1.0  0.96919  0.30551  0.24848  1.0000 -0.2925885392
N   N16       1.0  0.53081  0.80551  0.75152  1.0000 -0.2925885392
O   O1        1.0  0.63899  0.95542  0.83595  1.0000 -0.5541722921
O   O2        1.0  0.86101  0.45542  0.16405  1.0000 -0.5541722921
O   O3        1.0  0.36101  0.04458  0.16405  1.0000 -0.5541722921
O   O4        1.0  0.13899  0.54458  0.83595  1.0000 -0.5541722921
O   O5        1.0  0.78955  0.90039  0.76825  1.0000 -0.5594991294
O   O6        1.0  0.71045  0.40039  0.23175  1.0000 -0.5594991294
O   O7        1.0  0.21045  0.09961  0.23175  1.0000 -0.5594991294
O   O8        1.0  0.28955  0.59961  0.76825  1.0000 -0.5594991294
O   O9        1.0  0.38036  0.96640  0.57650  1.0000 -0.5424636153
O   O10       1.0  0.11964  0.46640  0.42350  1.0000 -0.5424636153
O   O11       1.0  0.61964  0.03360  0.42350  1.0000 -0.5424636153
O   O12       1.0  0.88036  0.53360  0.57650  1.0000 -0.5424636153
O   O13       1.0  0.27766  0.90171  0.66994  1.0000 -0.5594991294
O   O14       1.0  0.22234  0.40171  0.33006  1.0000 -0.5594991294
O   O15       1.0  0.72234  0.09829  0.33006  1.0000 -0.5594991294
O   O16       1.0  0.77766  0.59829  0.66994  1.0000 -0.5594991294
