# DDEC6 charges by PACMAN v1.1 (https://github.com/mtap-research/PACMAN-charge/)
data_2016[Zn][nan]3[FSR]26
_chemical_formula_sum              "Zn6 H44 C68 N20 O24"
_cell_length_a       17.3517
_cell_length_b       17.3517
_cell_length_c       15.4335
_cell_angle_alpha    87.9631
_cell_angle_beta     92.0369
_cell_angle_gamma    109.273

_symmetry_space_group_name_H-M    "P 1"
_symmetry_Int_Tables_number       1

loop_
  _symmetry_equiv_pos_as_xyz
  'x, y, z'

loop_
  _atom_site_type_symbol
  _atom_site_label
  _atom_site_symmetry_multiplicity
  _atom_site_fract_x
  _atom_site_fract_y
  _atom_site_fract_z
  _atom_site_occupancy
  _atom_site_charge
Zn  Zn1       1.0  0.20729  0.20729  0.75000  1.0000 0.823824406
Zn  Zn2       1.0  0.79271  0.79271  0.25000  1.0000 0.823824406
Zn  Zn3       1.0  0.92993  0.05971  0.98871  1.0000 0.7941663268
Zn  Zn4       1.0  0.05971  0.92993  0.51129  1.0000 0.7941663268
Zn  Zn5       1.0  0.07007  0.94029  0.01129  1.0000 0.7941663268
Zn  Zn6       1.0  0.94029  0.07007  0.48871  1.0000 0.7941663268
H   H1        1.0  0.49270  0.25850  0.61640  1.0000 0.1223153084
H   H2        1.0  0.25850  0.49270  0.88360  1.0000 0.1223153084
H   H3        1.0  0.50730  0.74150  0.38360  1.0000 0.1223153084
H   H4        1.0  0.74150  0.50730  0.11640  1.0000 0.1223153084
H   H5        1.0  0.60480  0.21740  0.61580  1.0000 0.1223153084
H   H6        1.0  0.21740  0.60480  0.88420  1.0000 0.1223153084
H   H7        1.0  0.39520  0.78260  0.38420  1.0000 0.1223153084
H   H8        1.0  0.78260  0.39520  0.11580  1.0000 0.1223153084
H   H9        1.0  0.51890  0.07010  0.81890  1.0000 0.1223153084
H   H10       1.0  0.07010  0.51890  0.68110  1.0000 0.1223153084
H   H11       1.0  0.48110  0.92990  0.18110  1.0000 0.1223153084
H   H12       1.0  0.92990  0.48110  0.31890  1.0000 0.1223153084
H   H13       1.0  0.40220  0.10680  0.81400  1.0000 0.1223153084
H   H14       1.0  0.10680  0.40220  0.68600  1.0000 0.1223153084
H   H15       1.0  0.59780  0.89320  0.18600  1.0000 0.1223153084
H   H16       1.0  0.89320  0.59780  0.31400  1.0000 0.1223153084
H   H17       1.0  0.66160  0.11180  0.59370  1.0000 0.1223153084
H   H18       1.0  0.11180  0.66160  0.90630  1.0000 0.1223153084
H   H19       1.0  0.33840  0.88820  0.40630  1.0000 0.1223153084
H   H20       1.0  0.88820  0.33840  0.09370  1.0000 0.1223153084
H   H21       1.0  0.83780  0.05740  0.73330  1.0000 0.1389604512
H   H22       1.0  0.05740  0.83780  0.76670  1.0000 0.1389604512
H   H23       1.0  0.16220  0.94260  0.26670  1.0000 0.1389604512
H   H24       1.0  0.94260  0.16220  0.23330  1.0000 0.1389604512
H   H25       1.0  0.65040  0.09160  0.85100  1.0000 0.1223153084
H   H26       1.0  0.09160  0.65040  0.64900  1.0000 0.1223153084
H   H27       1.0  0.34960  0.90840  0.14900  1.0000 0.1223153084
H   H28       1.0  0.90840  0.34960  0.35100  1.0000 0.1223153084
H   H29       1.0  0.77330  0.97930  0.07440  1.0000 0.3285778069
H   H30       1.0  0.97930  0.77330  0.42560  1.0000 0.3285778069
H   H31       1.0  0.22670  0.02070  0.92560  1.0000 0.3285778069
H   H32       1.0  0.02070  0.22670  0.57440  1.0000 0.3285778069
H   H33       1.0  0.73960  0.91360  0.14090  1.0000 0.3285778069
H   H34       1.0  0.91360  0.73960  0.35910  1.0000 0.3285778069
H   H35       1.0  0.26040  0.08640  0.85910  1.0000 0.3285778069
H   H36       1.0  0.08640  0.26040  0.64090  1.0000 0.3285778069
H   H37       1.0  0.00960  0.79800  0.13350  1.0000 0.3285778069
H   H38       1.0  0.79800  0.00960  0.36650  1.0000 0.3285778069
H   H39       1.0  0.99040  0.20200  0.86650  1.0000 0.3285778069
H   H40       1.0  0.20200  0.99040  0.63350  1.0000 0.3285778069
H   H41       1.0  0.93890  0.76070  0.19080  1.0000 0.3090047541
H   H42       1.0  0.76070  0.93890  0.30920  1.0000 0.3090047541
H   H43       1.0  0.06110  0.23930  0.80920  1.0000 0.3090047541
H   H44       1.0  0.23930  0.06110  0.69080  1.0000 0.3090047541
C   C1        1.0  0.84383  0.91597  0.10050  1.0000 0.5237718228
C   C2        1.0  0.91597  0.84383  0.39950  1.0000 0.5237718228
C   C3        1.0  0.15617  0.08403  0.89950  1.0000 0.5237718228
C   C4        1.0  0.08403  0.15617  0.60050  1.0000 0.5237718228
C   C5        1.0  0.92783  0.85297  0.12090  1.0000 0.5129268769
C   C6        1.0  0.85297  0.92783  0.37910  1.0000 0.5129268769
C   C7        1.0  0.07217  0.14703  0.87910  1.0000 0.5129268769
C   C8        1.0  0.14703  0.07217  0.62090  1.0000 0.5129268769
C   C9        1.0  0.43562  0.18798  0.71550  1.0000 -0.0269019665
C   C10       1.0  0.18798  0.43562  0.78450  1.0000 -0.0269019665
C   C11       1.0  0.56438  0.81202  0.28450  1.0000 -0.0269019665
C   C12       1.0  0.81202  0.56438  0.21550  1.0000 -0.0269019665
C   C13       1.0  0.49732  0.21948  0.65730  1.0000 -0.0862401311
C   C14       1.0  0.21948  0.49732  0.84270  1.0000 -0.0862401311
C   C15       1.0  0.50268  0.78052  0.34270  1.0000 -0.0862401311
C   C16       1.0  0.78052  0.50268  0.15730  1.0000 -0.0862401311
C   C17       1.0  0.56507  0.19573  0.65710  1.0000 -0.1391783949
C   C18       1.0  0.19573  0.56507  0.84290  1.0000 -0.1391783949
C   C19       1.0  0.43493  0.80427  0.34290  1.0000 -0.1391783949
C   C20       1.0  0.80427  0.43493  0.15710  1.0000 -0.1391783949
C   C21       1.0  0.57437  0.13863  0.71970  1.0000 0.0865825567
C   C22       1.0  0.13863  0.57437  0.78030  1.0000 0.0865825567
C   C23       1.0  0.42563  0.86137  0.28030  1.0000 0.0865825567
C   C24       1.0  0.86137  0.42563  0.21970  1.0000 0.0865825567
C   C25       1.0  0.51371  0.10789  0.77680  1.0000 -0.1330852505
C   C26       1.0  0.10789  0.51371  0.72320  1.0000 -0.1330852505
C   C27       1.0  0.48629  0.89211  0.22320  1.0000 -0.1330852505
C   C28       1.0  0.89211  0.48629  0.27680  1.0000 -0.1330852505
C   C29       1.0  0.44341  0.13059  0.77490  1.0000 -0.1020181549
C   C30       1.0  0.13059  0.44341  0.72510  1.0000 -0.1020181549
C   C31       1.0  0.55659  0.86941  0.22510  1.0000 -0.1020181549
C   C32       1.0  0.86941  0.55659  0.27490  1.0000 -0.1020181549
C   C33       1.0  0.36131  0.21389  0.71130  1.0000 0.5589788559
C   C34       1.0  0.21389  0.36131  0.78870  1.0000 0.5589788559
C   C35       1.0  0.63869  0.78611  0.28870  1.0000 0.5589788559
C   C36       1.0  0.78611  0.63869  0.21130  1.0000 0.5589788559
C   C37       1.0  0.64863  0.11257  0.72270  1.0000 0.0606756065
C   C38       1.0  0.11257  0.64863  0.77730  1.0000 0.0606756065
C   C39       1.0  0.35137  0.88743  0.27730  1.0000 0.0606756065
C   C40       1.0  0.88743  0.35137  0.22270  1.0000 0.0606756065
C   C41       1.0  0.68549  0.10471  0.64690  1.0000 -0.1330852505
C   C42       1.0  0.10471  0.68549  0.85310  1.0000 -0.1330852505
C   C43       1.0  0.31451  0.89529  0.35310  1.0000 -0.1330852505
C   C44       1.0  0.89529  0.31451  0.14690  1.0000 -0.1330852505
C   C45       1.0  0.75784  0.08656  0.64920  1.0000 -0.00467667
C   C46       1.0  0.08656  0.75784  0.85080  1.0000 -0.00467667
C   C47       1.0  0.24216  0.91344  0.35080  1.0000 -0.00467667
C   C48       1.0  0.91344  0.24216  0.14920  1.0000 -0.00467667
C   C49       1.0  0.78997  0.07063  0.73060  1.0000 -0.10640059
C   C50       1.0  0.07063  0.78997  0.76940  1.0000 -0.10640059
C   C51       1.0  0.21003  0.92937  0.26940  1.0000 -0.10640059
C   C52       1.0  0.92937  0.21003  0.23060  1.0000 -0.10640059
C   C53       1.0  0.75196  0.07464  0.80470  1.0000 0.0007681154
C   C54       1.0  0.07464  0.75196  0.69530  1.0000 0.0007681154
C   C55       1.0  0.24804  0.92536  0.19530  1.0000 0.0007681154
C   C56       1.0  0.92536  0.24804  0.30470  1.0000 0.0007681154
C   C57       1.0  0.67868  0.09292  0.80050  1.0000 -0.1391783949
C   C58       1.0  0.09292  0.67868  0.69950  1.0000 -0.1391783949
C   C59       1.0  0.32132  0.90708  0.19950  1.0000 -0.1391783949
C   C60       1.0  0.90708  0.32132  0.30050  1.0000 -0.1391783949
C   C61       1.0  0.80036  0.08004  0.56860  1.0000 0.5589788559
C   C62       1.0  0.08004  0.80036  0.93140  1.0000 0.5589788559
C   C63       1.0  0.19964  0.91996  0.43140  1.0000 0.5589788559
C   C64       1.0  0.91996  0.19964  0.06860  1.0000 0.5589788559
C   C65       1.0  0.78881  0.05779  0.89110  1.0000 0.5727979544
C   C66       1.0  0.05779  0.78881  0.60890  1.0000 0.5727979544
C   C67       1.0  0.21119  0.94221  0.10890  1.0000 0.5727979544
C   C68       1.0  0.94221  0.21119  0.39110  1.0000 0.5727979544
N   N1        1.0  0.90615  0.95305  0.04710  1.0000 -0.3087710363
N   N2        1.0  0.95305  0.90615  0.45290  1.0000 -0.3087710363
N   N3        1.0  0.09385  0.04695  0.95290  1.0000 -0.3087710363
N   N4        1.0  0.04695  0.09385  0.54710  1.0000 -0.3087710363
N   N5        1.0  0.96079  0.91021  0.06210  1.0000 -0.3087710363
N   N6        1.0  0.91021  0.96079  0.43790  1.0000 -0.3087710363
N   N7        1.0  0.03921  0.08979  0.93790  1.0000 -0.3087710363
N   N8        1.0  0.08979  0.03921  0.56210  1.0000 -0.3087710363
N   N9        1.0  0.85387  0.85153  0.14750  1.0000 -0.506007522
N   N10       1.0  0.85153  0.85387  0.35250  1.0000 -0.506007522
N   N11       1.0  0.14613  0.14847  0.85250  1.0000 -0.506007522
N   N12       1.0  0.14847  0.14613  0.64750  1.0000 -0.506007522
N   N13       1.0  0.77772  0.93908  0.10590  1.0000 -0.5694748756
N   N14       1.0  0.93908  0.77772  0.39410  1.0000 -0.5694748756
N   N15       1.0  0.22228  0.06092  0.89410  1.0000 -0.5694748756
N   N16       1.0  0.06092  0.22228  0.60590  1.0000 -0.5694748756
N   N17       1.0  0.96329  0.79691  0.15230  1.0000 -0.6045759913
N   N18       1.0  0.79691  0.96329  0.34770  1.0000 -0.6045759913
N   N19       1.0  0.03671  0.20309  0.84770  1.0000 -0.6045759913
N   N20       1.0  0.20309  0.03671  0.65230  1.0000 -0.6045759913
O   O1        1.0  0.30653  0.18007  0.76490  1.0000 -0.5522969362
O   O2        1.0  0.18007  0.30653  0.73510  1.0000 -0.5522969362
O   O3        1.0  0.69347  0.81993  0.23510  1.0000 -0.5522969362
O   O4        1.0  0.81993  0.69347  0.26490  1.0000 -0.5522969362
O   O5        1.0  0.35587  0.26673  0.65960  1.0000 -0.4682859701
O   O6        1.0  0.26673  0.35587  0.84040  1.0000 -0.4682859701
O   O7        1.0  0.64413  0.73327  0.34040  1.0000 -0.4682859701
O   O8        1.0  0.73327  0.64413  0.15960  1.0000 -0.4682859701
O   O9        1.0  0.76781  0.08079  0.49800  1.0000 -0.4886755791
O   O10       1.0  0.08079  0.76781  0.00200  1.0000 -0.4886755791
O   O11       1.0  0.23219  0.91921  0.50200  1.0000 -0.4886755791
O   O12       1.0  0.91921  0.23219  0.99800  1.0000 -0.4886755791
O   O13       1.0  0.86947  0.07333  0.58010  1.0000 -0.5210700032
O   O14       1.0  0.07333  0.86947  0.91990  1.0000 -0.5210700032
O   O15       1.0  0.13053  0.92667  0.41990  1.0000 -0.5210700032
O   O16       1.0  0.92667  0.13053  0.08010  1.0000 -0.5210700032
O   O17       1.0  0.74858  0.04442  0.95730  1.0000 -0.5210700032
O   O18       1.0  0.04442  0.74858  0.54270  1.0000 -0.5210700032
O   O19       1.0  0.25142  0.95558  0.04270  1.0000 -0.5210700032
O   O20       1.0  0.95558  0.25142  0.45730  1.0000 -0.5210700032
O   O21       1.0  0.86144  0.05956  0.88780  1.0000 -0.5293858942
O   O22       1.0  0.05956  0.86144  0.61220  1.0000 -0.5293858942
O   O23       1.0  0.13856  0.94044  0.11220  1.0000 -0.5293858942
O   O24       1.0  0.94044  0.13856  0.38780  1.0000 -0.5293858942
