# DDEC6 charges by PACMAN v1.1 (https://github.com/mtap-research/PACMAN-charge/)
data_2016[Cd][cds]3[FSR]1
_chemical_formula_sum              "Cd4 H76 C108 N28 O16"
_cell_length_a       11.0172
_cell_length_b       11.0172
_cell_length_c       24.839
_cell_angle_alpha    86.6771
_cell_angle_beta     93.3229
_cell_angle_gamma    82.1316

_symmetry_space_group_name_H-M    "P 1"
_symmetry_Int_Tables_number       1

loop_
  _symmetry_equiv_pos_as_xyz
  'x, y, z'

loop_
  _atom_site_type_symbol
  _atom_site_label
  _atom_site_symmetry_multiplicity
  _atom_site_fract_x
  _atom_site_fract_y
  _atom_site_fract_z
  _atom_site_occupancy
  _atom_site_charge
Cd  Cd1       1.0  0.36377  0.11571  0.51337  1.0000 0.8535039353
Cd  Cd2       1.0  0.11571  0.36377  0.98663  1.0000 0.8535039353
Cd  Cd3       1.0  0.63623  0.88429  0.48663  1.0000 0.8535039353
Cd  Cd4       1.0  0.88429  0.63623  0.01337  1.0000 0.8535039353
H   H1        1.0  0.14340  0.26520  0.82710  1.0000 0.119392639
H   H2        1.0  0.26520  0.14340  0.67290  1.0000 0.119392639
H   H3        1.0  0.85660  0.73480  0.17290  1.0000 0.119392639
H   H4        1.0  0.73480  0.85660  0.32710  1.0000 0.119392639
H   H5        1.0  0.86980  0.11440  0.75730  1.0000 0.1407996061
H   H6        1.0  0.11440  0.86980  0.74270  1.0000 0.1407996061
H   H7        1.0  0.13020  0.88560  0.24270  1.0000 0.1407996061
H   H8        1.0  0.88560  0.13020  0.25730  1.0000 0.1407996061
H   H9        1.0  0.98430  0.41370  0.69140  1.0000 0.1021848547
H   H10       1.0  0.41370  0.98430  0.80860  1.0000 0.1021848547
H   H11       1.0  0.01570  0.58630  0.30860  1.0000 0.1021848547
H   H12       1.0  0.58630  0.01570  0.19140  1.0000 0.1021848547
H   H13       1.0  0.15730  0.11450  0.89270  1.0000 0.2977570695
H   H14       1.0  0.11450  0.15730  0.60730  1.0000 0.2977570695
H   H15       1.0  0.84270  0.88550  0.10730  1.0000 0.2977570695
H   H16       1.0  0.88550  0.84270  0.39270  1.0000 0.2977570695
H   H17       1.0  0.19570  0.95170  0.98870  1.0000 0.1486398729
H   H18       1.0  0.95170  0.19570  0.51130  1.0000 0.1486398729
H   H19       1.0  0.80430  0.04830  0.01130  1.0000 0.1486398729
H   H20       1.0  0.04830  0.80430  0.48870  1.0000 0.1486398729
H   H21       1.0  0.10590  0.79350  0.02750  1.0000 0.1074826198
H   H22       1.0  0.79350  0.10590  0.47250  1.0000 0.1074826198
H   H23       1.0  0.89410  0.20650  0.97250  1.0000 0.1074826198
H   H24       1.0  0.20650  0.89410  0.52750  1.0000 0.1074826198
H   H25       1.0  0.86280  0.80340  0.90580  1.0000 0.131242879
H   H26       1.0  0.80340  0.86280  0.59420  1.0000 0.131242879
H   H27       1.0  0.13720  0.19660  0.09420  1.0000 0.131242879
H   H28       1.0  0.19660  0.13720  0.40580  1.0000 0.131242879
H   H29       1.0  0.84050  0.41030  0.62170  1.0000 0.2977570695
H   H30       1.0  0.41030  0.84050  0.87830  1.0000 0.2977570695
H   H31       1.0  0.15950  0.58970  0.37830  1.0000 0.2977570695
H   H32       1.0  0.58970  0.15950  0.12170  1.0000 0.2977570695
H   H33       1.0  0.67570  0.43230  0.52650  1.0000 0.1486398729
H   H34       1.0  0.43230  0.67570  0.97350  1.0000 0.1486398729
H   H35       1.0  0.32430  0.56770  0.47350  1.0000 0.1486398729
H   H36       1.0  0.56770  0.32430  0.02650  1.0000 0.1486398729
H   H37       1.0  0.52310  0.33010  0.49060  1.0000 0.1074826198
H   H38       1.0  0.33010  0.52310  0.00940  1.0000 0.1074826198
H   H39       1.0  0.47690  0.66990  0.50940  1.0000 0.1074826198
H   H40       1.0  0.66990  0.47690  0.99060  1.0000 0.1074826198
H   H41       1.0  0.55450  0.08910  0.61460  1.0000 0.119392639
H   H42       1.0  0.08910  0.55450  0.88540  1.0000 0.119392639
H   H43       1.0  0.44550  0.91090  0.38540  1.0000 0.119392639
H   H44       1.0  0.91090  0.44550  0.11460  1.0000 0.119392639
H   H45       1.0  0.09090  0.48150  0.53690  1.0000 0.1486398729
H   H46       1.0  0.48150  0.09090  0.96310  1.0000 0.1486398729
H   H47       1.0  0.90910  0.51850  0.46310  1.0000 0.1486398729
H   H48       1.0  0.51850  0.90910  0.03690  1.0000 0.1486398729
H   H49       1.0  0.09870  0.41030  0.59380  1.0000 0.1407996061
H   H50       1.0  0.41030  0.09870  0.90620  1.0000 0.1407996061
H   H51       1.0  0.90130  0.58970  0.40620  1.0000 0.1407996061
H   H52       1.0  0.58970  0.90130  0.09380  1.0000 0.1407996061
H   H53       1.0  0.39110  0.41670  0.58930  1.0000 0.119392639
H   H54       1.0  0.41670  0.39110  0.91070  1.0000 0.119392639
H   H55       1.0  0.60890  0.58330  0.41070  1.0000 0.119392639
H   H56       1.0  0.58330  0.60890  0.08930  1.0000 0.119392639
H   H57       1.0  0.51330  0.55830  0.61850  1.0000 0.119392639
H   H58       1.0  0.55830  0.51330  0.88150  1.0000 0.119392639
H   H59       1.0  0.48670  0.44170  0.38150  1.0000 0.119392639
H   H60       1.0  0.44170  0.48670  0.11850  1.0000 0.119392639
H   H61       1.0  0.21370  0.80170  0.62760  1.0000 0.119392639
H   H62       1.0  0.80170  0.21370  0.87240  1.0000 0.119392639
H   H63       1.0  0.78630  0.19830  0.37240  1.0000 0.119392639
H   H64       1.0  0.19830  0.78630  0.12760  1.0000 0.119392639
H   H65       1.0  0.09230  0.66230  0.59770  1.0000 0.119392639
H   H66       1.0  0.66230  0.09230  0.90230  1.0000 0.119392639
H   H67       1.0  0.90770  0.33770  0.40230  1.0000 0.119392639
H   H68       1.0  0.33770  0.90770  0.09770  1.0000 0.119392639
H   H69       1.0  0.41610  0.84170  0.66760  1.0000 0.1407996061
H   H70       1.0  0.84170  0.41610  0.83240  1.0000 0.1407996061
H   H71       1.0  0.58390  0.15830  0.33240  1.0000 0.1407996061
H   H72       1.0  0.15830  0.58390  0.16760  1.0000 0.1407996061
H   H73       1.0  0.53450  0.75230  0.65650  1.0000 0.1486398729
H   H74       1.0  0.75230  0.53450  0.84350  1.0000 0.1486398729
H   H75       1.0  0.46550  0.24770  0.34350  1.0000 0.1486398729
H   H76       1.0  0.24770  0.46550  0.15650  1.0000 0.1486398729
C   C1        1.0  0.08298  0.26618  0.79932  1.0000 0.0197877625
C   C2        1.0  0.26618  0.08298  0.70068  1.0000 0.0197877625
C   C3        1.0  0.91702  0.73382  0.20068  1.0000 0.0197877625
C   C4        1.0  0.73382  0.91702  0.29932  1.0000 0.0197877625
C   C5        1.0  0.00901  0.17495  0.80041  1.0000 -0.0292109156
C   C6        1.0  0.17495  0.00901  0.69959  1.0000 -0.0292109156
C   C7        1.0  0.99099  0.82505  0.19959  1.0000 -0.0292109156
C   C8        1.0  0.82505  0.99099  0.30041  1.0000 -0.0292109156
C   C9        1.0  0.92093  0.17483  0.75778  1.0000 -0.0963346286
C   C10       1.0  0.17483  0.92093  0.74222  1.0000 -0.0963346286
C   C11       1.0  0.07907  0.82517  0.24222  1.0000 -0.0963346286
C   C12       1.0  0.82517  0.07907  0.25778  1.0000 -0.0963346286
C   C13       1.0  0.91027  0.26647  0.71573  1.0000 -0.0292109156
C   C14       1.0  0.26647  0.91027  0.78427  1.0000 -0.0292109156
C   C15       1.0  0.08973  0.73353  0.28427  1.0000 -0.0292109156
C   C16       1.0  0.73353  0.08973  0.21573  1.0000 -0.0292109156
C   C17       1.0  0.98920  0.35300  0.71944  1.0000 -0.0076630993
C   C18       1.0  0.35300  0.98920  0.78056  1.0000 -0.0076630993
C   C19       1.0  0.01080  0.64700  0.28056  1.0000 -0.0076630993
C   C20       1.0  0.64700  0.01080  0.21944  1.0000 -0.0076630993
C   C21       1.0  0.01628  0.07914  0.84449  1.0000 0.2977570695
C   C22       1.0  0.07914  0.01628  0.65551  1.0000 0.2977570695
C   C23       1.0  0.98372  0.92086  0.15551  1.0000 0.2977570695
C   C24       1.0  0.92086  0.98372  0.34449  1.0000 0.2977570695
C   C25       1.0  0.97715  0.93015  0.89597  1.0000 0.0898450336
C   C26       1.0  0.93015  0.97715  0.60403  1.0000 0.0898450336
C   C27       1.0  0.02285  0.06985  0.10403  1.0000 0.0898450336
C   C28       1.0  0.06985  0.02285  0.39597  1.0000 0.0898450336
C   C29       1.0  0.07669  0.97629  0.92168  1.0000 0.1610190889
C   C30       1.0  0.97629  0.07669  0.57832  1.0000 0.1610190889
C   C31       1.0  0.92331  0.02371  0.07832  1.0000 0.1610190889
C   C32       1.0  0.02371  0.92331  0.42168  1.0000 0.1610190889
C   C33       1.0  0.12828  0.92428  0.97153  1.0000 -0.2368744833
C   C34       1.0  0.92428  0.12828  0.52847  1.0000 -0.2368744833
C   C35       1.0  0.87172  0.07572  0.02847  1.0000 -0.2368744833
C   C36       1.0  0.07572  0.87172  0.47153  1.0000 -0.2368744833
C   C37       1.0  0.07381  0.82961  0.99400  1.0000 0.0300678689
C   C38       1.0  0.82961  0.07381  0.50600  1.0000 0.0300678689
C   C39       1.0  0.92619  0.17039  0.00600  1.0000 0.0300678689
C   C40       1.0  0.17039  0.92619  0.49400  1.0000 0.0300678689
C   C41       1.0  0.92919  0.83419  0.92223  1.0000 0.0300678689
C   C42       1.0  0.83419  0.92919  0.57777  1.0000 0.0300678689
C   C43       1.0  0.07081  0.16581  0.07777  1.0000 0.0300678689
C   C44       1.0  0.16581  0.07081  0.42223  1.0000 0.0300678689
C   C45       1.0  0.81942  0.26662  0.67107  1.0000 0.292927705
C   C46       1.0  0.26662  0.81942  0.82893  1.0000 0.292927705
C   C47       1.0  0.18058  0.73338  0.32893  1.0000 0.292927705
C   C48       1.0  0.73338  0.18058  0.17107  1.0000 0.292927705
C   C49       1.0  0.67444  0.21144  0.62073  1.0000 0.0898450336
C   C50       1.0  0.21144  0.67444  0.87927  1.0000 0.0898450336
C   C51       1.0  0.32556  0.78856  0.37927  1.0000 0.0898450336
C   C52       1.0  0.78856  0.32556  0.12073  1.0000 0.0898450336
C   C53       1.0  0.70958  0.31598  0.59474  1.0000 0.1610190889
C   C54       1.0  0.31598  0.70958  0.90526  1.0000 0.1610190889
C   C55       1.0  0.29042  0.68402  0.40526  1.0000 0.1610190889
C   C56       1.0  0.68402  0.29042  0.09474  1.0000 0.1610190889
C   C57       1.0  0.65336  0.36336  0.54469  1.0000 -0.2323587013
C   C58       1.0  0.36336  0.65336  0.95531  1.0000 -0.2323587013
C   C59       1.0  0.34664  0.63664  0.45531  1.0000 -0.2323587013
C   C60       1.0  0.63664  0.34664  0.04469  1.0000 -0.2323587013
C   C61       1.0  0.56260  0.30120  0.52393  1.0000 0.0430062611
C   C62       1.0  0.30120  0.56260  0.97607  1.0000 0.0430062611
C   C63       1.0  0.43740  0.69880  0.47607  1.0000 0.0430062611
C   C64       1.0  0.69880  0.43740  0.02393  1.0000 0.0430062611
C   C65       1.0  0.58044  0.15684  0.59694  1.0000 0.0300678689
C   C66       1.0  0.15684  0.58044  0.90306  1.0000 0.0300678689
C   C67       1.0  0.41956  0.84316  0.40306  1.0000 0.0300678689
C   C68       1.0  0.84316  0.41956  0.09694  1.0000 0.0300678689
C   C69       1.0  0.21560  0.32860  0.54301  1.0000 0.6051399636
C   C70       1.0  0.32860  0.21560  0.95699  1.0000 0.6051399636
C   C71       1.0  0.78440  0.67140  0.45699  1.0000 0.6051399636
C   C72       1.0  0.67140  0.78440  0.04301  1.0000 0.6051399636
C   C73       1.0  0.14720  0.43760  0.56520  1.0000 -0.4073147623
C   C74       1.0  0.43760  0.14720  0.93480  1.0000 -0.4073147623
C   C75       1.0  0.85280  0.56240  0.43480  1.0000 -0.4073147623
C   C76       1.0  0.56240  0.85280  0.06520  1.0000 -0.4073147623
C   C77       1.0  0.22975  0.52535  0.58772  1.0000 0.1407996061
C   C78       1.0  0.52535  0.22975  0.91228  1.0000 0.1407996061
C   C79       1.0  0.77025  0.47465  0.41228  1.0000 0.1407996061
C   C80       1.0  0.47465  0.77025  0.08772  1.0000 0.1407996061
C   C81       1.0  0.35470  0.49530  0.59585  1.0000 -0.160660104
C   C82       1.0  0.49530  0.35470  0.90415  1.0000 -0.160660104
C   C83       1.0  0.64530  0.50470  0.40415  1.0000 -0.160660104
C   C84       1.0  0.50470  0.64530  0.09585  1.0000 -0.160660104
C   C85       1.0  0.42860  0.58040  0.61386  1.0000 -0.160660104
C   C86       1.0  0.58040  0.42860  0.88614  1.0000 -0.160660104
C   C87       1.0  0.57140  0.41960  0.38614  1.0000 -0.160660104
C   C88       1.0  0.41960  0.57140  0.11386  1.0000 -0.160660104
C   C89       1.0  0.37695  0.69715  0.62487  1.0000 0.1407996061
C   C90       1.0  0.69715  0.37695  0.87513  1.0000 0.1407996061
C   C91       1.0  0.62305  0.30285  0.37513  1.0000 0.1407996061
C   C92       1.0  0.30285  0.62305  0.12487  1.0000 0.1407996061
C   C93       1.0  0.25040  0.72480  0.61909  1.0000 -0.1458698025
C   C94       1.0  0.72480  0.25040  0.88091  1.0000 -0.1458698025
C   C95       1.0  0.74960  0.27520  0.38091  1.0000 -0.1458698025
C   C96       1.0  0.27520  0.74960  0.11909  1.0000 -0.1458698025
C   C97       1.0  0.17720  0.64120  0.60099  1.0000 -0.160660104
C   C98       1.0  0.64120  0.17720  0.89901  1.0000 -0.160660104
C   C99       1.0  0.82280  0.35880  0.39901  1.0000 -0.160660104
C   C100      1.0  0.35880  0.82280  0.10099  1.0000 -0.160660104
C   C101      1.0  0.45550  0.79230  0.64074  1.0000 -0.3861940091
C   C102      1.0  0.79230  0.45550  0.85926  1.0000 -0.3861940091
C   C103      1.0  0.54450  0.20770  0.35926  1.0000 -0.3861940091
C   C104      1.0  0.20770  0.54450  0.14074  1.0000 -0.3861940091
C   C105      1.0  0.47374  0.87334  0.59184  1.0000 0.6485395955
C   C106      1.0  0.87334  0.47374  0.90816  1.0000 0.6485395955
C   C107      1.0  0.52626  0.12666  0.40816  1.0000 0.6485395955
C   C108      1.0  0.12666  0.52626  0.09184  1.0000 0.6485395955
N   N1        1.0  0.07158  0.35578  0.76025  1.0000 -0.2323587013
N   N2        1.0  0.35578  0.07158  0.73975  1.0000 -0.2323587013
N   N3        1.0  0.92842  0.64422  0.23975  1.0000 -0.2323587013
N   N4        1.0  0.64422  0.92842  0.26025  1.0000 -0.2323587013
N   N5        1.0  0.10017  0.06949  0.88787  1.0000 -0.3028149603
N   N6        1.0  0.06949  0.10017  0.61213  1.0000 -0.3028149603
N   N7        1.0  0.89983  0.93051  0.11213  1.0000 -0.3028149603
N   N8        1.0  0.93051  0.89983  0.38787  1.0000 -0.3028149603
N   N9        1.0  0.94162  0.99584  0.84726  1.0000 -0.3961591942
N   N10       1.0  0.99584  0.94162  0.65274  1.0000 -0.3961591942
N   N11       1.0  0.05838  0.00416  0.15274  1.0000 -0.3961591942
N   N12       1.0  0.00416  0.05838  0.34726  1.0000 -0.3961591942
N   N13       1.0  0.97608  0.78626  0.97003  1.0000 -0.2531657163
N   N14       1.0  0.78626  0.97608  0.52997  1.0000 -0.2531657163
N   N15       1.0  0.02392  0.21374  0.02997  1.0000 -0.2531657163
N   N16       1.0  0.21374  0.02392  0.47003  1.0000 -0.2531657163
N   N17       1.0  0.80132  0.34890  0.62749  1.0000 -0.3073072133
N   N18       1.0  0.34890  0.80132  0.87251  1.0000 -0.3073072133
N   N19       1.0  0.19868  0.65110  0.37251  1.0000 -0.3073072133
N   N20       1.0  0.65110  0.19868  0.12749  1.0000 -0.3073072133
N   N21       1.0  0.74459  0.18041  0.66865  1.0000 -0.3861940091
N   N22       1.0  0.18041  0.74459  0.83135  1.0000 -0.3861940091
N   N23       1.0  0.25541  0.81959  0.33135  1.0000 -0.3861940091
N   N24       1.0  0.81959  0.25541  0.16865  1.0000 -0.3861940091
N   N25       1.0  0.52750  0.20058  0.54918  1.0000 -0.2531657163
N   N26       1.0  0.20058  0.52750  0.95082  1.0000 -0.2531657163
N   N27       1.0  0.47250  0.79942  0.45082  1.0000 -0.2551849259
N   N28       1.0  0.79942  0.47250  0.04918  1.0000 -0.2531657163
O   O1        1.0  0.23871  0.23049  0.57199  1.0000 -0.5433680786
O   O2        1.0  0.23049  0.23871  0.92801  1.0000 -0.5433680786
O   O3        1.0  0.76129  0.76951  0.42801  1.0000 -0.5433680786
O   O4        1.0  0.76951  0.76129  0.07199  1.0000 -0.5433680786
O   O5        1.0  0.25224  0.33470  0.49663  1.0000 -0.5433680786
O   O6        1.0  0.33470  0.25224  0.00337  1.0000 -0.5433680786
O   O7        1.0  0.74776  0.66530  0.50337  1.0000 -0.5433680786
O   O8        1.0  0.66530  0.74776  0.99663  1.0000 -0.5433680786
O   O9        1.0  0.57113  0.84813  0.56901  1.0000 -0.5648832393
O   O10       1.0  0.84813  0.57113  0.93099  1.0000 -0.5648832393
O   O11       1.0  0.42887  0.15187  0.43099  1.0000 -0.5717032624
O   O12       1.0  0.15187  0.42887  0.06901  1.0000 -0.5717032624
O   O13       1.0  0.38811  0.95981  0.57802  1.0000 -0.5717032624
O   O14       1.0  0.95981  0.38811  0.92198  1.0000 -0.5717032624
O   O15       1.0  0.61189  0.04019  0.42198  1.0000 -0.5717032624
O   O16       1.0  0.04019  0.61189  0.07802  1.0000 -0.5717032624
