# DDEC6 charges by PACMAN v1.1 (https://github.com/mtap-research/PACMAN-charge/)
data_2016[Tb][ant]3[FSR]2
_chemical_formula_sum              "Tb2 H28 C40 N10 O14"
_cell_length_a       11.9839
_cell_length_b       11.9839
_cell_length_c       9.895
_cell_angle_alpha    70.8457
_cell_angle_beta     109.154
_cell_angle_gamma    113.205

_symmetry_space_group_name_H-M    "P 1"
_symmetry_Int_Tables_number       1

loop_
  _symmetry_equiv_pos_as_xyz
  'x, y, z'

loop_
  _atom_site_type_symbol
  _atom_site_label
  _atom_site_symmetry_multiplicity
  _atom_site_fract_x
  _atom_site_fract_y
  _atom_site_fract_z
  _atom_site_occupancy
  _atom_site_charge
Tb  Tb1       1.0  0.05871  0.05871  0.75000  1.0000 1.9497831164
Tb  Tb2       1.0  0.94129  0.94129  0.25000  1.0000 1.9497831164
H   H1        1.0  0.34170  0.91930  0.81690  1.0000 0.1170400806
H   H2        1.0  0.91930  0.34170  0.68310  1.0000 0.1170400806
H   H3        1.0  0.65830  0.08070  0.18310  1.0000 0.1170400806
H   H4        1.0  0.08070  0.65830  0.31690  1.0000 0.1170400806
H   H5        1.0  0.56060  0.80140  0.70070  1.0000 0.1170400806
H   H6        1.0  0.80140  0.56060  0.79930  1.0000 0.1170400806
H   H7        1.0  0.43940  0.19860  0.29930  1.0000 0.1170400806
H   H8        1.0  0.19860  0.43940  0.20070  1.0000 0.1170400806
H   H9        1.0  0.43560  0.81380  0.46680  1.0000 0.1170400806
H   H10       1.0  0.81380  0.43560  0.03320  1.0000 0.1148933617
H   H11       1.0  0.56440  0.18620  0.53320  1.0000 0.1170400806
H   H12       1.0  0.18620  0.56440  0.96680  1.0000 0.1170400806
H   H13       1.0  0.25590  0.86790  0.40950  1.0000 0.1170400806
H   H14       1.0  0.86790  0.25590  0.09050  1.0000 0.1170400806
H   H15       1.0  0.74410  0.13210  0.59050  1.0000 0.1170400806
H   H16       1.0  0.13210  0.74410  0.90950  1.0000 0.1170400806
H   H17       1.0  0.42870  0.79910  0.07980  1.0000 0.1416584326
H   H18       1.0  0.79910  0.42870  0.42020  1.0000 0.1416584326
H   H19       1.0  0.57130  0.20090  0.92020  1.0000 0.1416584326
H   H20       1.0  0.20090  0.57130  0.57980  1.0000 0.1416584326
H   H21       1.0  0.62040  0.80120  0.27430  1.0000 0.1170400806
H   H22       1.0  0.80120  0.62040  0.22570  1.0000 0.1170400806
H   H23       1.0  0.37960  0.19880  0.72570  1.0000 0.1170400806
H   H24       1.0  0.19880  0.37960  0.77430  1.0000 0.1170400806
H   H25       1.0  0.70770  0.88950  0.90570  1.0000 0.2703203855
H   H26       1.0  0.88950  0.70770  0.59430  1.0000 0.2703203855
H   H27       1.0  0.29230  0.11050  0.09430  1.0000 0.2703203855
H   H28       1.0  0.11050  0.29230  0.40570  1.0000 0.2703203855
C   C1        1.0  0.16770  0.93810  0.56960  1.0000 0.6544639168
C   C2        1.0  0.93810  0.16770  0.93040  1.0000 0.6544639168
C   C3        1.0  0.83230  0.06190  0.43040  1.0000 0.6544639168
C   C4        1.0  0.06190  0.83230  0.06960  1.0000 0.6544639168
C   C5        1.0  0.28190  0.89830  0.60850  1.0000 -0.0265227894
C   C6        1.0  0.89830  0.28190  0.89150  1.0000 -0.0265227894
C   C7        1.0  0.71810  0.10170  0.39150  1.0000 -0.0265227894
C   C8        1.0  0.10170  0.71810  0.10850  1.0000 -0.0265227894
C   C9        1.0  0.35910  0.89570  0.74730  1.0000 -0.1552502962
C   C10       1.0  0.89570  0.35910  0.75270  1.0000 -0.1549442562
C   C11       1.0  0.64090  0.10430  0.25270  1.0000 -0.1549442562
C   C12       1.0  0.10430  0.64090  0.24730  1.0000 -0.1549442562
C   C13       1.0  0.46440  0.85720  0.78320  1.0000 0.0446799376
C   C14       1.0  0.85720  0.46440  0.71680  1.0000 0.0446799376
C   C15       1.0  0.53560  0.14280  0.21680  1.0000 0.0446799376
C   C16       1.0  0.14280  0.53560  0.28320  1.0000 0.0446799376
C   C17       1.0  0.49100  0.82640  0.67770  1.0000 -0.1353378894
C   C18       1.0  0.82640  0.49100  0.82230  1.0000 -0.1353378894
C   C19       1.0  0.50900  0.17360  0.32230  1.0000 -0.134830341
C   C20       1.0  0.17360  0.50900  0.17770  1.0000 -0.1353378894
C   C21       1.0  0.41530  0.83250  0.53810  1.0000 -0.0888969528
C   C22       1.0  0.83250  0.41530  0.96190  1.0000 -0.0888969528
C   C23       1.0  0.58470  0.16750  0.46190  1.0000 -0.0888969528
C   C24       1.0  0.16750  0.58470  0.03810  1.0000 -0.0888969528
C   C25       1.0  0.30850  0.86650  0.50280  1.0000 -0.1142100396
C   C26       1.0  0.86650  0.30850  0.99720  1.0000 -0.1142100396
C   C27       1.0  0.69150  0.13350  0.49720  1.0000 -0.1142100396
C   C28       1.0  0.13350  0.69150  0.00280  1.0000 -0.1142100396
C   C29       1.0  0.54090  0.84850  0.93530  1.0000 0.1416584326
C   C30       1.0  0.84850  0.54090  0.56470  1.0000 0.1416584326
C   C31       1.0  0.45910  0.15150  0.06470  1.0000 0.1416584326
C   C32       1.0  0.15150  0.45910  0.43530  1.0000 0.1416584326
C   C33       1.0  0.50790  0.81770  0.06630  1.0000 -0.2746456864
C   C34       1.0  0.81770  0.50790  0.43370  1.0000 -0.2746456864
C   C35       1.0  0.49210  0.18230  0.93370  1.0000 -0.2746456864
C   C36       1.0  0.18230  0.49210  0.56630  1.0000 -0.2753458025
C   C37       1.0  0.61610  0.81990  0.17410  1.0000 0.0236921397
C   C38       1.0  0.81990  0.61610  0.32590  1.0000 0.0236921397
C   C39       1.0  0.38390  0.18010  0.82590  1.0000 0.0236921397
C   C40       1.0  0.18010  0.38390  0.67410  1.0000 0.0236921397
N   N1        1.0  0.71400  0.85220  0.11620  1.0000 -0.3026968988
N   N2        1.0  0.85220  0.71400  0.38380  1.0000 -0.3026968988
N   N3        1.0  0.28600  0.14780  0.88380  1.0000 -0.3026968988
N   N4        1.0  0.14780  0.28600  0.61620  1.0000 -0.3026968988
N   N5        1.0  0.66470  0.86850  0.96980  1.0000 -0.0888969528
N   N6        1.0  0.86850  0.66470  0.53020  1.0000 -0.0888969528
N   N7        1.0  0.33530  0.13150  0.03020  1.0000 -0.0888969528
N   N8        1.0  0.13150  0.33530  0.46980  1.0000 -0.0888969528
N   N9        1.0  0.83300  0.83300  0.75000  1.0000 0.6989824174
N   N10       1.0  0.16700  0.16700  0.25000  1.0000 0.6989824174
O   O1        1.0  0.16656  0.00164  0.64710  1.0000 -0.6725725236
O   O2        1.0  0.00164  0.16656  0.85290  1.0000 -0.6725725236
O   O3        1.0  0.83344  0.99836  0.35290  1.0000 -0.6725725236
O   O4        1.0  0.99836  0.83344  0.14710  1.0000 -0.6725725236
O   O5        1.0  0.08238  0.90422  0.46430  1.0000 -0.6645695867
O   O6        1.0  0.90422  0.08238  0.03570  1.0000 -0.6645695867
O   O7        1.0  0.91762  0.09578  0.53570  1.0000 -0.6645695867
O   O8        1.0  0.09578  0.91762  0.96430  1.0000 -0.6645695867
O   O9        1.0  0.84361  0.92499  0.79580  1.0000 -0.4794009479
O   O10       1.0  0.92499  0.84361  0.70420  1.0000 -0.4794009479
O   O11       1.0  0.15639  0.07501  0.20420  1.0000 -0.4794009479
O   O12       1.0  0.07501  0.15639  0.29580  1.0000 -0.4794009479
O   O13       1.0  0.74180  0.74180  0.75000  1.0000 -0.3654011192
O   O14       1.0  0.25820  0.25820  0.25000  1.0000 -0.3654011192
