# DDEC6 charges by PACMAN v1.1 (https://github.com/mtap-research/PACMAN-charge/)
data_2016[Zn][sql]2[FSR]2
_chemical_formula_sum              "Zn2 H48 C40 N8 O8"
_cell_length_a       6.811
_cell_length_b       9.7186
_cell_length_c       15.4529
_cell_angle_alpha    96.538
_cell_angle_beta     92.304
_cell_angle_gamma    91.922

_symmetry_space_group_name_H-M    "P 1"
_symmetry_Int_Tables_number       1

loop_
  _symmetry_equiv_pos_as_xyz
  'x, y, z'

loop_
  _atom_site_type_symbol
  _atom_site_label
  _atom_site_symmetry_multiplicity
  _atom_site_fract_x
  _atom_site_fract_y
  _atom_site_fract_z
  _atom_site_occupancy
  _atom_site_charge
Zn  Zn1       1.0  0.85512  0.01951  0.24992  1.0000 0.7500173745
Zn  Zn2       1.0  0.14488  0.98049  0.75008  1.0000 0.7500173745
H   H1        1.0  0.87450  0.81860  0.06500  1.0000 0.119563516
H   H2        1.0  0.15650  0.80720  0.97140  1.0000 0.137253802
H   H3        1.0  0.30610  0.05150  0.18680  1.0000 0.119563516
H   H4        1.0  0.55620  0.87020  0.02530  1.0000 0.1095915322
H   H5        1.0  0.58000  0.01020  0.08700  1.0000 0.119563516
H   H6        1.0  0.63520  0.60660  0.10210  1.0000 0.100499111
H   H7        1.0  0.45440  0.70090  0.11790  1.0000 0.0902955336
H   H8        1.0  0.34460  0.48490  0.04250  1.0000 0.0702285019
H   H9        1.0  0.11940  0.59250  0.13970  1.0000 0.100499111
H   H10       1.0  0.09310  0.43070  0.13690  1.0000 0.100499111
H   H11       1.0  0.10770  0.53180  0.28360  1.0000 0.0902955336
H   H12       1.0  0.39620  0.65640  0.34220  1.0000 0.100499111
H   H13       1.0  0.30610  0.73110  0.26560  1.0000 0.100499111
H   H14       1.0  0.69010  0.50630  0.31610  1.0000 0.1095915322
H   H15       1.0  0.78080  0.48830  0.22390  1.0000 0.100499111
H   H16       1.0  0.59440  0.35050  0.09650  1.0000 0.100499111
H   H17       1.0  0.38780  0.28060  0.10910  1.0000 0.0902955336
H   H18       1.0  0.35900  0.39520  0.33710  1.0000 0.100499111
H   H19       1.0  0.24260  0.30870  0.25820  1.0000 0.0902955336
H   H20       1.0  0.15560  0.88740  0.37030  1.0000 0.119563516
H   H21       1.0  0.99420  0.27200  0.40010  1.0000 0.1296843139
H   H22       1.0  0.24410  0.24630  0.51500  1.0000 0.137253802
H   H23       1.0  0.37880  0.88020  0.50510  1.0000 0.119563516
H   H24       1.0  0.38530  0.01160  0.57470  1.0000 0.1296843139
H   H25       1.0  0.12550  0.18140  0.93500  1.0000 0.119563516
H   H26       1.0  0.84350  0.19280  0.02860  1.0000 0.137253802
H   H27       1.0  0.69390  0.94850  0.81320  1.0000 0.119563516
H   H28       1.0  0.44380  0.12980  0.97470  1.0000 0.1095915322
H   H29       1.0  0.42000  0.98980  0.91300  1.0000 0.119563516
H   H30       1.0  0.36480  0.39340  0.89790  1.0000 0.100499111
H   H31       1.0  0.54560  0.29910  0.88210  1.0000 0.0902955336
H   H32       1.0  0.65540  0.51510  0.95750  1.0000 0.0702285019
H   H33       1.0  0.88060  0.40750  0.86030  1.0000 0.100499111
H   H34       1.0  0.90690  0.56930  0.86310  1.0000 0.100499111
H   H35       1.0  0.89230  0.46820  0.71640  1.0000 0.0902955336
H   H36       1.0  0.60380  0.34360  0.65780  1.0000 0.100499111
H   H37       1.0  0.69390  0.26890  0.73440  1.0000 0.100499111
H   H38       1.0  0.30990  0.49370  0.68390  1.0000 0.1095915322
H   H39       1.0  0.21920  0.51170  0.77610  1.0000 0.100499111
H   H40       1.0  0.40560  0.64950  0.90350  1.0000 0.100499111
H   H41       1.0  0.61220  0.71940  0.89090  1.0000 0.0902955336
H   H42       1.0  0.64100  0.60480  0.66290  1.0000 0.100499111
H   H43       1.0  0.75740  0.69130  0.74180  1.0000 0.0902955336
H   H44       1.0  0.84440  0.11260  0.62970  1.0000 0.119563516
H   H45       1.0  0.00580  0.72800  0.59990  1.0000 0.1296843139
H   H46       1.0  0.75590  0.75370  0.48500  1.0000 0.137253802
H   H47       1.0  0.62120  0.11980  0.49490  1.0000 0.119563516
H   H48       1.0  0.61470  0.98840  0.42530  1.0000 0.1296843139
C   C1        1.0  0.99560  0.86500  0.07800  1.0000 -0.0572162236
C   C2        1.0  0.15180  0.85830  0.02590  1.0000 -0.1080947074
C   C3        1.0  0.23220  0.99320  0.14490  1.0000 0.0702285019
C   C4        1.0  0.49970  0.95980  0.03980  1.0000 -0.1361520368
C   C5        1.0  0.70090  0.75860  0.25920  1.0000 0.520268589
C   C6        1.0  0.56240  0.63120  0.23170  1.0000 0.0790277419
C   C7        1.0  0.51460  0.61740  0.13310  1.0000 -0.2617271172
C   C8        1.0  0.37430  0.49190  0.10540  1.0000 0.0607226489
C   C9        1.0  0.18260  0.50970  0.15420  1.0000 -0.2537438388
C   C10       1.0  0.22960  0.52140  0.25230  1.0000 0.0702285019
C   C11       1.0  0.36850  0.64770  0.27970  1.0000 -0.2537438388
C   C12       1.0  0.63030  0.24340  0.25230  1.0000 0.520268589
C   C13       1.0  0.52110  0.37010  0.22690  1.0000 0.0702285019
C   C14       1.0  0.65890  0.49890  0.25390  1.0000 -0.2617271172
C   C15       1.0  0.47390  0.36110  0.12750  1.0000 -0.2617271172
C   C16       1.0  0.33070  0.38870  0.27470  1.0000 -0.2617271172
C   C17       1.0  0.14600  0.98030  0.39150  1.0000 0.0902955336
C   C18       1.0  0.05830  0.19110  0.40810  1.0000 -0.0390816725
C   C19       1.0  0.19580  0.17750  0.47200  1.0000 -0.0910863283
C   C20       1.0  0.39840  0.98030  0.51340  1.0000 -0.124884859
C   C21       1.0  0.00440  0.13500  0.92200  1.0000 -0.0572162236
C   C22       1.0  0.84820  0.14170  0.97410  1.0000 -0.1080947074
C   C23       1.0  0.76780  0.00680  0.85510  1.0000 0.0702285019
C   C24       1.0  0.50030  0.04020  0.96020  1.0000 -0.1361520368
C   C25       1.0  0.29910  0.24140  0.74080  1.0000 0.520268589
C   C26       1.0  0.43760  0.36880  0.76830  1.0000 0.0790277419
C   C27       1.0  0.48540  0.38260  0.86690  1.0000 -0.2617271172
C   C28       1.0  0.62570  0.50810  0.89460  1.0000 0.0607226489
C   C29       1.0  0.81740  0.49030  0.84580  1.0000 -0.2537438388
C   C30       1.0  0.77040  0.47860  0.74770  1.0000 0.0702285019
C   C31       1.0  0.63150  0.35230  0.72030  1.0000 -0.2537438388
C   C32       1.0  0.36970  0.75660  0.74770  1.0000 0.520268589
C   C33       1.0  0.47890  0.62990  0.77310  1.0000 0.0702285019
C   C34       1.0  0.34110  0.50110  0.74610  1.0000 -0.2617271172
C   C35       1.0  0.52610  0.63890  0.87250  1.0000 -0.2617271172
C   C36       1.0  0.66930  0.61130  0.72530  1.0000 -0.2617271172
C   C37       1.0  0.85400  0.01970  0.60850  1.0000 0.0902955336
C   C38       1.0  0.94170  0.80890  0.59190  1.0000 -0.0390816725
C   C39       1.0  0.80420  0.82250  0.52800  1.0000 -0.0910863283
C   C40       1.0  0.60160  0.01970  0.48660  1.0000 -0.1259526166
N   N1        1.0  0.04540  0.95160  0.15330  1.0000 -0.2970319691
N   N2        1.0  0.29980  0.94000  0.06800  1.0000 0.0446558369
N   N3        1.0  0.02860  0.06680  0.35710  1.0000 -0.2922996285
N   N4        1.0  0.24910  0.04390  0.46070  1.0000 0.0485804824
N   N5        1.0  0.95460  0.04840  0.84670  1.0000 -0.2970319691
N   N6        1.0  0.70020  0.06000  0.93200  1.0000 0.0446558369
N   N7        1.0  0.97140  0.93320  0.64290  1.0000 -0.2922996285
N   N8        1.0  0.75090  0.95610  0.53930  1.0000 0.0485804824
O   O1        1.0  0.84680  0.75110  0.30710  1.0000 -0.5491068068
O   O2        1.0  0.65140  0.87020  0.23180  1.0000 -0.5441511574
O   O3        1.0  0.73660  0.18120  0.19790  1.0000 -0.5441511574
O   O4        1.0  0.61460  0.20730  0.32680  1.0000 -0.5701383057
O   O5        1.0  0.15320  0.24890  0.69290  1.0000 -0.5491068068
O   O6        1.0  0.34860  0.12980  0.76820  1.0000 -0.5441511574
O   O7        1.0  0.26340  0.81880  0.80210  1.0000 -0.5491068068
O   O8        1.0  0.38540  0.79270  0.67320  1.0000 -0.5701383057
