# DDEC6 charges by PACMAN v1.1 (https://github.com/mtap-research/PACMAN-charge/)
data_2016[Cu][mmm]3[FSR]1
_chemical_formula_sum              "Cu16 H40 C72 O56"
_cell_length_a       19.21
_cell_length_b       19.21
_cell_length_c       6.9158
_cell_angle_alpha    90
_cell_angle_beta     90
_cell_angle_gamma    90

_symmetry_space_group_name_H-M    "P 1"
_symmetry_Int_Tables_number       1

loop_
  _symmetry_equiv_pos_as_xyz
  'x, y, z'

loop_
  _atom_site_type_symbol
  _atom_site_label
  _atom_site_symmetry_multiplicity
  _atom_site_fract_x
  _atom_site_fract_y
  _atom_site_fract_z
  _atom_site_occupancy
  _atom_site_charge
Cu  Cu1       1.0  0.92264  0.92264  0.50000  1.0000 0.3826948604
Cu  Cu2       1.0  0.07736  0.07736  0.50000  1.0000 0.3826948604
Cu  Cu3       1.0  0.42264  0.57736  0.50000  1.0000 0.3826948604
Cu  Cu4       1.0  0.57736  0.42264  0.50000  1.0000 0.3826948604
Cu  Cu5       1.0  0.57736  0.57736  0.50000  1.0000 0.3826948604
Cu  Cu6       1.0  0.42264  0.42264  0.50000  1.0000 0.3826948604
Cu  Cu7       1.0  0.07736  0.92264  0.50000  1.0000 0.3826948604
Cu  Cu8       1.0  0.92264  0.07736  0.50000  1.0000 0.3826948604
Cu  Cu9       1.0  0.28003  0.78003  0.35189  1.0000 0.8290964863
Cu  Cu10      1.0  0.71997  0.21997  0.35189  1.0000 0.8290964863
Cu  Cu11      1.0  0.28003  0.21997  0.35189  1.0000 0.8290964863
Cu  Cu12      1.0  0.71997  0.78003  0.35189  1.0000 0.8290964863
Cu  Cu13      1.0  0.78003  0.71997  0.64811  1.0000 0.8290964863
Cu  Cu14      1.0  0.21997  0.28003  0.64811  1.0000 0.8290964863
Cu  Cu15      1.0  0.78003  0.28003  0.64811  1.0000 0.8290964863
Cu  Cu16      1.0  0.21997  0.71997  0.64811  1.0000 0.8290964863
H   H1        1.0  0.10510  0.81590  0.00830  1.0000 0.1366252503
H   H2        1.0  0.89490  0.18410  0.00830  1.0000 0.1366252503
H   H3        1.0  0.31590  0.39490  0.00830  1.0000 0.1366252503
H   H4        1.0  0.68410  0.60510  0.00830  1.0000 0.1366252503
H   H5        1.0  0.60510  0.68410  0.99170  1.0000 0.1366252503
H   H6        1.0  0.39490  0.31590  0.99170  1.0000 0.1366252503
H   H7        1.0  0.81590  0.10510  0.99170  1.0000 0.1366252503
H   H8        1.0  0.18410  0.89490  0.99170  1.0000 0.1366252503
H   H9        1.0  0.39490  0.68410  0.99170  1.0000 0.1366252503
H   H10       1.0  0.60510  0.31590  0.99170  1.0000 0.1366252503
H   H11       1.0  0.18410  0.10510  0.99170  1.0000 0.1366252503
H   H12       1.0  0.81590  0.89490  0.99170  1.0000 0.1366252503
H   H13       1.0  0.89490  0.81590  0.00830  1.0000 0.1366252503
H   H14       1.0  0.10510  0.18410  0.00830  1.0000 0.1366252503
H   H15       1.0  0.68410  0.39490  0.00830  1.0000 0.1366252503
H   H16       1.0  0.31590  0.60510  0.00830  1.0000 0.1366252503
H   H17       1.0  0.00000  0.73840  0.47140  1.0000 0.1454498819
H   H18       1.0  0.00000  0.26160  0.47140  1.0000 0.1454498819
H   H19       1.0  0.23840  0.50000  0.47140  1.0000 0.1454498819
H   H20       1.0  0.76160  0.50000  0.47140  1.0000 0.1454498819
H   H21       1.0  0.50000  0.76160  0.52860  1.0000 0.1454498819
H   H22       1.0  0.50000  0.23840  0.52860  1.0000 0.1454498819
H   H23       1.0  0.73840  0.00000  0.52860  1.0000 0.1454498819
H   H24       1.0  0.26160  0.00000  0.52860  1.0000 0.1454498819
H   H25       1.0  0.35250  0.85250  0.05500  1.0000 0.3176001324
H   H26       1.0  0.64750  0.14750  0.05500  1.0000 0.3176001324
H   H27       1.0  0.35250  0.14750  0.05500  1.0000 0.3176001324
H   H28       1.0  0.64750  0.85250  0.05500  1.0000 0.3176001324
H   H29       1.0  0.85250  0.64750  0.94500  1.0000 0.3176001324
H   H30       1.0  0.14750  0.35250  0.94500  1.0000 0.3176001324
H   H31       1.0  0.85250  0.35250  0.94500  1.0000 0.3176001324
H   H32       1.0  0.14750  0.64750  0.94500  1.0000 0.3176001324
H   H33       1.0  0.30900  0.80900  0.97000  1.0000 0.3339651576
H   H34       1.0  0.69100  0.19100  0.97000  1.0000 0.3339651576
H   H35       1.0  0.30900  0.19100  0.97000  1.0000 0.3339651576
H   H36       1.0  0.69100  0.80900  0.97000  1.0000 0.3339651576
H   H37       1.0  0.80900  0.69100  0.03000  1.0000 0.3339651576
H   H38       1.0  0.19100  0.30900  0.03000  1.0000 0.3339651576
H   H39       1.0  0.80900  0.30900  0.03000  1.0000 0.3339651576
H   H40       1.0  0.19100  0.69100  0.03000  1.0000 0.3339651576
C   C1        1.0  0.00000  0.86530  0.80180  1.0000 0.5693896315
C   C2        1.0  0.00000  0.13470  0.80180  1.0000 0.5693896315
C   C3        1.0  0.36530  0.50000  0.80180  1.0000 0.5693896315
C   C4        1.0  0.63470  0.50000  0.80180  1.0000 0.5693896315
C   C5        1.0  0.50000  0.63470  0.19820  1.0000 0.5693896315
C   C6        1.0  0.50000  0.36530  0.19820  1.0000 0.5693896315
C   C7        1.0  0.86530  0.00000  0.19820  1.0000 0.5693896315
C   C8        1.0  0.13470  0.00000  0.19820  1.0000 0.5693896315
C   C9        1.0  0.00000  0.82420  0.98550  1.0000 0.0009331894
C   C10       1.0  0.00000  0.17580  0.98550  1.0000 0.0009331894
C   C11       1.0  0.32420  0.50000  0.98550  1.0000 0.0009331894
C   C12       1.0  0.67580  0.50000  0.98550  1.0000 0.0009331894
C   C13       1.0  0.50000  0.67580  0.01450  1.0000 0.0009331894
C   C14       1.0  0.50000  0.32420  0.01450  1.0000 0.0009331894
C   C15       1.0  0.82420  0.00000  0.01450  1.0000 0.0009331894
C   C16       1.0  0.17580  0.00000  0.01450  1.0000 0.0009331894
C   C17       1.0  0.06241  0.80650  0.07240  1.0000 -0.0987415622
C   C18       1.0  0.93759  0.19350  0.07240  1.0000 -0.0987415622
C   C19       1.0  0.30650  0.43759  0.07240  1.0000 -0.0987415622
C   C20       1.0  0.69350  0.56241  0.07240  1.0000 -0.0987415622
C   C21       1.0  0.56241  0.69350  0.92760  1.0000 -0.0987415622
C   C22       1.0  0.43759  0.30650  0.92760  1.0000 -0.0987415622
C   C23       1.0  0.80650  0.06241  0.92760  1.0000 -0.0987415622
C   C24       1.0  0.19350  0.93759  0.92760  1.0000 -0.0987415622
C   C25       1.0  0.43759  0.69350  0.92760  1.0000 -0.0987415622
C   C26       1.0  0.56241  0.30650  0.92760  1.0000 -0.0987415622
C   C27       1.0  0.19350  0.06241  0.92760  1.0000 -0.0987415622
C   C28       1.0  0.80650  0.93759  0.92760  1.0000 -0.0987415622
C   C29       1.0  0.93759  0.80650  0.07240  1.0000 -0.0987415622
C   C30       1.0  0.06241  0.19350  0.07240  1.0000 -0.0987415622
C   C31       1.0  0.69350  0.43759  0.07240  1.0000 -0.0987415622
C   C32       1.0  0.30650  0.56241  0.07240  1.0000 -0.0987415622
C   C33       1.0  0.06270  0.77472  0.25460  1.0000 -0.018464413
C   C34       1.0  0.93730  0.22528  0.25460  1.0000 -0.018464413
C   C35       1.0  0.27472  0.43730  0.25460  1.0000 -0.018464413
C   C36       1.0  0.72528  0.56270  0.25460  1.0000 -0.018464413
C   C37       1.0  0.56270  0.72528  0.74540  1.0000 -0.018464413
C   C38       1.0  0.43730  0.27472  0.74540  1.0000 -0.018464413
C   C39       1.0  0.77472  0.06270  0.74540  1.0000 -0.018464413
C   C40       1.0  0.22528  0.93730  0.74540  1.0000 -0.018464413
C   C41       1.0  0.43730  0.72528  0.74540  1.0000 -0.018464413
C   C42       1.0  0.56270  0.27472  0.74540  1.0000 -0.018464413
C   C43       1.0  0.22528  0.06270  0.74540  1.0000 -0.018464413
C   C44       1.0  0.77472  0.93730  0.74540  1.0000 -0.018464413
C   C45       1.0  0.93730  0.77472  0.25460  1.0000 -0.018464413
C   C46       1.0  0.06270  0.22528  0.25460  1.0000 -0.018464413
C   C47       1.0  0.72528  0.43730  0.25460  1.0000 -0.018464413
C   C48       1.0  0.27472  0.56270  0.25460  1.0000 -0.018464413
C   C49       1.0  0.00000  0.75920  0.34680  1.0000 -0.1310450235
C   C50       1.0  0.00000  0.24080  0.34680  1.0000 -0.1310450235
C   C51       1.0  0.25920  0.50000  0.34680  1.0000 -0.1310450235
C   C52       1.0  0.74080  0.50000  0.34680  1.0000 -0.1310450235
C   C53       1.0  0.50000  0.74080  0.65320  1.0000 -0.1310450235
C   C54       1.0  0.50000  0.25920  0.65320  1.0000 -0.1310450235
C   C55       1.0  0.75920  0.00000  0.65320  1.0000 -0.1310450235
C   C56       1.0  0.24080  0.00000  0.65320  1.0000 -0.1310450235
C   C57       1.0  0.13111  0.76203  0.35080  1.0000 0.5555495522
C   C58       1.0  0.86889  0.23797  0.35080  1.0000 0.5555495522
C   C59       1.0  0.26203  0.36889  0.35080  1.0000 0.5555495522
C   C60       1.0  0.73797  0.63111  0.35080  1.0000 0.5555495522
C   C61       1.0  0.63111  0.73797  0.64920  1.0000 0.5555495522
C   C62       1.0  0.36889  0.26203  0.64920  1.0000 0.5555495522
C   C63       1.0  0.76203  0.13111  0.64920  1.0000 0.5555495522
C   C64       1.0  0.23797  0.86889  0.64920  1.0000 0.5555495522
C   C65       1.0  0.36889  0.73797  0.64920  1.0000 0.5555495522
C   C66       1.0  0.63111  0.26203  0.64920  1.0000 0.5555495522
C   C67       1.0  0.23797  0.13111  0.64920  1.0000 0.5555495522
C   C68       1.0  0.76203  0.86889  0.64920  1.0000 0.5555495522
C   C69       1.0  0.86889  0.76203  0.35080  1.0000 0.5555495522
C   C70       1.0  0.13111  0.23797  0.35080  1.0000 0.5555495522
C   C71       1.0  0.73797  0.36889  0.35080  1.0000 0.5555495522
C   C72       1.0  0.26203  0.63111  0.35080  1.0000 0.5555495522
O   O1        1.0  0.94197  0.88198  0.73350  1.0000 -0.4830551544
O   O2        1.0  0.05803  0.11802  0.73350  1.0000 -0.4830551544
O   O3        1.0  0.38198  0.55803  0.73350  1.0000 -0.4830551544
O   O4        1.0  0.61802  0.44197  0.73350  1.0000 -0.4830551544
O   O5        1.0  0.44197  0.61802  0.26650  1.0000 -0.4830551544
O   O6        1.0  0.55803  0.38198  0.26650  1.0000 -0.4830551544
O   O7        1.0  0.88198  0.94197  0.26650  1.0000 -0.4830551544
O   O8        1.0  0.11802  0.05803  0.26650  1.0000 -0.4830551544
O   O9        1.0  0.55803  0.61802  0.26650  1.0000 -0.4830551544
O   O10       1.0  0.44197  0.38198  0.26650  1.0000 -0.4830551544
O   O11       1.0  0.11802  0.94197  0.26650  1.0000 -0.4830551544
O   O12       1.0  0.88198  0.05803  0.26650  1.0000 -0.4830551544
O   O13       1.0  0.05803  0.88198  0.73350  1.0000 -0.4830551544
O   O14       1.0  0.94197  0.11802  0.73350  1.0000 -0.4830551544
O   O15       1.0  0.61802  0.55803  0.73350  1.0000 -0.4830551544
O   O16       1.0  0.38198  0.44197  0.73350  1.0000 -0.4830551544
O   O17       1.0  0.18386  0.78227  0.26150  1.0000 -0.5177583196
O   O18       1.0  0.81614  0.21773  0.26150  1.0000 -0.5177583196
O   O19       1.0  0.28227  0.31614  0.26150  1.0000 -0.5177583196
O   O20       1.0  0.71773  0.68386  0.26150  1.0000 -0.5177583196
O   O21       1.0  0.68386  0.71773  0.73850  1.0000 -0.5177583196
O   O22       1.0  0.31614  0.28227  0.73850  1.0000 -0.5177583196
O   O23       1.0  0.78227  0.18386  0.73850  1.0000 -0.5177583196
O   O24       1.0  0.21773  0.81614  0.73850  1.0000 -0.5177583196
O   O25       1.0  0.31614  0.71773  0.73850  1.0000 -0.5177583196
O   O26       1.0  0.68386  0.28227  0.73850  1.0000 -0.5177583196
O   O27       1.0  0.21773  0.18386  0.73850  1.0000 -0.5177583196
O   O28       1.0  0.78227  0.81614  0.73850  1.0000 -0.5177583196
O   O29       1.0  0.81614  0.78227  0.26150  1.0000 -0.5177583196
O   O30       1.0  0.18386  0.21773  0.26150  1.0000 -0.5177583196
O   O31       1.0  0.71773  0.31614  0.26150  1.0000 -0.5177583196
O   O32       1.0  0.28227  0.68386  0.26150  1.0000 -0.5177583196
O   O33       1.0  0.13177  0.73410  0.51240  1.0000 -0.4830551544
O   O34       1.0  0.86823  0.26590  0.51240  1.0000 -0.4830551544
O   O35       1.0  0.23410  0.36823  0.51240  1.0000 -0.4830551544
O   O36       1.0  0.76590  0.63177  0.51240  1.0000 -0.4830551544
O   O37       1.0  0.63177  0.76590  0.48760  1.0000 -0.4830551544
O   O38       1.0  0.36823  0.23410  0.48760  1.0000 -0.4830551544
O   O39       1.0  0.73410  0.13177  0.48760  1.0000 -0.4830551544
O   O40       1.0  0.26590  0.86823  0.48760  1.0000 -0.4830551544
O   O41       1.0  0.36823  0.76590  0.48760  1.0000 -0.4830551544
O   O42       1.0  0.63177  0.23410  0.48760  1.0000 -0.4830551544
O   O43       1.0  0.26590  0.13177  0.48760  1.0000 -0.4830551544
O   O44       1.0  0.73410  0.86823  0.48760  1.0000 -0.4830551544
O   O45       1.0  0.86823  0.73410  0.51240  1.0000 -0.4830551544
O   O46       1.0  0.13177  0.26590  0.51240  1.0000 -0.4830551544
O   O47       1.0  0.76590  0.36823  0.51240  1.0000 -0.4830551544
O   O48       1.0  0.23410  0.63177  0.51240  1.0000 -0.4830551544
O   O49       1.0  0.32098  0.82098  0.08600  1.0000 -0.630284714
O   O50       1.0  0.67902  0.17902  0.08600  1.0000 -0.630284714
O   O51       1.0  0.32098  0.17902  0.08600  1.0000 -0.630284714
O   O52       1.0  0.67902  0.82098  0.08600  1.0000 -0.630284714
O   O53       1.0  0.82098  0.67902  0.91400  1.0000 -0.630284714
O   O54       1.0  0.17902  0.32098  0.91400  1.0000 -0.630284714
O   O55       1.0  0.82098  0.32098  0.91400  1.0000 -0.630284714
O   O56       1.0  0.17902  0.67902  0.91400  1.0000 -0.630284714
