# DDEC6 charges by PACMAN v1.1 (https://github.com/mtap-research/PACMAN-charge/)
data_2017[Zn][nan]3[FSR]9
_chemical_formula_sum              "Zn4 H14 C18 N8 O14"
_cell_length_a       12.8171
_cell_length_b       12.8171
_cell_length_c       6.927
_cell_angle_alpha    90
_cell_angle_beta     90
_cell_angle_gamma    132.142

_symmetry_space_group_name_H-M    "P 1"
_symmetry_Int_Tables_number       1

loop_
  _symmetry_equiv_pos_as_xyz
  'x, y, z'

loop_
  _atom_site_type_symbol
  _atom_site_label
  _atom_site_symmetry_multiplicity
  _atom_site_fract_x
  _atom_site_fract_y
  _atom_site_fract_z
  _atom_site_occupancy
  _atom_site_charge
Zn  Zn1       1.0  0.13404  0.86596  0.25000  1.0000 0.8609310092
Zn  Zn2       1.0  0.86596  0.13404  0.75000  1.0000 0.8609310092
Zn  Zn3       1.0  0.00000  0.00000  0.00000  1.0000 0.8663588168
Zn  Zn4       1.0  0.00000  0.00000  0.50000  1.0000 0.8663588168
H   H1        1.0  0.78710  0.75090  0.09330  1.0000 0.3813709134
H   H2        1.0  0.21290  0.24910  0.59330  1.0000 0.3813709134
H   H3        1.0  0.24910  0.21290  0.40670  1.0000 0.3813709134
H   H4        1.0  0.75090  0.78710  0.90670  1.0000 0.3813709134
H   H5        1.0  0.21290  0.24910  0.90670  1.0000 0.3813709134
H   H6        1.0  0.78710  0.75090  0.40670  1.0000 0.3813709134
H   H7        1.0  0.75090  0.78710  0.59330  1.0000 0.3813709134
H   H8        1.0  0.24910  0.21290  0.09330  1.0000 0.3813709134
H   H9        1.0  0.95730  0.42950  0.25000  1.0000 0.1302399786
H   H10       1.0  0.04270  0.57050  0.75000  1.0000 0.1302399786
H   H11       1.0  0.57050  0.04270  0.25000  1.0000 0.1302399786
H   H12       1.0  0.42950  0.95730  0.75000  1.0000 0.1302399786
H   H13       1.0  0.61500  0.38500  0.25000  1.0000 0.120543182
H   H14       1.0  0.38500  0.61500  0.75000  1.0000 0.120543182
C   C1        1.0  0.83770  0.16230  0.25000  1.0000 0.2893781366
C   C2        1.0  0.16230  0.83770  0.75000  1.0000 0.2893781366
C   C3        1.0  0.77360  0.22640  0.25000  1.0000 0.04721706
C   C4        1.0  0.22640  0.77360  0.75000  1.0000 0.04721706
C   C5        1.0  0.86010  0.37190  0.25000  1.0000 -0.1279890089
C   C6        1.0  0.13990  0.62810  0.75000  1.0000 -0.1279890089
C   C7        1.0  0.62810  0.13990  0.25000  1.0000 -0.1279890089
C   C8        1.0  0.37190  0.86010  0.75000  1.0000 -0.1279890089
C   C9        1.0  0.80030  0.43110  0.25000  1.0000 -0.0044175141
C   C10       1.0  0.19970  0.56890  0.75000  1.0000 -0.0044175141
C   C11       1.0  0.56890  0.19970  0.25000  1.0000 -0.0044175141
C   C12       1.0  0.43110  0.80030  0.75000  1.0000 -0.0044175141
C   C13       1.0  0.65470  0.34530  0.25000  1.0000 -0.1279890089
C   C14       1.0  0.34530  0.65470  0.75000  1.0000 -0.1279890089
C   C15       1.0  0.89210  0.58950  0.25000  1.0000 0.5572769345
C   C16       1.0  0.10790  0.41050  0.75000  1.0000 0.5572769345
C   C17       1.0  0.41050  0.10790  0.25000  1.0000 0.5572769345
C   C18       1.0  0.58950  0.89210  0.75000  1.0000 0.5572769345
N   N1        1.0  0.86927  0.13073  0.40920  1.0000 -0.2138724065
N   N2        1.0  0.13073  0.86927  0.90920  1.0000 -0.2138724065
N   N3        1.0  0.86927  0.13073  0.09080  1.0000 -0.2138724065
N   N4        1.0  0.13073  0.86927  0.59080  1.0000 -0.2138724065
N   N5        1.0  0.92300  0.07700  0.34200  1.0000 -0.0105360914
N   N6        1.0  0.07700  0.92300  0.84200  1.0000 -0.0105360914
N   N7        1.0  0.92300  0.07700  0.15800  1.0000 -0.0105360914
N   N8        1.0  0.07700  0.92300  0.65800  1.0000 -0.0105360914
O   O1        1.0  0.02290  0.66230  0.25000  1.0000 -0.5343073903
O   O2        1.0  0.97710  0.33770  0.75000  1.0000 -0.5343073903
O   O3        1.0  0.33770  0.97710  0.25000  1.0000 -0.5343073903
O   O4        1.0  0.66230  0.02290  0.75000  1.0000 -0.5343073903
O   O5        1.0  0.83620  0.63760  0.25000  1.0000 -0.5170927047
O   O6        1.0  0.16380  0.36240  0.75000  1.0000 -0.5170927047
O   O7        1.0  0.36240  0.16380  0.25000  1.0000 -0.5170927047
O   O8        1.0  0.63760  0.83620  0.75000  1.0000 -0.5170927047
O   O9        1.0  0.79530  0.79530  0.00000  1.0000 -0.6710393726
O   O10       1.0  0.20470  0.20470  0.50000  1.0000 -0.6710393726
O   O11       1.0  0.20470  0.20470  0.00000  1.0000 -0.6710393726
O   O12       1.0  0.79530  0.79530  0.50000  1.0000 -0.6710393726
O   O13       1.0  0.04830  0.95170  0.25000  1.0000 -0.7984476982
O   O14       1.0  0.95170  0.04830  0.75000  1.0000 -0.7984476982
