# DDEC6 charges by PACMAN v1.1 (https://github.com/mtap-research/PACMAN-charge/)
data_2017[Co][rtl]3[FSR]2
_chemical_formula_sum              "Co4 H20 C36 O28"
_cell_length_a       11.1946
_cell_length_b       10.7911
_cell_length_c       18.0973
_cell_angle_alpha    90
_cell_angle_beta     122.661
_cell_angle_gamma    90

_symmetry_space_group_name_H-M    "P 1"
_symmetry_Int_Tables_number       1

loop_
  _symmetry_equiv_pos_as_xyz
  'x, y, z'

loop_
  _atom_site_type_symbol
  _atom_site_label
  _atom_site_symmetry_multiplicity
  _atom_site_fract_x
  _atom_site_fract_y
  _atom_site_fract_z
  _atom_site_occupancy
  _atom_site_charge
Co  Co1       1.0  0.83914  0.54023  0.99031  1.0000 1.1065966759
Co  Co2       1.0  0.16086  0.04023  0.50969  1.0000 1.1049838338
Co  Co3       1.0  0.16086  0.45977  0.00969  1.0000 1.1049838338
Co  Co4       1.0  0.83914  0.95977  0.49031  1.0000 1.1065966759
H   H1        1.0  0.93730  0.66440  0.90200  1.0000 0.3630985592
H   H2        1.0  0.83130  0.72340  0.90260  1.0000 0.3670012925
H   H3        1.0  0.95630  0.26930  0.76930  1.0000 0.1383653146
H   H4        1.0  0.58290  0.12550  0.57480  1.0000 0.1383653146
H   H5        1.0  0.60010  0.32030  0.77150  1.0000 0.1383653146
H   H6        1.0  0.06270  0.16440  0.59800  1.0000 0.3630985592
H   H7        1.0  0.16870  0.22340  0.59740  1.0000 0.3670012925
H   H8        1.0  0.04370  0.76930  0.73070  1.0000 0.1383653146
H   H9        1.0  0.41710  0.62550  0.92520  1.0000 0.1383653146
H   H10       1.0  0.39990  0.82030  0.72850  1.0000 0.1383653146
H   H11       1.0  0.06270  0.33560  0.09800  1.0000 0.3630985592
H   H12       1.0  0.16870  0.27660  0.09740  1.0000 0.3670012925
H   H13       1.0  0.04370  0.73070  0.23070  1.0000 0.1383653146
H   H14       1.0  0.41710  0.87450  0.42520  1.0000 0.1383653146
H   H15       1.0  0.39990  0.67970  0.22850  1.0000 0.1383653146
H   H16       1.0  0.93730  0.83560  0.40200  1.0000 0.3630985592
H   H17       1.0  0.83130  0.77660  0.40260  1.0000 0.3670012925
H   H18       1.0  0.95630  0.23070  0.26930  1.0000 0.1383653146
H   H19       1.0  0.58290  0.37450  0.07480  1.0000 0.1383653146
H   H20       1.0  0.60010  0.17970  0.27150  1.0000 0.1383653146
C   C1        1.0  0.87512  0.37685  0.86723  1.0000 0.6075790498
C   C2        1.0  0.79128  0.30459  0.78322  1.0000 -0.01098375
C   C3        1.0  0.85754  0.25638  0.74341  1.0000 -0.0891379268
C   C4        1.0  0.78068  0.18913  0.66573  1.0000 -0.01098375
C   C5        1.0  0.63560  0.17195  0.62749  1.0000 -0.0891379268
C   C6        1.0  0.56731  0.22226  0.66583  1.0000 -0.01098375
C   C7        1.0  0.64586  0.28739  0.74431  1.0000 -0.0891379268
C   C8        1.0  0.85633  0.13589  0.62461  1.0000 0.5698304704
C   C9        1.0  0.40905  0.20872  0.62281  1.0000 0.5649476919
C   C10       1.0  0.12488  0.87685  0.63277  1.0000 0.6075790498
C   C11       1.0  0.20872  0.80459  0.71678  1.0000 -0.01098375
C   C12       1.0  0.14246  0.75638  0.75659  1.0000 -0.0891379268
C   C13       1.0  0.21932  0.68913  0.83427  1.0000 -0.01098375
C   C14       1.0  0.36440  0.67195  0.87251  1.0000 -0.0891379268
C   C15       1.0  0.43269  0.72226  0.83417  1.0000 -0.01098375
C   C16       1.0  0.35414  0.78739  0.75569  1.0000 -0.0891379268
C   C17       1.0  0.14367  0.63589  0.87539  1.0000 0.5698304704
C   C18       1.0  0.59095  0.70872  0.87719  1.0000 0.5698304704
C   C19       1.0  0.12488  0.62315  0.13277  1.0000 0.6075790498
C   C20       1.0  0.20872  0.69541  0.21678  1.0000 -0.01098375
C   C21       1.0  0.14246  0.74362  0.25659  1.0000 -0.0891379268
C   C22       1.0  0.21932  0.81087  0.33427  1.0000 -0.01098375
C   C23       1.0  0.36440  0.82805  0.37251  1.0000 -0.0891379268
C   C24       1.0  0.43269  0.77774  0.33417  1.0000 -0.01098375
C   C25       1.0  0.35414  0.71261  0.25569  1.0000 -0.0891379268
C   C26       1.0  0.14367  0.86411  0.37539  1.0000 0.5698304704
C   C27       1.0  0.59095  0.79128  0.37719  1.0000 0.5698304704
C   C28       1.0  0.87512  0.12315  0.36723  1.0000 0.6075790498
C   C29       1.0  0.79128  0.19541  0.28322  1.0000 -0.01098375
C   C30       1.0  0.85754  0.24362  0.24341  1.0000 -0.0891379268
C   C31       1.0  0.78068  0.31087  0.16573  1.0000 -0.01098375
C   C32       1.0  0.63560  0.32805  0.12749  1.0000 -0.0891379268
C   C33       1.0  0.56731  0.27774  0.16583  1.0000 -0.01098375
C   C34       1.0  0.64586  0.21261  0.24431  1.0000 -0.0891379268
C   C35       1.0  0.85633  0.36411  0.12461  1.0000 0.5698304704
C   C36       1.0  0.40905  0.29128  0.12281  1.0000 0.5698304704
O   O1        1.0  0.80922  0.41493  0.90113  1.0000 -0.5385697212
O   O2        1.0  0.00342  0.39386  0.89598  1.0000 -0.5094296064
O   O3        1.0  0.35087  0.12411  0.56526  1.0000 -0.5094296064
O   O4        1.0  0.34924  0.28174  0.64556  1.0000 -0.454012933
O   O5        1.0  0.77848  0.07977  0.55218  1.0000 -0.49870761
O   O6        1.0  0.98645  0.15240  0.66349  1.0000 -0.4655719127
O   O7        1.0  0.90417  0.67762  0.93447  1.0000 -0.7154008027
O   O8        1.0  0.19078  0.91493  0.59887  1.0000 -0.5385697212
O   O9        1.0  0.99658  0.89386  0.60402  1.0000 -0.5094296064
O   O10       1.0  0.64913  0.62411  0.93474  1.0000 -0.5167871044
O   O11       1.0  0.65076  0.78174  0.85444  1.0000 -0.454012933
O   O12       1.0  0.22152  0.57977  0.94782  1.0000 -0.49870761
O   O13       1.0  0.01355  0.65240  0.83651  1.0000 -0.4655719127
O   O14       1.0  0.09583  0.17762  0.56553  1.0000 -0.7154008027
O   O15       1.0  0.19078  0.58507  0.09887  1.0000 -0.5385697212
O   O16       1.0  0.99658  0.60614  0.10402  1.0000 -0.5094296064
O   O17       1.0  0.64913  0.87589  0.43474  1.0000 -0.5167871044
O   O18       1.0  0.65076  0.71826  0.35444  1.0000 -0.454012933
O   O19       1.0  0.22152  0.92023  0.44782  1.0000 -0.49870761
O   O20       1.0  0.01355  0.84760  0.33651  1.0000 -0.4655719127
O   O21       1.0  0.09583  0.32238  0.06553  1.0000 -0.7154008027
O   O22       1.0  0.80922  0.08507  0.40113  1.0000 -0.5385697212
O   O23       1.0  0.00342  0.10614  0.39598  1.0000 -0.5094296064
O   O24       1.0  0.35087  0.37589  0.06526  1.0000 -0.5167871044
O   O25       1.0  0.34924  0.21826  0.14556  1.0000 -0.454012933
O   O26       1.0  0.77848  0.42023  0.05218  1.0000 -0.49870761
O   O27       1.0  0.98645  0.34760  0.16349  1.0000 -0.4655719127
O   O28       1.0  0.90417  0.82238  0.43447  1.0000 -0.7154008027
