# DDEC6 charges by PACMAN v1.1 (https://github.com/mtap-research/PACMAN-charge/)
data_2017[Zn][nan]2[FSR]8
_chemical_formula_sum              "Zn4 H36 C52 N8 O16"
_cell_length_a       12.5612
_cell_length_b       7.6711
_cell_length_c       16.1694
_cell_angle_alpha    90
_cell_angle_beta     108.949
_cell_angle_gamma    90

_symmetry_space_group_name_H-M    "P 1"
_symmetry_Int_Tables_number       1

loop_
  _symmetry_equiv_pos_as_xyz
  'x, y, z'

loop_
  _atom_site_type_symbol
  _atom_site_label
  _atom_site_symmetry_multiplicity
  _atom_site_fract_x
  _atom_site_fract_y
  _atom_site_fract_z
  _atom_site_occupancy
  _atom_site_charge
Zn  Zn1       1.0  0.31265  0.49388  0.68350  1.0000 0.7748491597
Zn  Zn2       1.0  0.68735  0.99388  0.81650  1.0000 0.7748491597
Zn  Zn3       1.0  0.68735  0.50612  0.31650  1.0000 0.7748491597
Zn  Zn4       1.0  0.31265  0.00612  0.18350  1.0000 0.7748491597
H   H1        1.0  0.50220  0.33370  0.71560  1.0000 0.313210575
H   H2        1.0  0.49610  0.45860  0.64630  1.0000 0.3179689777
H   H3        1.0  0.32260  0.88970  0.43570  1.0000 0.1214616933
H   H4        1.0  0.43250  0.37770  0.49640  1.0000 0.1403029394
H   H5        1.0  0.40730  0.05400  0.68400  1.0000 0.1335363817
H   H6        1.0  0.20270  0.17850  0.71560  1.0000 0.1143485579
H   H7        1.0  0.08220  0.95990  0.64340  1.0000 0.1403029394
H   H8        1.0  0.03140  0.22450  0.42170  1.0000 0.1403029394
H   H9        1.0  0.14730  0.43780  0.50000  1.0000 0.1214616933
H   H10       1.0  0.49780  0.83370  0.78440  1.0000 0.313210575
H   H11       1.0  0.50390  0.95860  0.85370  1.0000 0.3179689777
H   H12       1.0  0.67740  0.38970  0.06430  1.0000 0.1214616933
H   H13       1.0  0.56750  0.87770  0.00360  1.0000 0.1403029394
H   H14       1.0  0.59270  0.55400  0.81600  1.0000 0.1335363817
H   H15       1.0  0.79730  0.67850  0.78440  1.0000 0.1143485579
H   H16       1.0  0.91780  0.45990  0.85660  1.0000 0.1403029394
H   H17       1.0  0.96860  0.72450  0.07830  1.0000 0.1403029394
H   H18       1.0  0.85270  0.93780  0.00000  1.0000 0.1214616933
H   H19       1.0  0.49780  0.66630  0.28440  1.0000 0.313210575
H   H20       1.0  0.50390  0.54140  0.35370  1.0000 0.3179689777
H   H21       1.0  0.67740  0.11030  0.56430  1.0000 0.1214616933
H   H22       1.0  0.56750  0.62230  0.50360  1.0000 0.1403029394
H   H23       1.0  0.59270  0.94600  0.31600  1.0000 0.1335363817
H   H24       1.0  0.79730  0.82150  0.28440  1.0000 0.1143485579
H   H25       1.0  0.91780  0.04010  0.35660  1.0000 0.1403029394
H   H26       1.0  0.96860  0.77550  0.57830  1.0000 0.1403029394
H   H27       1.0  0.85270  0.56220  0.50000  1.0000 0.1214616933
H   H28       1.0  0.50220  0.16630  0.21560  1.0000 0.313210575
H   H29       1.0  0.49610  0.04140  0.14630  1.0000 0.3179689777
H   H30       1.0  0.32260  0.61030  0.93570  1.0000 0.1214616933
H   H31       1.0  0.43250  0.12230  0.99640  1.0000 0.1403029394
H   H32       1.0  0.40730  0.44600  0.18400  1.0000 0.1335363817
H   H33       1.0  0.20270  0.32150  0.21560  1.0000 0.1143485579
H   H34       1.0  0.08220  0.54010  0.14340  1.0000 0.1403029394
H   H35       1.0  0.03140  0.27550  0.92170  1.0000 0.1403029394
H   H36       1.0  0.14730  0.06220  0.00000  1.0000 0.1214616933
C   C1        1.0  0.33390  0.76790  0.59290  1.0000 0.5372362566
C   C2        1.0  0.36470  0.17110  0.35730  1.0000 0.5513912869
C   C3        1.0  0.36040  0.94320  0.56470  1.0000 -0.0147017165
C   C4        1.0  0.34910  0.97710  0.47720  1.0000 -0.1340928617
C   C5        1.0  0.37640  0.13800  0.45150  1.0000 -0.0160507724
C   C6        1.0  0.41440  0.26890  0.51340  1.0000 -0.1977836433
C   C7        1.0  0.42540  0.23860  0.60050  1.0000 0.2562800479
C   C8        1.0  0.39900  0.07500  0.62560  1.0000 -0.2069564033
C   C9        1.0  0.16610  0.18950  0.65580  1.0000 0.0796634463
C   C10       1.0  0.09330  0.05670  0.61250  1.0000 -0.1811236086
C   C11       1.0  0.03790  0.06960  0.52370  1.0000 0.1143485579
C   C12       1.0  0.06290  0.21340  0.48200  1.0000 -0.1891537625
C   C13       1.0  0.13440  0.34050  0.52970  1.0000 0.0910712277
C   C14       1.0  0.66610  0.26790  0.90710  1.0000 0.5372362566
C   C15       1.0  0.63530  0.67110  0.14270  1.0000 0.5513912869
C   C16       1.0  0.63960  0.44320  0.93530  1.0000 -0.0160507724
C   C17       1.0  0.65090  0.47710  0.02280  1.0000 -0.1340928617
C   C18       1.0  0.62360  0.63800  0.04850  1.0000 -0.0160507724
C   C19       1.0  0.58560  0.76890  0.98660  1.0000 -0.1977836433
C   C20       1.0  0.57460  0.73860  0.89950  1.0000 0.2562800479
C   C21       1.0  0.60100  0.57500  0.87440  1.0000 -0.2069564033
C   C22       1.0  0.83390  0.68950  0.84420  1.0000 0.0796634463
C   C23       1.0  0.90670  0.55670  0.88750  1.0000 -0.1811236086
C   C24       1.0  0.96210  0.56960  0.97630  1.0000 0.1143485579
C   C25       1.0  0.93710  0.71340  0.01800  1.0000 -0.1891537625
C   C26       1.0  0.86560  0.84050  0.97030  1.0000 0.0910712277
C   C27       1.0  0.66610  0.23210  0.40710  1.0000 0.5372362566
C   C28       1.0  0.63530  0.82890  0.64270  1.0000 0.5513912869
C   C29       1.0  0.63960  0.05680  0.43530  1.0000 -0.0160507724
C   C30       1.0  0.65090  0.02290  0.52280  1.0000 -0.1340928617
C   C31       1.0  0.62360  0.86200  0.54850  1.0000 -0.0160507724
C   C32       1.0  0.58560  0.73110  0.48660  1.0000 -0.1977836433
C   C33       1.0  0.57460  0.76140  0.39950  1.0000 0.2562800479
C   C34       1.0  0.60100  0.92500  0.37440  1.0000 -0.2069564033
C   C35       1.0  0.83390  0.81050  0.34420  1.0000 0.0796634463
C   C36       1.0  0.90670  0.94330  0.38750  1.0000 -0.1811236086
C   C37       1.0  0.96210  0.93040  0.47630  1.0000 0.1143485579
C   C38       1.0  0.93710  0.78660  0.51800  1.0000 -0.1891537625
C   C39       1.0  0.86560  0.65950  0.47030  1.0000 0.0910712277
C   C40       1.0  0.33390  0.73210  0.09290  1.0000 0.5372362566
C   C41       1.0  0.36470  0.32890  0.85730  1.0000 0.5513912869
C   C42       1.0  0.36040  0.55680  0.06470  1.0000 -0.0147017165
C   C43       1.0  0.34910  0.52290  0.97720  1.0000 -0.1340928617
C   C44       1.0  0.37640  0.36200  0.95150  1.0000 -0.0160507724
C   C45       1.0  0.41440  0.23110  0.01340  1.0000 -0.1977836433
C   C46       1.0  0.42540  0.26140  0.10050  1.0000 0.2562800479
C   C47       1.0  0.39900  0.42500  0.12560  1.0000 -0.2069564033
C   C48       1.0  0.16610  0.31050  0.15580  1.0000 0.0796634463
C   C49       1.0  0.09330  0.44330  0.11250  1.0000 -0.1811236086
C   C50       1.0  0.03790  0.43040  0.02370  1.0000 0.1143485579
C   C51       1.0  0.06290  0.28660  0.98200  1.0000 -0.1891537625
C   C52       1.0  0.13440  0.15950  0.02970  1.0000 0.0910712277
N   N1        1.0  0.45720  0.37690  0.66440  1.0000 -0.5861496794
N   N2        1.0  0.18570  0.33250  0.61500  1.0000 -0.2347245234
N   N3        1.0  0.54280  0.87690  0.83560  1.0000 -0.5861496794
N   N4        1.0  0.81430  0.83250  0.88500  1.0000 -0.2347245234
N   N5        1.0  0.54280  0.62310  0.33560  1.0000 -0.5861496794
N   N6        1.0  0.81430  0.66750  0.38500  1.0000 -0.2350376117
N   N7        1.0  0.45720  0.12310  0.16440  1.0000 -0.5861496794
N   N8        1.0  0.18570  0.16750  0.11500  1.0000 -0.2347245234
O   O1        1.0  0.35090  0.74250  0.67416  1.0000 -0.5407189298
O   O2        1.0  0.29650  0.65310  0.53870  1.0000 -0.5325559247
O   O3        1.0  0.33090  0.04110  0.30630  1.0000 -0.5637604165
O   O4        1.0  0.38800  0.31490  0.33440  1.0000 -0.549211638
O   O5        1.0  0.64910  0.24250  0.82584  1.0000 -0.5407189298
O   O6        1.0  0.70350  0.15310  0.96130  1.0000 -0.5325559247
O   O7        1.0  0.66910  0.54110  0.19370  1.0000 -0.5637604165
O   O8        1.0  0.61200  0.81490  0.16560  1.0000 -0.549211638
O   O9        1.0  0.64910  0.25750  0.32584  1.0000 -0.5407189298
O   O10       1.0  0.70350  0.34690  0.46130  1.0000 -0.5325559247
O   O11       1.0  0.66910  0.95890  0.69370  1.0000 -0.5637604165
O   O12       1.0  0.61200  0.68510  0.66560  1.0000 -0.549211638
O   O13       1.0  0.35090  0.75750  0.17416  1.0000 -0.5407189298
O   O14       1.0  0.29650  0.84690  0.03870  1.0000 -0.5325559247
O   O15       1.0  0.33090  0.45890  0.80630  1.0000 -0.5637604165
O   O16       1.0  0.38800  0.18510  0.83440  1.0000 -0.549211638
