# DDEC6 charges by PACMAN v1.1 (https://github.com/mtap-research/PACMAN-charge/)
data_2017[Eu][nan]3[FSR]4
_chemical_formula_sum              "Eu4 H52 C52 O36"
_cell_length_a       11.931
_cell_length_b       12.485
_cell_length_c       12.549
_cell_angle_alpha    90
_cell_angle_beta     98.63
_cell_angle_gamma    90

_symmetry_space_group_name_H-M    "P 1"
_symmetry_Int_Tables_number       1

loop_
  _symmetry_equiv_pos_as_xyz
  'x, y, z'

loop_
  _atom_site_type_symbol
  _atom_site_label
  _atom_site_symmetry_multiplicity
  _atom_site_fract_x
  _atom_site_fract_y
  _atom_site_fract_z
  _atom_site_occupancy
  _atom_site_charge
Eu  Eu1       1.0  0.37220  0.44585  0.13224  1.0000 2.0786078103
Eu  Eu2       1.0  0.62780  0.94585  0.86776  1.0000 2.0786078103
Eu  Eu3       1.0  0.63977  0.22921  0.18662  1.0000 2.1331513054
Eu  Eu4       1.0  0.36023  0.72921  0.81338  1.0000 2.1331513054
H   H1        1.0  0.32490  0.40130  0.48530  1.0000 0.1553090341
H   H2        1.0  0.67510  0.90130  0.51470  1.0000 0.1553090341
H   H3        1.0  0.47930  0.32860  0.78380  1.0000 0.1339990524
H   H4        1.0  0.52070  0.82860  0.21620  1.0000 0.1339990524
H   H5        1.0  0.64260  0.27900  0.53120  1.0000 0.149040212
H   H6        1.0  0.35740  0.77900  0.46880  1.0000 0.149040212
H   H7        1.0  0.30230  0.30650  0.80330  1.0000 0.1008384056
H   H8        1.0  0.69770  0.80650  0.19670  1.0000 0.1008384056
H   H9        1.0  0.11070  0.34160  0.75450  1.0000 0.149040212
H   H10       1.0  0.88930  0.84160  0.24550  1.0000 0.149040212
H   H11       1.0  0.14730  0.38070  0.87330  1.0000 0.149040212
H   H12       1.0  0.85270  0.88070  0.12670  1.0000 0.1553090341
H   H13       1.0  0.13040  0.46390  0.77870  1.0000 0.1339990524
H   H14       1.0  0.86960  0.96390  0.22130  1.0000 0.1339990524
H   H15       1.0  0.65830  0.36550  0.85420  1.0000 0.0943757124
H   H16       1.0  0.34170  0.86550  0.14580  1.0000 0.0943757124
H   H17       1.0  0.85140  0.35460  0.84360  1.0000 0.149040212
H   H18       1.0  0.14860  0.85460  0.15640  1.0000 0.149040212
H   H19       1.0  0.83250  0.31350  0.95760  1.0000 0.1406696133
H   H20       1.0  0.16750  0.81350  0.04240  1.0000 0.1406696133
H   H21       1.0  0.85180  0.23140  0.86760  1.0000 0.1406696133
H   H22       1.0  0.14820  0.73140  0.13240  1.0000 0.1406696133
H   H23       1.0  0.00100  0.53490  0.92960  1.0000 0.1339990524
H   H24       1.0  0.99900  0.03490  0.07040  1.0000 0.1339990524
H   H25       1.0  0.71310  0.60420  0.04640  1.0000 0.149040212
H   H26       1.0  0.28690  0.10420  0.95360  1.0000 0.149040212
H   H27       1.0  0.00630  0.56270  0.24910  1.0000 0.149040212
H   H28       1.0  0.99370  0.06270  0.75090  1.0000 0.149040212
H   H29       1.0  0.63760  0.61980  0.20000  1.0000 0.1008384056
H   H30       1.0  0.36240  0.11980  0.80000  1.0000 0.1008384056
H   H31       1.0  0.67750  0.65060  0.39100  1.0000 0.1406696133
H   H32       1.0  0.32250  0.15060  0.60900  1.0000 0.1406696133
H   H33       1.0  0.57830  0.56840  0.36100  1.0000 0.149040212
H   H34       1.0  0.42170  0.06840  0.63900  1.0000 0.149040212
H   H35       1.0  0.70010  0.52760  0.40760  1.0000 0.149040212
H   H36       1.0  0.29990  0.02760  0.59240  1.0000 0.149040212
H   H37       1.0  0.63580  0.55320  0.87550  1.0000 0.1008384056
H   H38       1.0  0.36420  0.05320  0.12450  1.0000 0.1008384056
H   H39       1.0  0.67740  0.51320  0.69860  1.0000 0.1406696133
H   H40       1.0  0.32260  0.01320  0.30140  1.0000 0.1406696133
H   H41       1.0  0.57380  0.59090  0.69580  1.0000 0.1406696133
H   H42       1.0  0.42620  0.09090  0.30420  1.0000 0.1406696133
H   H43       1.0  0.69280  0.63620  0.68040  1.0000 0.1553090341
H   H44       1.0  0.30720  0.13620  0.31960  1.0000 0.1553090341
H   H45       1.0  0.82270  0.12730  0.09270  1.0000 0.3922287948
H   H46       1.0  0.17730  0.62730  0.90730  1.0000 0.3922287948
H   H47       1.0  0.88310  0.21410  0.14400  1.0000 0.3779775329
H   H48       1.0  0.11690  0.71410  0.85600  1.0000 0.3779775329
H   H49       1.0  0.76280  0.10410  0.31240  1.0000 0.3397601671
H   H50       1.0  0.23720  0.60410  0.68760  1.0000 0.3397601671
H   H51       1.0  0.79580  0.15630  0.41060  1.0000 0.3922287948
H   H52       1.0  0.20420  0.65630  0.58940  1.0000 0.3922287948
C   C1        1.0  0.48420  0.33920  0.48990  1.0000 0.0089654071
C   C2        1.0  0.51580  0.83920  0.51010  1.0000 0.0089654071
C   C3        1.0  0.38740  0.37500  0.53100  1.0000 -0.2511701011
C   C4        1.0  0.61260  0.87500  0.46900  1.0000 -0.2511701011
C   C5        1.0  0.38730  0.37010  0.64110  1.0000 0.2697876222
C   C6        1.0  0.61270  0.87010  0.35890  1.0000 0.2697876222
C   C7        1.0  0.48130  0.33360  0.71020  1.0000 -0.3516510599
C   C8        1.0  0.51870  0.83360  0.28980  1.0000 -0.3516510599
C   C9        1.0  0.57760  0.30460  0.66880  1.0000 0.2697876222
C   C10       1.0  0.42240  0.80460  0.33120  1.0000 0.2697876222
C   C11       1.0  0.57910  0.30340  0.55870  1.0000 -0.2393476464
C   C12       1.0  0.42090  0.80340  0.44130  1.0000 -0.2393476464
C   C13       1.0  0.48600  0.34130  0.37170  1.0000 0.6452816851
C   C14       1.0  0.51400  0.84130  0.62830  1.0000 0.6452816851
C   C15       1.0  0.27910  0.38050  0.78600  1.0000 0.066629035
C   C16       1.0  0.72090  0.88050  0.21400  1.0000 0.066629035
C   C17       1.0  0.35660  0.45590  0.86120  1.0000 0.6385320849
C   C18       1.0  0.64340  0.95590  0.13880  1.0000 0.6385320849
C   C19       1.0  0.15560  0.39280  0.79940  1.0000 -0.4485493524
C   C20       1.0  0.84440  0.89280  0.20060  1.0000 -0.4485493524
C   C21       1.0  0.69030  0.29470  0.84350  1.0000 0.066629035
C   C22       1.0  0.30970  0.79470  0.15650  1.0000 0.066629035
C   C23       1.0  0.63090  0.21300  0.90440  1.0000 0.6385320849
C   C24       1.0  0.36910  0.71300  0.09560  1.0000 0.6385320849
C   C25       1.0  0.81850  0.29890  0.88160  1.0000 -0.4485493524
C   C26       1.0  0.18150  0.79890  0.11840  1.0000 -0.4485493524
C   C27       1.0  0.02150  0.54710  0.09080  1.0000 0.0190997846
C   C28       1.0  0.97850  0.04710  0.90920  1.0000 0.0190997846
C   C29       1.0  0.96350  0.54920  0.98790  1.0000 -0.2511701011
C   C30       1.0  0.03650  0.04920  0.01210  1.0000 -0.2511701011
C   C31       1.0  0.84840  0.57280  0.97130  1.0000 0.2801037855
C   C32       1.0  0.15160  0.07280  0.02870  1.0000 0.2801037855
C   C33       1.0  0.79070  0.59080  0.05760  1.0000 -0.3584043853
C   C34       1.0  0.20930  0.09080  0.94240  1.0000 -0.3584043853
C   C35       1.0  0.85200  0.58840  0.16220  1.0000 0.2801037855
C   C36       1.0  0.14800  0.08840  0.83780  1.0000 0.2801037855
C   C37       1.0  0.96650  0.56560  0.17950  1.0000 -0.2393476464
C   C38       1.0  0.03350  0.06560  0.82050  1.0000 -0.2393476464
C   C39       1.0  0.14550  0.52120  0.10890  1.0000 0.566935075
C   C40       1.0  0.85450  0.02120  0.89110  1.0000 0.566935075
C   C41       1.0  0.68720  0.57230  0.24820  1.0000 0.0787190064
C   C42       1.0  0.31280  0.07230  0.75180  1.0000 0.0787190064
C   C43       1.0  0.67130  0.45770  0.20910  1.0000 0.5894772835
C   C44       1.0  0.32870  0.95770  0.79090  1.0000 0.5894772835
C   C45       1.0  0.65810  0.58050  0.36260  1.0000 -0.4437436037
C   C46       1.0  0.34190  0.08050  0.63740  1.0000 -0.4437436037
C   C47       1.0  0.68310  0.59980  0.83780  1.0000 0.0787190064
C   C48       1.0  0.31690  0.09980  0.16220  1.0000 0.0787190064
C   C49       1.0  0.66310  0.71590  0.86460  1.0000 0.5894772835
C   C50       1.0  0.33690  0.21590  0.13540  1.0000 0.5894772835
C   C51       1.0  0.65410  0.58350  0.71710  1.0000 -0.4485493524
C   C52       1.0  0.34590  0.08350  0.28290  1.0000 -0.4485493524
O   O1        1.0  0.56230  0.28640  0.33720  1.0000 -0.6877530687
O   O2        1.0  0.43770  0.78640  0.66280  1.0000 -0.6877530687
O   O3        1.0  0.41440  0.39760  0.31360  1.0000 -0.6498293601
O   O4        1.0  0.58560  0.89760  0.68640  1.0000 -0.6498293601
O   O5        1.0  0.28810  0.40010  0.67640  1.0000 -0.214585083
O   O6        1.0  0.71190  0.90010  0.32360  1.0000 -0.214585083
O   O7        1.0  0.38130  0.54540  0.82750  1.0000 -0.6808824413
O   O8        1.0  0.61870  0.04540  0.17250  1.0000 -0.6808824413
O   O9        1.0  0.38950  0.42000  0.95470  1.0000 -0.6598795973
O   O10       1.0  0.61050  0.92000  0.04530  1.0000 -0.6598795973
O   O11       1.0  0.67670  0.27340  0.73120  1.0000 -0.2035966339
O   O12       1.0  0.32330  0.77340  0.26880  1.0000 -0.2035966339
O   O13       1.0  0.62560  0.23740  0.00110  1.0000 -0.6877530687
O   O14       1.0  0.37440  0.73740  0.99890  1.0000 -0.6877530687
O   O15       1.0  0.59310  0.12890  0.85980  1.0000 -0.6498293601
O   O16       1.0  0.40690  0.62890  0.14020  1.0000 -0.6498293601
O   O17       1.0  0.19650  0.49760  0.20120  1.0000 -0.6002652519
O   O18       1.0  0.80350  0.99760  0.79880  1.0000 -0.6002652519
O   O19       1.0  0.19850  0.52260  0.02750  1.0000 -0.6598795973
O   O20       1.0  0.80150  0.02260  0.97250  1.0000 -0.6598795973
O   O21       1.0  0.79880  0.57120  0.86570  1.0000 -0.2035966339
O   O22       1.0  0.20120  0.07120  0.13430  1.0000 -0.2035966339
O   O23       1.0  0.74270  0.78190  0.87700  1.0000 -0.5865243547
O   O24       1.0  0.25730  0.28190  0.12300  1.0000 -0.5865243547
O   O25       1.0  0.56210  0.74520  0.87020  1.0000 -0.741705107
O   O26       1.0  0.43790  0.24520  0.12980  1.0000 -0.741705107
O   O27       1.0  0.80200  0.60490  0.25240  1.0000 -0.2035966339
O   O28       1.0  0.19800  0.10490  0.74760  1.0000 -0.2035966339
O   O29       1.0  0.74930  0.39110  0.23200  1.0000 -0.6002652519
O   O30       1.0  0.25070  0.89110  0.76800  1.0000 -0.6002652519
O   O31       1.0  0.57530  0.43060  0.15550  1.0000 -0.7466712468
O   O32       1.0  0.42470  0.93060  0.84450  1.0000 -0.7466712468
O   O33       1.0  0.82230  0.17710  0.13960  1.0000 -0.7923523955
O   O34       1.0  0.17770  0.67710  0.86040  1.0000 -0.7923523955
O   O35       1.0  0.75500  0.16110  0.34850  1.0000 -0.7595966332
O   O36       1.0  0.24500  0.66110  0.65150  1.0000 -0.7595966332
