# DDEC6 charges by PACMAN v1.1 (https://github.com/mtap-research/PACMAN-charge/)
data_2017[Gd][kgd]2[FSR]1
_chemical_formula_sum              "Gd2 H20 C22 N2 O14"
_cell_length_a       8.584
_cell_length_b       9.035
_cell_length_c       10.3545
_cell_angle_alpha    104.6
_cell_angle_beta     101.96
_cell_angle_gamma    95.48

_symmetry_space_group_name_H-M    "P 1"
_symmetry_Int_Tables_number       1

loop_
  _symmetry_equiv_pos_as_xyz
  'x, y, z'

loop_
  _atom_site_type_symbol
  _atom_site_label
  _atom_site_symmetry_multiplicity
  _atom_site_fract_x
  _atom_site_fract_y
  _atom_site_fract_z
  _atom_site_occupancy
  _atom_site_charge
Gd  Gd1       1.0  0.42334  0.28769  0.02943  1.0000 2.0245860099
Gd  Gd2       1.0  0.57666  0.71231  0.97057  1.0000 2.0245860099
H   H1        1.0  0.75860  0.21730  0.39430  1.0000 0.1263764083
H   H2        1.0  0.67640  0.31130  0.58800  1.0000 0.1124332502
H   H3        1.0  0.76330  0.74200  0.54900  1.0000 0.120743937
H   H4        1.0  0.84790  0.64650  0.35580  1.0000 0.120743937
H   H5        1.0  0.93290  0.16760  0.27690  1.0000 0.1390805944
H   H6        1.0  0.97100  0.18830  0.14070  1.0000 0.1585526049
H   H7        1.0  0.97900  0.40200  0.09510  1.0000 0.1585526049
H   H8        1.0  0.01160  0.54350  0.22600  1.0000 0.1390805944
H   H9        1.0  0.55140  0.20340  0.83720  1.0000 0.3399516373
H   H10       1.0  0.48680  0.27280  0.73830  1.0000 0.3835378765
H   H11       1.0  0.24140  0.78270  0.60570  1.0000 0.1263764083
H   H12       1.0  0.32360  0.68870  0.41200  1.0000 0.1124332502
H   H13       1.0  0.23670  0.25800  0.45100  1.0000 0.120743937
H   H14       1.0  0.15210  0.35350  0.64420  1.0000 0.120743937
H   H15       1.0  0.06710  0.83240  0.72310  1.0000 0.1390805944
H   H16       1.0  0.02900  0.81170  0.85930  1.0000 0.1585526049
H   H17       1.0  0.02100  0.59800  0.90490  1.0000 0.1585526049
H   H18       1.0  0.98840  0.45650  0.77400  1.0000 0.1390805944
H   H19       1.0  0.44860  0.79660  0.16280  1.0000 0.3399516373
H   H20       1.0  0.51320  0.72720  0.26170  1.0000 0.3835378765
C   C1        1.0  0.82000  0.41580  0.35240  1.0000 0.1978626429
C   C2        1.0  0.76200  0.32400  0.42580  1.0000 -0.1965462461
C   C3        1.0  0.70900  0.37900  0.54100  1.0000 -0.0784648218
C   C4        1.0  0.70400  0.53800  0.58930  1.0000 -0.0784648218
C   C5        1.0  0.76200  0.63600  0.51730  1.0000 -0.0784648218
C   C6        1.0  0.81400  0.57900  0.40280  1.0000 -0.1965462461
C   C7        1.0  0.65300  0.59900  0.71550  1.0000 0.5529408335
C   C8        1.0  0.89100  0.19900  0.19500  1.0000 -0.2793664456
C   C9        1.0  0.74000  0.08900  0.11330  1.0000 0.6946114778
C   C10       1.0  0.92900  0.46200  0.16280  1.0000 -0.2600975156
C   C11       1.0  0.79900  0.53500  0.08960  1.0000 0.6410069346
C   C12       1.0  0.18000  0.58420  0.64760  1.0000 0.1978626429
C   C13       1.0  0.23800  0.67600  0.57420  1.0000 -0.1965462461
C   C14       1.0  0.29100  0.62100  0.45900  1.0000 -0.0784648218
C   C15       1.0  0.29600  0.46200  0.41070  1.0000 -0.0784648218
C   C16       1.0  0.23800  0.36400  0.48270  1.0000 -0.0784648218
C   C17       1.0  0.18600  0.42100  0.59720  1.0000 -0.1965462461
C   C18       1.0  0.34700  0.40100  0.28450  1.0000 0.5529408335
C   C19       1.0  0.10900  0.80100  0.80500  1.0000 -0.2793664456
C   C20       1.0  0.26000  0.91100  0.88670  1.0000 0.6946114778
C   C21       1.0  0.07100  0.53800  0.83720  1.0000 -0.2600975156
C   C22       1.0  0.20100  0.46500  0.91040  1.0000 0.6410069346
N   N1        1.0  0.87380  0.36290  0.23730  1.0000 -0.0248846047
N   N2        1.0  0.12620  0.63710  0.76270  1.0000 -0.0260350451
O   O1        1.0  0.61300  0.14260  0.08730  1.0000 -0.6799627364
O   O2        1.0  0.75160  0.94570  0.07620  1.0000 -0.6694898725
O   O3        1.0  0.64950  0.48510  0.06750  1.0000 -0.7387063623
O   O4        1.0  0.84510  0.65170  0.05700  1.0000 -0.5926624656
O   O5        1.0  0.59960  0.51090  0.77920  1.0000 -0.6414786697
O   O6        1.0  0.65900  0.74670  0.76790  1.0000 -0.6556441308
O   O7        1.0  0.46900  0.23790  0.80410  1.0000 -0.7387063623
O   O8        1.0  0.38700  0.85740  0.91270  1.0000 -0.6799627364
O   O9        1.0  0.24840  0.05430  0.92380  1.0000 -0.6694898725
O   O10       1.0  0.35050  0.51490  0.93250  1.0000 -0.7387063623
O   O11       1.0  0.15490  0.34830  0.94300  1.0000 -0.5926624656
O   O12       1.0  0.40040  0.48910  0.22080  1.0000 -0.6414786697
O   O13       1.0  0.34100  0.25330  0.23210  1.0000 -0.6556441308
O   O14       1.0  0.53100  0.76210  0.19590  1.0000 -0.7387063623
