# DDEC6 charges by PACMAN v1.1 (https://github.com/mtap-research/PACMAN-charge/)
data_2017[Mn][nan]3[FSR]3
_chemical_formula_sum              "Mn8 H60 C76 N12 O60"
_cell_length_a       15.4265
_cell_length_b       15.4265
_cell_length_c       13.187
_cell_angle_alpha    75.8211
_cell_angle_beta     104.179
_cell_angle_gamma    111.878

_symmetry_space_group_name_H-M    "P 1"
_symmetry_Int_Tables_number       1

loop_
  _symmetry_equiv_pos_as_xyz
  'x, y, z'

loop_
  _atom_site_type_symbol
  _atom_site_label
  _atom_site_symmetry_multiplicity
  _atom_site_fract_x
  _atom_site_fract_y
  _atom_site_fract_z
  _atom_site_occupancy
  _atom_site_charge
Mn  Mn1       1.0  0.57091  0.29209  0.85919  1.0000 1.0271304908
Mn  Mn2       1.0  0.66346  0.30726  0.12072  1.0000 1.0489810469
Mn  Mn3       1.0  0.29209  0.57091  0.64081  1.0000 1.0271304908
Mn  Mn4       1.0  0.30726  0.66346  0.37928  1.0000 1.0489810469
Mn  Mn5       1.0  0.42909  0.70791  0.14081  1.0000 1.0271304908
Mn  Mn6       1.0  0.33654  0.69274  0.87928  1.0000 1.0489810469
Mn  Mn7       1.0  0.70791  0.42909  0.35919  1.0000 1.0271304908
Mn  Mn8       1.0  0.69274  0.33654  0.62072  1.0000 1.0489810469
H   H1        1.0  0.74290  0.62470  0.01470  1.0000 0.1303289619
H   H2        1.0  0.49340  0.55540  0.81910  1.0000 0.1303289619
H   H3        1.0  0.56020  0.99620  0.93070  1.0000 0.1470136514
H   H4        1.0  0.68630  0.06850  0.67860  1.0000 0.1384797911
H   H5        1.0  0.75470  0.37730  0.95600  1.0000 0.3304065528
H   H6        1.0  0.75070  0.28910  0.96920  1.0000 0.3195208621
H   H7        1.0  0.48810  0.31790  0.65660  1.0000 0.3195208621
H   H8        1.0  0.42430  0.31370  0.70780  1.0000 0.3195208621
H   H9        1.0  0.61630  0.13850  0.30860  1.0000 0.0910095653
H   H10       1.0  0.69690  0.94650  0.27100  1.0000 0.1470136514
H   H11       1.0  0.59290  0.92370  0.20820  1.0000 0.1384797911
H   H12       1.0  0.67220  0.01680  0.16960  1.0000 0.1384797911
H   H13       1.0  0.54530  0.91250  0.38060  1.0000 0.1470136514
H   H14       1.0  0.64830  0.95350  0.44260  1.0000 0.1384797911
H   H15       1.0  0.57570  0.00710  0.42470  1.0000 0.1303289619
H   H16       1.0  0.62470  0.74290  0.48530  1.0000 0.1303289619
H   H17       1.0  0.55540  0.49340  0.68090  1.0000 0.1303289619
H   H18       1.0  0.99620  0.56020  0.56930  1.0000 0.1470136514
H   H19       1.0  0.06850  0.68630  0.82140  1.0000 0.1384797911
H   H20       1.0  0.37730  0.75470  0.54400  1.0000 0.3304065528
H   H21       1.0  0.28910  0.75070  0.53080  1.0000 0.3195208621
H   H22       1.0  0.31790  0.48810  0.84340  1.0000 0.3195208621
H   H23       1.0  0.31370  0.42430  0.79220  1.0000 0.3195208621
H   H24       1.0  0.13850  0.61630  0.19140  1.0000 0.0910095653
H   H25       1.0  0.94650  0.69690  0.22900  1.0000 0.1470136514
H   H26       1.0  0.92370  0.59290  0.29180  1.0000 0.1384797911
H   H27       1.0  0.01680  0.67220  0.33040  1.0000 0.1384797911
H   H28       1.0  0.91250  0.54530  0.11940  1.0000 0.1470136514
H   H29       1.0  0.95350  0.64830  0.05740  1.0000 0.1384797911
H   H30       1.0  0.00710  0.57570  0.07530  1.0000 0.1303289619
H   H31       1.0  0.25710  0.37530  0.98530  1.0000 0.1303289619
H   H32       1.0  0.50660  0.44460  0.18090  1.0000 0.1303289619
H   H33       1.0  0.43980  0.00380  0.06930  1.0000 0.1470136514
H   H34       1.0  0.31370  0.93150  0.32140  1.0000 0.1384797911
H   H35       1.0  0.24530  0.62270  0.04400  1.0000 0.3304065528
H   H36       1.0  0.24930  0.71090  0.03080  1.0000 0.3195208621
H   H37       1.0  0.51190  0.68210  0.34340  1.0000 0.3195208621
H   H38       1.0  0.57570  0.68630  0.29220  1.0000 0.3195208621
H   H39       1.0  0.38370  0.86150  0.69140  1.0000 0.0910095653
H   H40       1.0  0.30310  0.05350  0.72900  1.0000 0.1384797911
H   H41       1.0  0.40710  0.07630  0.79180  1.0000 0.1384797911
H   H42       1.0  0.32780  0.98320  0.83040  1.0000 0.1384797911
H   H43       1.0  0.45470  0.08750  0.61940  1.0000 0.1470136514
H   H44       1.0  0.35170  0.04650  0.55740  1.0000 0.1384797911
H   H45       1.0  0.42430  0.99290  0.57530  1.0000 0.1303289619
H   H46       1.0  0.37530  0.25710  0.51470  1.0000 0.1303289619
H   H47       1.0  0.44460  0.50660  0.31910  1.0000 0.1303289619
H   H48       1.0  0.00380  0.43980  0.43070  1.0000 0.1470136514
H   H49       1.0  0.93150  0.31370  0.17860  1.0000 0.1384797911
H   H50       1.0  0.62270  0.24530  0.45600  1.0000 0.3304065528
H   H51       1.0  0.71090  0.24930  0.46920  1.0000 0.3195208621
H   H52       1.0  0.68210  0.51190  0.15660  1.0000 0.3195208621
H   H53       1.0  0.68630  0.57570  0.20780  1.0000 0.3195208621
H   H54       1.0  0.86150  0.38370  0.80860  1.0000 0.0910095653
H   H55       1.0  0.05350  0.30310  0.77100  1.0000 0.1470136514
H   H56       1.0  0.07630  0.40710  0.70820  1.0000 0.1384797911
H   H57       1.0  0.98320  0.32780  0.66960  1.0000 0.1384797911
H   H58       1.0  0.08750  0.45470  0.88060  1.0000 0.1470136514
H   H59       1.0  0.04650  0.35170  0.94260  1.0000 0.1384797911
H   H60       1.0  0.99290  0.42430  0.92470  1.0000 0.1303289619
C   C1        1.0  0.70226  0.73574  0.93310  1.0000 0.012708391
C   C2        1.0  0.69512  0.64188  0.96500  1.0000 -0.1552481739
C   C3        1.0  0.61641  0.57359  0.92250  1.0000 -0.0058832805
C   C4        1.0  0.54640  0.60120  0.84840  1.0000 -0.1094209918
C   C5        1.0  0.55432  0.69608  0.81740  1.0000 -0.040515534
C   C6        1.0  0.63323  0.76557  0.85900  1.0000 0.012708391
C   C7        1.0  0.63339  0.86561  0.83630  1.0000 0.0161802942
C   C8        1.0  0.59141  0.88979  0.90180  1.0000 -0.040515534
C   C9        1.0  0.58726  0.98054  0.88510  1.0000 -0.1094209918
C   C10       1.0  0.62262  0.04758  0.80190  1.0000 -0.0039659135
C   C11       1.0  0.66299  0.02401  0.73570  1.0000 -0.1480042537
C   C12       1.0  0.66905  0.93435  0.75350  1.0000 0.012708391
C   C13       1.0  0.60931  0.47149  0.95140  1.0000 0.5888362589
C   C14       1.0  0.47660  0.72180  0.73440  1.0000 0.5605410399
C   C15       1.0  0.55238  0.81922  0.99450  1.0000 0.5684840741
C   C16       1.0  0.61558  0.14562  0.78210  1.0000 0.5750626983
C   C17       1.0  0.63650  0.11230  0.26620  1.0000 0.2844032111
C   C18       1.0  0.64930  0.97330  0.23070  1.0000 -0.3022913275
C   C19       1.0  0.59670  0.96950  0.39420  1.0000 -0.3282166657
C   C20       1.0  0.73574  0.70226  0.56690  1.0000 0.012708391
C   C21       1.0  0.64188  0.69512  0.53500  1.0000 -0.1552481739
C   C22       1.0  0.57359  0.61641  0.57750  1.0000 -0.0058832805
C   C23       1.0  0.60120  0.54640  0.65160  1.0000 -0.1094209918
C   C24       1.0  0.69608  0.55432  0.68260  1.0000 -0.040515534
C   C25       1.0  0.76557  0.63323  0.64100  1.0000 0.012708391
C   C26       1.0  0.86561  0.63339  0.66370  1.0000 0.0161802942
C   C27       1.0  0.88979  0.59141  0.59820  1.0000 -0.040515534
C   C28       1.0  0.98054  0.58726  0.61490  1.0000 -0.1094209918
C   C29       1.0  0.04758  0.62262  0.69810  1.0000 -0.0039659135
C   C30       1.0  0.02401  0.66299  0.76430  1.0000 -0.1480042537
C   C31       1.0  0.93435  0.66905  0.74650  1.0000 0.012708391
C   C32       1.0  0.47149  0.60931  0.54860  1.0000 0.5888362589
C   C33       1.0  0.72180  0.47660  0.76560  1.0000 0.5605410399
C   C34       1.0  0.81922  0.55238  0.50550  1.0000 0.5684840741
C   C35       1.0  0.14562  0.61558  0.71790  1.0000 0.5750626983
C   C36       1.0  0.11230  0.63650  0.23380  1.0000 0.2844032111
C   C37       1.0  0.97330  0.64930  0.26930  1.0000 -0.3022913275
C   C38       1.0  0.96950  0.59670  0.10580  1.0000 -0.3282166657
C   C39       1.0  0.29774  0.26426  0.06690  1.0000 0.012708391
C   C40       1.0  0.30488  0.35812  0.03500  1.0000 -0.1552481739
C   C41       1.0  0.38359  0.42641  0.07750  1.0000 -0.0058832805
C   C42       1.0  0.45360  0.39880  0.15160  1.0000 -0.1094209918
C   C43       1.0  0.44568  0.30392  0.18260  1.0000 -0.040515534
C   C44       1.0  0.36677  0.23443  0.14100  1.0000 0.012708391
C   C45       1.0  0.36661  0.13439  0.16370  1.0000 0.0161802942
C   C46       1.0  0.40859  0.11021  0.09820  1.0000 -0.040515534
C   C47       1.0  0.41274  0.01946  0.11490  1.0000 -0.1094209918
C   C48       1.0  0.37738  0.95242  0.19810  1.0000 -0.0039659135
C   C49       1.0  0.33701  0.97599  0.26430  1.0000 -0.1480042537
C   C50       1.0  0.33095  0.06565  0.24650  1.0000 0.012708391
C   C51       1.0  0.39069  0.52851  0.04860  1.0000 0.5888362589
C   C52       1.0  0.52340  0.27820  0.26560  1.0000 0.5605410399
C   C53       1.0  0.44762  0.18078  0.00550  1.0000 0.5684840741
C   C54       1.0  0.38442  0.85438  0.21790  1.0000 0.5750626983
C   C55       1.0  0.36350  0.88770  0.73380  1.0000 0.2844032111
C   C56       1.0  0.35070  0.02670  0.76930  1.0000 -0.3022913275
C   C57       1.0  0.40330  0.03050  0.60580  1.0000 -0.3282166657
C   C58       1.0  0.26426  0.29774  0.43310  1.0000 0.012708391
C   C59       1.0  0.35812  0.30488  0.46500  1.0000 -0.1552481739
C   C60       1.0  0.42641  0.38359  0.42250  1.0000 -0.0058832805
C   C61       1.0  0.39880  0.45360  0.34840  1.0000 -0.1094209918
C   C62       1.0  0.30392  0.44568  0.31740  1.0000 -0.040515534
C   C63       1.0  0.23443  0.36677  0.35900  1.0000 0.012708391
C   C64       1.0  0.13439  0.36661  0.33630  1.0000 0.0161802942
C   C65       1.0  0.11021  0.40859  0.40180  1.0000 -0.040515534
C   C66       1.0  0.01946  0.41274  0.38510  1.0000 -0.1094209918
C   C67       1.0  0.95242  0.37738  0.30190  1.0000 -0.0039659135
C   C68       1.0  0.97599  0.33701  0.23570  1.0000 -0.1480042537
C   C69       1.0  0.06565  0.33095  0.25350  1.0000 0.012708391
C   C70       1.0  0.52851  0.39069  0.45140  1.0000 0.5888362589
C   C71       1.0  0.27820  0.52340  0.23440  1.0000 0.5605410399
C   C72       1.0  0.18078  0.44762  0.49450  1.0000 0.5684840741
C   C73       1.0  0.85438  0.38442  0.28210  1.0000 0.5750626983
C   C74       1.0  0.88770  0.36350  0.76620  1.0000 0.2844032111
C   C75       1.0  0.02670  0.35070  0.73070  1.0000 -0.3022913275
C   C76       1.0  0.03050  0.40330  0.89420  1.0000 -0.3282166657
N   N1        1.0  0.78877  0.80463  0.97790  1.0000 0.507625884
N   N2        1.0  0.71573  0.91327  0.68500  1.0000 0.4956085744
N   N3        1.0  0.62820  0.02300  0.29560  1.0000 0.032236735
N   N4        1.0  0.80463  0.78877  0.52210  1.0000 0.507625884
N   N5        1.0  0.91327  0.71573  0.81500  1.0000 0.4956085744
N   N6        1.0  0.02300  0.62820  0.20440  1.0000 0.032236735
N   N7        1.0  0.21123  0.19537  0.02210  1.0000 0.507625884
N   N8        1.0  0.28427  0.08673  0.31500  1.0000 0.4956085744
N   N9        1.0  0.37180  0.97700  0.70440  1.0000 0.032236735
N   N10       1.0  0.19537  0.21123  0.47790  1.0000 0.507625884
N   N11       1.0  0.08673  0.28427  0.18500  1.0000 0.4956085744
N   N12       1.0  0.97700  0.37180  0.79560  1.0000 0.032236735
O   O1        1.0  0.81701  0.88259  0.92670  1.0000 -0.2837481213
O   O2        1.0  0.82921  0.77979  0.06490  1.0000 -0.2926410077
O   O3        1.0  0.65134  0.44548  0.04210  1.0000 -0.5698313651
O   O4        1.0  0.56437  0.42053  0.88370  1.0000 -0.5573231814
O   O5        1.0  0.39163  0.67649  0.75260  1.0000 -0.6287555037
O   O6        1.0  0.49632  0.77880  0.65490  1.0000 -0.4964488683
O   O7        1.0  0.46681  0.76855  0.98060  1.0000 -0.5698313651
O   O8        1.0  0.60529  0.81571  0.08020  1.0000 -0.4964488683
O   O9        1.0  0.58830  0.16576  0.85150  1.0000 -0.5471796332
O   O10       1.0  0.63647  0.19713  0.69740  1.0000 -0.5573231814
O   O11       1.0  0.72341  0.83959  0.69450  1.0000 -0.2274099229
O   O12       1.0  0.66818  0.16502  0.18850  1.0000 -0.4539502201
O   O13       1.0  0.71888  0.32088  0.97540  1.0000 -0.6729129193
O   O14       1.0  0.46954  0.29146  0.71670  1.0000 -0.6636118231
O   O15       1.0  0.74220  0.97300  0.61220  1.0000 -0.2461090771
O   O16       1.0  0.88259  0.81701  0.57330  1.0000 -0.2837481213
O   O17       1.0  0.77979  0.82921  0.43510  1.0000 -0.2926410077
O   O18       1.0  0.44548  0.65134  0.45790  1.0000 -0.5698313651
O   O19       1.0  0.42053  0.56437  0.61630  1.0000 -0.5573231814
O   O20       1.0  0.67649  0.39163  0.74740  1.0000 -0.6287555037
O   O21       1.0  0.77880  0.49632  0.84510  1.0000 -0.4964488683
O   O22       1.0  0.76855  0.46681  0.51940  1.0000 -0.5698313651
O   O23       1.0  0.81571  0.60529  0.41980  1.0000 -0.4964488683
O   O24       1.0  0.16576  0.58830  0.64850  1.0000 -0.5471796332
O   O25       1.0  0.19713  0.63647  0.80260  1.0000 -0.5573231814
O   O26       1.0  0.83959  0.72341  0.80550  1.0000 -0.2274099229
O   O27       1.0  0.16502  0.66818  0.31150  1.0000 -0.4539502201
O   O28       1.0  0.32088  0.71888  0.52460  1.0000 -0.6729129193
O   O29       1.0  0.29146  0.46954  0.78330  1.0000 -0.6636118231
O   O30       1.0  0.97300  0.74220  0.88780  1.0000 -0.2461090771
O   O31       1.0  0.18299  0.11741  0.07330  1.0000 -0.2837481213
O   O32       1.0  0.17079  0.22021  0.93510  1.0000 -0.2926410077
O   O33       1.0  0.34866  0.55452  0.95790  1.0000 -0.5698313651
O   O34       1.0  0.43563  0.57947  0.11630  1.0000 -0.5573231814
O   O35       1.0  0.60837  0.32351  0.24740  1.0000 -0.6287555037
O   O36       1.0  0.50368  0.22120  0.34510  1.0000 -0.4964488683
O   O37       1.0  0.53319  0.23145  0.01940  1.0000 -0.5698313651
O   O38       1.0  0.39471  0.18429  0.91980  1.0000 -0.4964488683
O   O39       1.0  0.41170  0.83424  0.14850  1.0000 -0.5471796332
O   O40       1.0  0.36353  0.80287  0.30260  1.0000 -0.5573231814
O   O41       1.0  0.27659  0.16041  0.30550  1.0000 -0.2274099229
O   O42       1.0  0.33182  0.83498  0.81150  1.0000 -0.4539502201
O   O43       1.0  0.28112  0.67912  0.02460  1.0000 -0.6729129193
O   O44       1.0  0.53046  0.70854  0.28330  1.0000 -0.6636118231
O   O45       1.0  0.25780  0.02700  0.38780  1.0000 -0.2461090771
O   O46       1.0  0.11741  0.18299  0.42670  1.0000 -0.2837481213
O   O47       1.0  0.22021  0.17079  0.56490  1.0000 -0.2926410077
O   O48       1.0  0.55452  0.34866  0.54210  1.0000 -0.5698313651
O   O49       1.0  0.57947  0.43563  0.38370  1.0000 -0.5573231814
O   O50       1.0  0.32351  0.60837  0.25260  1.0000 -0.6287555037
O   O51       1.0  0.22120  0.50368  0.15490  1.0000 -0.4964488683
O   O52       1.0  0.23145  0.53319  0.48060  1.0000 -0.5698313651
O   O53       1.0  0.18429  0.39471  0.58020  1.0000 -0.4964488683
O   O54       1.0  0.83424  0.41170  0.35150  1.0000 -0.5471796332
O   O55       1.0  0.80287  0.36353  0.19740  1.0000 -0.5573231814
O   O56       1.0  0.16041  0.27659  0.19450  1.0000 -0.2274099229
O   O57       1.0  0.83498  0.33182  0.68850  1.0000 -0.4539502201
O   O58       1.0  0.67912  0.28112  0.47540  1.0000 -0.6729129193
O   O59       1.0  0.70854  0.53046  0.21670  1.0000 -0.6636118231
O   O60       1.0  0.02700  0.25780  0.11220  1.0000 -0.2461090771
