# DDEC6 charges by PACMAN v1.1 (https://github.com/mtap-research/PACMAN-charge/)
data_2017[Co][pcu]2[FSR]8
_chemical_formula_sum              "Co8 H88 C144 N56 O48"
_cell_length_a       10.0581
_cell_length_b       19.595
_cell_length_c       20.491
_cell_angle_alpha    90
_cell_angle_beta     90
_cell_angle_gamma    90

_symmetry_space_group_name_H-M    "P 1"
_symmetry_Int_Tables_number       1

loop_
  _symmetry_equiv_pos_as_xyz
  'x, y, z'

loop_
  _atom_site_type_symbol
  _atom_site_label
  _atom_site_symmetry_multiplicity
  _atom_site_fract_x
  _atom_site_fract_y
  _atom_site_fract_z
  _atom_site_occupancy
  _atom_site_charge
Co  Co1       1.0  0.57880  0.05025  0.56068  1.0000 0.8446376908
Co  Co2       1.0  0.57880  0.44975  0.06068  1.0000 0.8446376908
Co  Co3       1.0  0.92120  0.94975  0.06068  1.0000 0.8446376908
Co  Co4       1.0  0.92120  0.55025  0.56068  1.0000 0.8446376908
Co  Co5       1.0  0.42120  0.55025  0.93932  1.0000 0.8446376908
Co  Co6       1.0  0.42120  0.94975  0.43932  1.0000 0.8446376908
Co  Co7       1.0  0.07880  0.44975  0.43932  1.0000 0.8446376908
Co  Co8       1.0  0.07880  0.05025  0.93932  1.0000 0.8446376908
H   H1        1.0  0.04180  0.05960  0.56860  1.0000 0.1204495059
H   H2        1.0  0.28160  0.89870  0.60030  1.0000 0.1316658568
H   H3        1.0  0.88250  0.87490  0.61090  1.0000 0.1316658568
H   H4        1.0  0.41720  0.13180  0.45080  1.0000 0.1316658568
H   H5        1.0  0.42590  0.35330  0.16550  1.0000 0.1204495059
H   H6        1.0  0.60770  0.31940  0.36500  1.0000 0.1604930896
H   H7        1.0  0.21960  0.22830  0.29590  1.0000 0.0905622456
H   H8        1.0  0.71600  0.19970  0.55400  1.0000 0.1204495059
H   H9        1.0  0.66680  0.28860  0.47360  1.0000 0.1373639468
H   H10       1.0  0.67900  0.41520  0.30430  1.0000 0.1316658568
H   H11       1.0  0.72640  0.47540  0.20300  1.0000 0.1204495059
H   H12       1.0  0.04180  0.44040  0.06860  1.0000 0.1204495059
H   H13       1.0  0.28160  0.60130  0.10030  1.0000 0.1316658568
H   H14       1.0  0.88250  0.62510  0.11090  1.0000 0.1316658568
H   H15       1.0  0.41720  0.36820  0.95080  1.0000 0.1316658568
H   H16       1.0  0.42590  0.14670  0.66550  1.0000 0.1204495059
H   H17       1.0  0.60770  0.18060  0.86500  1.0000 0.1604930896
H   H18       1.0  0.21960  0.27170  0.79590  1.0000 0.0905622456
H   H19       1.0  0.71600  0.30030  0.05400  1.0000 0.1204495059
H   H20       1.0  0.66680  0.21140  0.97360  1.0000 0.1373639468
H   H21       1.0  0.67900  0.08480  0.80430  1.0000 0.1316658568
H   H22       1.0  0.72640  0.02460  0.70300  1.0000 0.1204495059
H   H23       1.0  0.45820  0.94040  0.06860  1.0000 0.1204495059
H   H24       1.0  0.21840  0.10130  0.10030  1.0000 0.1316658568
H   H25       1.0  0.61750  0.12510  0.11090  1.0000 0.1316658568
H   H26       1.0  0.08280  0.86820  0.95080  1.0000 0.1316658568
H   H27       1.0  0.07410  0.64670  0.66550  1.0000 0.1204495059
H   H28       1.0  0.89230  0.68060  0.86500  1.0000 0.1604930896
H   H29       1.0  0.28040  0.77170  0.79590  1.0000 0.0905622456
H   H30       1.0  0.78400  0.80030  0.05400  1.0000 0.1204495059
H   H31       1.0  0.83320  0.71140  0.97360  1.0000 0.1373639468
H   H32       1.0  0.82100  0.58480  0.80430  1.0000 0.1316658568
H   H33       1.0  0.77360  0.52460  0.70300  1.0000 0.1204495059
H   H34       1.0  0.45820  0.55960  0.56860  1.0000 0.1204495059
H   H35       1.0  0.21840  0.39870  0.60030  1.0000 0.1316658568
H   H36       1.0  0.61750  0.37490  0.61090  1.0000 0.1316658568
H   H37       1.0  0.08280  0.63180  0.45080  1.0000 0.1316658568
H   H38       1.0  0.07410  0.85330  0.16550  1.0000 0.1204495059
H   H39       1.0  0.89230  0.81940  0.36500  1.0000 0.1604930896
H   H40       1.0  0.28040  0.72830  0.29590  1.0000 0.0905622456
H   H41       1.0  0.78400  0.69970  0.55400  1.0000 0.1204495059
H   H42       1.0  0.83320  0.78860  0.47360  1.0000 0.1373639468
H   H43       1.0  0.82100  0.91520  0.30430  1.0000 0.1316658568
H   H44       1.0  0.77360  0.97540  0.20300  1.0000 0.1204495059
H   H45       1.0  0.95820  0.55960  0.93140  1.0000 0.1204495059
H   H46       1.0  0.71840  0.39870  0.89970  1.0000 0.1316658568
H   H47       1.0  0.11750  0.37490  0.88910  1.0000 0.1316658568
H   H48       1.0  0.58280  0.63180  0.04920  1.0000 0.1316658568
H   H49       1.0  0.57410  0.85330  0.33450  1.0000 0.1204495059
H   H50       1.0  0.39230  0.81940  0.13500  1.0000 0.1604930896
H   H51       1.0  0.78040  0.72830  0.20410  1.0000 0.0905622456
H   H52       1.0  0.28400  0.69970  0.94600  1.0000 0.1204495059
H   H53       1.0  0.33320  0.78860  0.02640  1.0000 0.1373639468
H   H54       1.0  0.32100  0.91520  0.19570  1.0000 0.1316658568
H   H55       1.0  0.27360  0.97540  0.29700  1.0000 0.1204495059
H   H56       1.0  0.95820  0.94040  0.43140  1.0000 0.1204495059
H   H57       1.0  0.71840  0.10130  0.39970  1.0000 0.1316658568
H   H58       1.0  0.11750  0.12510  0.38910  1.0000 0.1316658568
H   H59       1.0  0.58280  0.86820  0.54920  1.0000 0.1316658568
H   H60       1.0  0.57410  0.64670  0.83450  1.0000 0.1204495059
H   H61       1.0  0.39230  0.68060  0.63500  1.0000 0.1604930896
H   H62       1.0  0.78040  0.77170  0.70410  1.0000 0.0905622456
H   H63       1.0  0.28400  0.80030  0.44600  1.0000 0.1204495059
H   H64       1.0  0.33320  0.71140  0.52640  1.0000 0.1373639468
H   H65       1.0  0.32100  0.58480  0.69570  1.0000 0.1316658568
H   H66       1.0  0.27360  0.52460  0.79700  1.0000 0.1204495059
H   H67       1.0  0.54180  0.44040  0.43140  1.0000 0.1204495059
H   H68       1.0  0.78160  0.60130  0.39970  1.0000 0.1316658568
H   H69       1.0  0.38250  0.62510  0.38910  1.0000 0.1316658568
H   H70       1.0  0.91720  0.36820  0.54920  1.0000 0.1316658568
H   H71       1.0  0.92590  0.14670  0.83450  1.0000 0.1204495059
H   H72       1.0  0.10770  0.18060  0.63500  1.0000 0.1604930896
H   H73       1.0  0.71960  0.27170  0.70410  1.0000 0.0905622456
H   H74       1.0  0.21600  0.30030  0.44600  1.0000 0.1204495059
H   H75       1.0  0.16680  0.21140  0.52640  1.0000 0.1373639468
H   H76       1.0  0.17900  0.08480  0.69570  1.0000 0.1316658568
H   H77       1.0  0.22640  0.02460  0.79700  1.0000 0.1204495059
H   H78       1.0  0.54180  0.05960  0.93140  1.0000 0.1204495059
H   H79       1.0  0.78160  0.89870  0.89970  1.0000 0.1316658568
H   H80       1.0  0.38250  0.87490  0.88910  1.0000 0.1316658568
H   H81       1.0  0.91720  0.13180  0.04920  1.0000 0.1316658568
H   H82       1.0  0.92590  0.35330  0.33450  1.0000 0.1204495059
H   H83       1.0  0.10770  0.31940  0.13500  1.0000 0.1604930896
H   H84       1.0  0.71960  0.22830  0.20410  1.0000 0.0905622456
H   H85       1.0  0.21600  0.19970  0.94600  1.0000 0.1204495059
H   H86       1.0  0.16680  0.28860  0.02640  1.0000 0.1373639468
H   H87       1.0  0.17900  0.41520  0.19570  1.0000 0.1316658568
H   H88       1.0  0.22640  0.47540  0.29700  1.0000 0.1204495059
C   C1        1.0  0.05320  0.01290  0.57780  1.0000 -0.1063876611
C   C2        1.0  0.94240  0.97140  0.58680  1.0000 0.0027146844
C   C3        1.0  0.29950  0.02960  0.57100  1.0000 0.5660057503
C   C4        1.0  0.80740  0.00150  0.57810  1.0000 0.5264735806
C   C5        1.0  0.18030  0.98590  0.58230  1.0000 -0.0112141727
C   C6        1.0  0.08430  0.87830  0.60900  1.0000 0.0623981941
C   C7        1.0  0.19620  0.91790  0.59760  1.0000 -0.1374611773
C   C8        1.0  0.95680  0.90300  0.60360  1.0000 -0.1529488277
C   C9        1.0  0.48650  0.15940  0.46660  1.0000 0.1518798608
C   C10       1.0  0.49480  0.37670  0.18700  1.0000 0.1373639468
C   C11       1.0  0.46180  0.24980  0.38440  1.0000 0.3397320739
C   C12       1.0  0.52770  0.29990  0.35030  1.0000 -0.3172125232
C   C13       1.0  0.30040  0.24710  0.31030  1.0000 0.2334584284
C   C14       1.0  0.46740  0.31930  0.29300  1.0000 0.3397320739
C   C15       1.0  0.64880  0.19720  0.52220  1.0000 -0.0235482815
C   C16       1.0  0.62290  0.24660  0.47840  1.0000 -0.0963043322
C   C17       1.0  0.63390  0.41030  0.26440  1.0000 -0.0920851093
C   C18       1.0  0.65900  0.44270  0.20860  1.0000 -0.0235482815
C   C19       1.0  0.05320  0.48710  0.07780  1.0000 -0.1063876611
C   C20       1.0  0.94240  0.52860  0.08680  1.0000 0.0027146844
C   C21       1.0  0.29950  0.47040  0.07100  1.0000 0.5660057503
C   C22       1.0  0.80740  0.49850  0.07810  1.0000 0.5264735806
C   C23       1.0  0.18030  0.51410  0.08230  1.0000 -0.0112141727
C   C24       1.0  0.08430  0.62170  0.10900  1.0000 0.0623981941
C   C25       1.0  0.19620  0.58210  0.09760  1.0000 -0.1374611773
C   C26       1.0  0.95680  0.59700  0.10360  1.0000 -0.1529488277
C   C27       1.0  0.48650  0.34060  0.96660  1.0000 0.1518798608
C   C28       1.0  0.49480  0.12330  0.68700  1.0000 0.1373639468
C   C29       1.0  0.46180  0.25020  0.88440  1.0000 0.3397320739
C   C30       1.0  0.52770  0.20010  0.85030  1.0000 -0.3172125232
C   C31       1.0  0.30040  0.25290  0.81030  1.0000 0.2334584284
C   C32       1.0  0.46740  0.18070  0.79300  1.0000 0.3397320739
C   C33       1.0  0.64880  0.30280  0.02220  1.0000 -0.0235482815
C   C34       1.0  0.62290  0.25340  0.97840  1.0000 -0.0963043322
C   C35       1.0  0.63390  0.08970  0.76440  1.0000 -0.0920851093
C   C36       1.0  0.65900  0.05730  0.70860  1.0000 -0.0235482815
C   C37       1.0  0.44680  0.98710  0.07780  1.0000 -0.1063876611
C   C38       1.0  0.55760  0.02860  0.08680  1.0000 0.0027146844
C   C39       1.0  0.20050  0.97040  0.07100  1.0000 0.5660057503
C   C40       1.0  0.69260  0.99850  0.07810  1.0000 0.5264735806
C   C41       1.0  0.31970  0.01410  0.08230  1.0000 -0.0112141727
C   C42       1.0  0.41570  0.12170  0.10900  1.0000 0.0623981941
C   C43       1.0  0.30380  0.08210  0.09760  1.0000 -0.1374611773
C   C44       1.0  0.54320  0.09700  0.10360  1.0000 -0.1529488277
C   C45       1.0  0.01350  0.84060  0.96660  1.0000 0.1518798608
C   C46       1.0  0.00520  0.62330  0.68700  1.0000 0.1373639468
C   C47       1.0  0.03820  0.75020  0.88440  1.0000 0.3397320739
C   C48       1.0  0.97230  0.70010  0.85030  1.0000 -0.3172125232
C   C49       1.0  0.19960  0.75290  0.81030  1.0000 0.2334584284
C   C50       1.0  0.03260  0.68070  0.79300  1.0000 0.3397320739
C   C51       1.0  0.85120  0.80280  0.02220  1.0000 -0.0235482815
C   C52       1.0  0.87710  0.75340  0.97840  1.0000 -0.0963043322
C   C53       1.0  0.86610  0.58970  0.76440  1.0000 -0.0920851093
C   C54       1.0  0.84100  0.55730  0.70860  1.0000 -0.0235482815
C   C55       1.0  0.44680  0.51290  0.57780  1.0000 -0.1063876611
C   C56       1.0  0.55760  0.47140  0.58680  1.0000 0.0027146844
C   C57       1.0  0.20050  0.52960  0.57100  1.0000 0.5660057503
C   C58       1.0  0.69260  0.50150  0.57810  1.0000 0.5264735806
C   C59       1.0  0.31970  0.48590  0.58230  1.0000 -0.0112141727
C   C60       1.0  0.41570  0.37830  0.60900  1.0000 0.0623981941
C   C61       1.0  0.30380  0.41790  0.59760  1.0000 -0.1374611773
C   C62       1.0  0.54320  0.40300  0.60360  1.0000 -0.1529488277
C   C63       1.0  0.01350  0.65940  0.46660  1.0000 0.1518798608
C   C64       1.0  0.00520  0.87670  0.18700  1.0000 0.1373639468
C   C65       1.0  0.03820  0.74980  0.38440  1.0000 0.3397320739
C   C66       1.0  0.97230  0.79990  0.35030  1.0000 -0.3172125232
C   C67       1.0  0.19960  0.74710  0.31030  1.0000 0.2334584284
C   C68       1.0  0.03260  0.81930  0.29300  1.0000 0.3397320739
C   C69       1.0  0.85120  0.69720  0.52220  1.0000 -0.0235482815
C   C70       1.0  0.87710  0.74660  0.47840  1.0000 -0.0963043322
C   C71       1.0  0.86610  0.91030  0.26440  1.0000 -0.0920851093
C   C72       1.0  0.84100  0.94270  0.20860  1.0000 -0.0235482815
C   C73       1.0  0.94680  0.51290  0.92220  1.0000 -0.1063876611
C   C74       1.0  0.05760  0.47140  0.91320  1.0000 0.0027146844
C   C75       1.0  0.70050  0.52960  0.92900  1.0000 0.5660057503
C   C76       1.0  0.19260  0.50150  0.92190  1.0000 0.5264735806
C   C77       1.0  0.81970  0.48590  0.91770  1.0000 -0.0112141727
C   C78       1.0  0.91570  0.37830  0.89100  1.0000 0.0623981941
C   C79       1.0  0.80380  0.41790  0.90240  1.0000 -0.1374611773
C   C80       1.0  0.04320  0.40300  0.89640  1.0000 -0.1529488277
C   C81       1.0  0.51350  0.65940  0.03340  1.0000 0.1518798608
C   C82       1.0  0.50520  0.87670  0.31300  1.0000 0.1373639468
C   C83       1.0  0.53820  0.74980  0.11560  1.0000 0.3397320739
C   C84       1.0  0.47230  0.79990  0.14970  1.0000 -0.3172125232
C   C85       1.0  0.69960  0.74710  0.18970  1.0000 0.2334584284
C   C86       1.0  0.53260  0.81930  0.20700  1.0000 0.3397320739
C   C87       1.0  0.35120  0.69720  0.97780  1.0000 -0.0235482815
C   C88       1.0  0.37710  0.74660  0.02160  1.0000 -0.0963043322
C   C89       1.0  0.36610  0.91030  0.23560  1.0000 -0.0920851093
C   C90       1.0  0.34100  0.94270  0.29140  1.0000 -0.0235482815
C   C91       1.0  0.94680  0.98710  0.42220  1.0000 -0.1063876611
C   C92       1.0  0.05760  0.02860  0.41320  1.0000 0.0027146844
C   C93       1.0  0.70050  0.97040  0.42900  1.0000 0.5660057503
C   C94       1.0  0.19260  0.99850  0.42190  1.0000 0.5264735806
C   C95       1.0  0.81970  0.01410  0.41770  1.0000 -0.0112141727
C   C96       1.0  0.91570  0.12170  0.39100  1.0000 0.0623981941
C   C97       1.0  0.80380  0.08210  0.40240  1.0000 -0.1374611773
C   C98       1.0  0.04320  0.09700  0.39640  1.0000 -0.1529488277
C   C99       1.0  0.51350  0.84060  0.53340  1.0000 0.1518798608
C   C100      1.0  0.50520  0.62330  0.81300  1.0000 0.1373639468
C   C101      1.0  0.53820  0.75020  0.61560  1.0000 0.3397320739
C   C102      1.0  0.47230  0.70010  0.64970  1.0000 -0.3172125232
C   C103      1.0  0.69960  0.75290  0.68970  1.0000 0.2334584284
C   C104      1.0  0.53260  0.68070  0.70700  1.0000 0.3397320739
C   C105      1.0  0.35120  0.80280  0.47780  1.0000 -0.0235482815
C   C106      1.0  0.37710  0.75340  0.52160  1.0000 -0.0963043322
C   C107      1.0  0.36610  0.58970  0.73560  1.0000 -0.0920851093
C   C108      1.0  0.34100  0.55730  0.79140  1.0000 -0.0235482815
C   C109      1.0  0.55320  0.48710  0.42220  1.0000 -0.1063876611
C   C110      1.0  0.44240  0.52860  0.41320  1.0000 0.0027146844
C   C111      1.0  0.79950  0.47040  0.42900  1.0000 0.5660057503
C   C112      1.0  0.30740  0.49850  0.42190  1.0000 0.5264735806
C   C113      1.0  0.68030  0.51410  0.41770  1.0000 -0.0112141727
C   C114      1.0  0.58430  0.62170  0.39100  1.0000 0.0623981941
C   C115      1.0  0.69620  0.58210  0.40240  1.0000 -0.1374611773
C   C116      1.0  0.45680  0.59700  0.39640  1.0000 -0.1529488277
C   C117      1.0  0.98650  0.34060  0.53340  1.0000 0.1518798608
C   C118      1.0  0.99480  0.12330  0.81300  1.0000 0.1373639468
C   C119      1.0  0.96180  0.25020  0.61560  1.0000 0.3397320739
C   C120      1.0  0.02770  0.20010  0.64970  1.0000 -0.3172125232
C   C121      1.0  0.80040  0.25290  0.68970  1.0000 0.2334584284
C   C122      1.0  0.96740  0.18070  0.70700  1.0000 0.3397320739
C   C123      1.0  0.14880  0.30280  0.47780  1.0000 -0.0235482815
C   C124      1.0  0.12290  0.25340  0.52160  1.0000 -0.0963043322
C   C125      1.0  0.13390  0.08970  0.73560  1.0000 -0.0920851093
C   C126      1.0  0.15900  0.05730  0.79140  1.0000 -0.0235482815
C   C127      1.0  0.55320  0.01290  0.92220  1.0000 -0.1063876611
C   C128      1.0  0.44240  0.97140  0.91320  1.0000 0.0027146844
C   C129      1.0  0.79950  0.02960  0.92900  1.0000 0.5660057503
C   C130      1.0  0.30740  0.00150  0.92190  1.0000 0.5264735806
C   C131      1.0  0.68030  0.98590  0.91770  1.0000 -0.0112141727
C   C132      1.0  0.58430  0.87830  0.89100  1.0000 0.0623981941
C   C133      1.0  0.69620  0.91790  0.90240  1.0000 -0.1374611773
C   C134      1.0  0.45680  0.90300  0.89640  1.0000 -0.1529488277
C   C135      1.0  0.98650  0.15940  0.03340  1.0000 0.1518798608
C   C136      1.0  0.99480  0.37670  0.31300  1.0000 0.1373639468
C   C137      1.0  0.96180  0.24980  0.11560  1.0000 0.3397320739
C   C138      1.0  0.02770  0.29990  0.14970  1.0000 -0.3172125232
C   C139      1.0  0.80040  0.24710  0.18970  1.0000 0.2334584284
C   C140      1.0  0.96740  0.31930  0.20700  1.0000 0.3397320739
C   C141      1.0  0.14880  0.19720  0.97780  1.0000 -0.0235482815
C   C142      1.0  0.12290  0.24660  0.02160  1.0000 -0.0963043322
C   C143      1.0  0.13390  0.41030  0.23560  1.0000 -0.0920851093
C   C144      1.0  0.15900  0.44270  0.29140  1.0000 -0.0235482815
N   N1        1.0  0.51720  0.22180  0.44200  1.0000 -0.0235482815
N   N2        1.0  0.57210  0.42180  0.15950  1.0000 -0.2910031092
N   N3        1.0  0.56380  0.14240  0.51450  1.0000 -0.2910031092
N   N4        1.0  0.34620  0.22310  0.36630  1.0000 -0.3631192756
N   N5        1.0  0.52700  0.36780  0.25110  1.0000 -0.0235482815
N   N6        1.0  0.10120  0.80740  0.63020  1.0000 0.5041787314
N   N7        1.0  0.35340  0.29430  0.27180  1.0000 -0.3652132463
N   N8        1.0  0.51720  0.27820  0.94200  1.0000 -0.0235482815
N   N9        1.0  0.57210  0.07820  0.65950  1.0000 -0.2910031092
N   N10       1.0  0.56380  0.35760  0.01450  1.0000 -0.2910031092
N   N11       1.0  0.34620  0.27690  0.86630  1.0000 -0.3631192756
N   N12       1.0  0.52700  0.13220  0.75110  1.0000 -0.0235482815
N   N13       1.0  0.10120  0.69260  0.13020  1.0000 0.5041787314
N   N14       1.0  0.35340  0.20570  0.77180  1.0000 -0.3652132463
N   N15       1.0  0.98280  0.77820  0.94200  1.0000 -0.0235482815
N   N16       1.0  0.92790  0.57820  0.65950  1.0000 -0.2910031092
N   N17       1.0  0.93620  0.85760  0.01450  1.0000 -0.2910031092
N   N18       1.0  0.15380  0.77690  0.86630  1.0000 -0.3631192756
N   N19       1.0  0.97300  0.63220  0.75110  1.0000 -0.0235482815
N   N20       1.0  0.39880  0.19260  0.13020  1.0000 0.5041787314
N   N21       1.0  0.14660  0.70570  0.77180  1.0000 -0.3652132463
N   N22       1.0  0.98280  0.72180  0.44200  1.0000 -0.0235482815
N   N23       1.0  0.92790  0.92180  0.15950  1.0000 -0.2910031092
N   N24       1.0  0.93620  0.64240  0.51450  1.0000 -0.2910031092
N   N25       1.0  0.15380  0.72310  0.36630  1.0000 -0.3631192756
N   N26       1.0  0.97300  0.86780  0.25110  1.0000 -0.0235482815
N   N27       1.0  0.39880  0.30740  0.63020  1.0000 0.5041787314
N   N28       1.0  0.14660  0.79430  0.27180  1.0000 -0.3652132463
N   N29       1.0  0.48280  0.72180  0.05800  1.0000 -0.0235482815
N   N30       1.0  0.42790  0.92180  0.34050  1.0000 -0.2910031092
N   N31       1.0  0.43620  0.64240  0.98550  1.0000 -0.2910031092
N   N32       1.0  0.65380  0.72310  0.13370  1.0000 -0.3631192756
N   N33       1.0  0.47300  0.86780  0.24890  1.0000 -0.0235482815
N   N34       1.0  0.89880  0.30740  0.86980  1.0000 0.5041787314
N   N35       1.0  0.64660  0.79430  0.22820  1.0000 -0.3652132463
N   N36       1.0  0.48280  0.77820  0.55800  1.0000 -0.0235482815
N   N37       1.0  0.42790  0.57820  0.84050  1.0000 -0.2910031092
N   N38       1.0  0.43620  0.85760  0.48550  1.0000 -0.2910031092
N   N39       1.0  0.65380  0.77690  0.63370  1.0000 -0.3631192756
N   N40       1.0  0.47300  0.63220  0.74890  1.0000 -0.0235482815
N   N41       1.0  0.89880  0.19260  0.36980  1.0000 0.5041787314
N   N42       1.0  0.64660  0.70570  0.72820  1.0000 -0.3652132463
N   N43       1.0  0.01720  0.27820  0.55800  1.0000 -0.0235482815
N   N44       1.0  0.07210  0.07820  0.84050  1.0000 -0.2910031092
N   N45       1.0  0.06380  0.35760  0.48550  1.0000 -0.2910031092
N   N46       1.0  0.84620  0.27690  0.63370  1.0000 -0.3631192756
N   N47       1.0  0.02700  0.13220  0.74890  1.0000 -0.0235482815
N   N48       1.0  0.60120  0.69260  0.36980  1.0000 0.5041787314
N   N49       1.0  0.85340  0.20570  0.72820  1.0000 -0.3652132463
N   N50       1.0  0.01720  0.22180  0.05800  1.0000 -0.0235482815
N   N51       1.0  0.07210  0.42180  0.34050  1.0000 -0.2910031092
N   N52       1.0  0.06380  0.14240  0.98550  1.0000 -0.2910031092
N   N53       1.0  0.84620  0.22310  0.13370  1.0000 -0.3631192756
N   N54       1.0  0.02700  0.36780  0.24890  1.0000 -0.0235482815
N   N55       1.0  0.60120  0.80740  0.86980  1.0000 0.5041787314
N   N56       1.0  0.85340  0.29430  0.22820  1.0000 -0.3652132463
O   O1        1.0  0.40470  0.00070  0.55080  1.0000 -0.5677243483
O   O2        1.0  0.70590  0.96430  0.58180  1.0000 -0.5238744927
O   O3        1.0  0.79630  0.06530  0.56760  1.0000 -0.5459806707
O   O4        1.0  0.28650  0.09290  0.58110  1.0000 -0.5677243483
O   O5        1.0  0.21200  0.78570  0.63920  1.0000 -0.2910031092
O   O6        1.0  0.00500  0.77310  0.63910  1.0000 -0.2910031092
O   O7        1.0  0.40470  0.49930  0.05080  1.0000 -0.5677243483
O   O8        1.0  0.70590  0.53570  0.08180  1.0000 -0.5238744927
O   O9        1.0  0.79630  0.43470  0.06760  1.0000 -0.5459806707
O   O10       1.0  0.28650  0.40710  0.08110  1.0000 -0.5677243483
O   O11       1.0  0.21200  0.71430  0.13920  1.0000 -0.2910031092
O   O12       1.0  0.00500  0.72690  0.13910  1.0000 -0.2910031092
O   O13       1.0  0.09530  0.99930  0.05080  1.0000 -0.5677243483
O   O14       1.0  0.79410  0.03570  0.08180  1.0000 -0.5238744927
O   O15       1.0  0.70370  0.93470  0.06760  1.0000 -0.5459806707
O   O16       1.0  0.21350  0.90710  0.08110  1.0000 -0.5677243483
O   O17       1.0  0.28800  0.21430  0.13920  1.0000 -0.2910031092
O   O18       1.0  0.49500  0.22690  0.13910  1.0000 -0.2910031092
O   O19       1.0  0.09530  0.50070  0.55080  1.0000 -0.5677243483
O   O20       1.0  0.79410  0.46430  0.58180  1.0000 -0.5238744927
O   O21       1.0  0.70370  0.56530  0.56760  1.0000 -0.5459806707
O   O22       1.0  0.21350  0.59290  0.58110  1.0000 -0.5677243483
O   O23       1.0  0.28800  0.28570  0.63920  1.0000 -0.2910031092
O   O24       1.0  0.49500  0.27310  0.63910  1.0000 -0.2910031092
O   O25       1.0  0.59530  0.50070  0.94920  1.0000 -0.5677243483
O   O26       1.0  0.29410  0.46430  0.91820  1.0000 -0.5238744927
O   O27       1.0  0.20370  0.56530  0.93240  1.0000 -0.5459806707
O   O28       1.0  0.71350  0.59290  0.91890  1.0000 -0.5677243483
O   O29       1.0  0.78800  0.28570  0.86080  1.0000 -0.2910031092
O   O30       1.0  0.99500  0.27310  0.86090  1.0000 -0.2910031092
O   O31       1.0  0.59530  0.99930  0.44920  1.0000 -0.5677243483
O   O32       1.0  0.29410  0.03570  0.41820  1.0000 -0.5238744927
O   O33       1.0  0.20370  0.93470  0.43240  1.0000 -0.5459806707
O   O34       1.0  0.71350  0.90710  0.41890  1.0000 -0.5677243483
O   O35       1.0  0.78800  0.21430  0.36080  1.0000 -0.2910031092
O   O36       1.0  0.99500  0.22690  0.36090  1.0000 -0.2910031092
O   O37       1.0  0.90470  0.49930  0.44920  1.0000 -0.5677243483
O   O38       1.0  0.20590  0.53570  0.41820  1.0000 -0.5238744927
O   O39       1.0  0.29630  0.43470  0.43240  1.0000 -0.5459806707
O   O40       1.0  0.78650  0.40710  0.41890  1.0000 -0.5677243483
O   O41       1.0  0.71200  0.71430  0.36080  1.0000 -0.2910031092
O   O42       1.0  0.50500  0.72690  0.36090  1.0000 -0.2910031092
O   O43       1.0  0.90470  0.00070  0.94920  1.0000 -0.5677243483
O   O44       1.0  0.20590  0.96430  0.91820  1.0000 -0.5238744927
O   O45       1.0  0.29630  0.06530  0.93240  1.0000 -0.5459806707
O   O46       1.0  0.78650  0.09290  0.91890  1.0000 -0.5677243483
O   O47       1.0  0.71200  0.78570  0.86080  1.0000 -0.2910031092
O   O48       1.0  0.50500  0.77310  0.86090  1.0000 -0.2910031092
