# DDEC6 charges by PACMAN v1.1 (https://github.com/mtap-research/PACMAN-charge/)
data_2017[CuSi][pcu]3[FSR]3
_chemical_formula_sum              "Cu1 Si1 H16 C20 N4 F6"
_cell_length_a       11.1348
_cell_length_b       11.1348
_cell_length_c       8.0047
_cell_angle_alpha    90
_cell_angle_beta     90
_cell_angle_gamma    90

_symmetry_space_group_name_H-M    "P 1"
_symmetry_Int_Tables_number       1

loop_
  _symmetry_equiv_pos_as_xyz
  'x, y, z'

loop_
  _atom_site_type_symbol
  _atom_site_label
  _atom_site_symmetry_multiplicity
  _atom_site_fract_x
  _atom_site_fract_y
  _atom_site_fract_z
  _atom_site_occupancy
  _atom_site_charge
Cu  Cu1       1.0  0.00000  0.00000  0.00000  1.0000 0.6758899043
Si  Si1       1.0  0.00000  0.00000  0.50000  1.0000 1.7287185142
H   H1        1.0  0.19281  0.06405  0.24102  1.0000 0.1108450616
H   H2        1.0  0.41511  0.06545  0.24710  1.0000 0.1234811942
H   H3        1.0  0.80719  0.93595  0.24102  1.0000 0.1108450616
H   H4        1.0  0.58489  0.93455  0.24710  1.0000 0.1234811942
H   H5        1.0  0.06405  0.80719  0.24102  1.0000 0.1108450616
H   H6        1.0  0.06545  0.58489  0.24710  1.0000 0.1234811942
H   H7        1.0  0.93595  0.19281  0.24102  1.0000 0.1108450616
H   H8        1.0  0.93455  0.41511  0.24710  1.0000 0.1234811942
H   H9        1.0  0.19281  0.93595  0.75898  1.0000 0.1108450616
H   H10       1.0  0.41511  0.93455  0.75290  1.0000 0.1234811942
H   H11       1.0  0.80719  0.06405  0.75898  1.0000 0.1108450616
H   H12       1.0  0.58489  0.06545  0.75290  1.0000 0.1234811942
H   H13       1.0  0.06405  0.19281  0.75898  1.0000 0.1108450616
H   H14       1.0  0.06545  0.41511  0.75290  1.0000 0.1234811942
H   H15       1.0  0.93595  0.80719  0.75898  1.0000 0.1108450616
H   H16       1.0  0.93455  0.58489  0.75290  1.0000 0.1234811942
C   C1        1.0  0.24303  0.03427  0.13464  1.0000 0.0996328915
C   C2        1.0  0.36849  0.03491  0.13817  1.0000 -0.1715917153
C   C3        1.0  0.75697  0.96573  0.13464  1.0000 0.0996328915
C   C4        1.0  0.63151  0.96509  0.13817  1.0000 -0.1715917153
C   C5        1.0  0.03427  0.75697  0.13464  1.0000 0.0996328915
C   C6        1.0  0.03491  0.63151  0.13817  1.0000 -0.1715917153
C   C7        1.0  0.96573  0.24303  0.13464  1.0000 0.0996328915
C   C8        1.0  0.96509  0.36849  0.13817  1.0000 -0.1715917153
C   C9        1.0  0.24303  0.96573  0.86536  1.0000 0.0996328915
C   C10       1.0  0.36849  0.96509  0.86183  1.0000 -0.1715917153
C   C11       1.0  0.75697  0.03427  0.86536  1.0000 0.0996328915
C   C12       1.0  0.63151  0.03491  0.86183  1.0000 -0.1715917153
C   C13       1.0  0.03427  0.24303  0.86536  1.0000 0.0996328915
C   C14       1.0  0.03491  0.36849  0.86183  1.0000 -0.1715917153
C   C15       1.0  0.96573  0.75697  0.86536  1.0000 0.0996328915
C   C16       1.0  0.96509  0.63151  0.86183  1.0000 -0.1715917153
C   C17       1.0  0.43393  0.00000  0.00000  1.0000 0.0996328915
C   C18       1.0  0.56607  0.00000  0.00000  1.0000 0.0996328915
C   C19       1.0  0.00000  0.56607  0.00000  1.0000 0.0996328915
C   C20       1.0  0.00000  0.43393  0.00000  1.0000 0.0996328915
N   N1        1.0  0.18296  0.00000  0.00000  1.0000 -0.2028753509
N   N2        1.0  0.81704  0.00000  0.00000  1.0000 -0.2028753509
N   N3        1.0  0.00000  0.81704  0.00000  1.0000 -0.2028753509
N   N4        1.0  0.00000  0.18296  0.00000  1.0000 -0.2028753509
F   F1        1.0  0.00000  0.00000  0.28490  1.0000 -0.5446338405
F   F2        1.0  0.00000  0.00000  0.71510  1.0000 -0.5446338405
F   F3        1.0  0.10630  0.10630  0.50000  1.0000 -0.5503275891
F   F4        1.0  0.89370  0.89370  0.50000  1.0000 -0.5503275891
F   F5        1.0  0.10630  0.89370  0.50000  1.0000 -0.5503275891
F   F6        1.0  0.89370  0.10630  0.50000  1.0000 -0.5503275891
