# DDEC6 charges by PACMAN v1.1 (https://github.com/mtap-research/PACMAN-charge/)
data_2017[Er][nan]3[FSR]4
_chemical_formula_sum              "Er4 H74 C90 S6 N2 O44"
_cell_length_a       12.608
_cell_length_b       12.769
_cell_length_c       21.876
_cell_angle_alpha    98.05
_cell_angle_beta     96.84
_cell_angle_gamma    118.109

_symmetry_space_group_name_H-M    "P 1"
_symmetry_Int_Tables_number       1

loop_
  _symmetry_equiv_pos_as_xyz
  'x, y, z'

loop_
  _atom_site_type_symbol
  _atom_site_label
  _atom_site_symmetry_multiplicity
  _atom_site_fract_x
  _atom_site_fract_y
  _atom_site_fract_z
  _atom_site_occupancy
  _atom_site_charge
Er  Er1       1.0  0.06169  0.54521  0.09497  1.0000 2.0805022841
Er  Er2       1.0  0.93831  0.45479  0.90503  1.0000 2.0805022841
Er  Er3       1.0  0.93109  0.95843  0.40296  1.0000 2.0805022841
Er  Er4       1.0  0.06891  0.04157  0.59704  1.0000 2.0805022841
H   H1        1.0  0.92570  0.17410  0.36980  1.0000 0.4206451898
H   H2        1.0  0.07430  0.82590  0.63020  1.0000 0.4206451898
H   H3        1.0  0.81940  0.06760  0.32470  1.0000 0.4206451898
H   H4        1.0  0.18060  0.93240  0.67530  1.0000 0.4206451898
H   H5        1.0  0.67660  0.82150  0.37710  1.0000 0.3142603164
H   H6        1.0  0.32340  0.17850  0.62290  1.0000 0.3142603164
H   H7        1.0  0.74370  0.78970  0.35020  1.0000 0.2880904203
H   H8        1.0  0.25630  0.21030  0.64980  1.0000 0.2880904203
H   H9        1.0  0.16040  0.70780  0.20810  1.0000 0.3833000784
H   H10       1.0  0.83960  0.29220  0.79190  1.0000 0.3833000784
H   H11       1.0  0.03370  0.64960  0.20510  1.0000 0.3934769755
H   H12       1.0  0.96630  0.35040  0.79490  1.0000 0.3934769755
H   H13       1.0  0.10230  0.21070  0.89550  1.0000 0.1398798978
H   H14       1.0  0.89770  0.78930  0.10450  1.0000 0.1398798978
H   H15       1.0  0.18890  0.08380  0.89480  1.0000 0.1211772821
H   H16       1.0  0.81110  0.91620  0.10520  1.0000 0.1211772821
H   H17       1.0  0.17070  0.08000  0.07870  1.0000 0.1211772821
H   H18       1.0  0.82930  0.92000  0.92130  1.0000 0.1211772821
H   H19       1.0  0.09340  0.21470  0.07920  1.0000 0.1211772821
H   H20       1.0  0.90660  0.78530  0.92080  1.0000 0.1211772821
H   H21       1.0  0.66240  0.25770  0.11120  1.0000 0.1287412069
H   H22       1.0  0.33760  0.74230  0.88880  1.0000 0.1287412069
H   H23       1.0  0.45430  0.10590  0.09350  1.0000 0.1287412069
H   H24       1.0  0.54570  0.89410  0.90650  1.0000 0.1287412069
H   H25       1.0  0.42020  0.10220  0.90680  1.0000 0.1287412069
H   H26       1.0  0.57980  0.89780  0.09320  1.0000 0.1287412069
H   H27       1.0  0.62710  0.24840  0.92460  1.0000 0.1398798978
H   H28       1.0  0.37290  0.75160  0.07540  1.0000 0.1398798978
H   H29       1.0  0.45320  0.64510  0.30290  1.0000 0.1211772821
H   H30       1.0  0.54680  0.35490  0.69710  1.0000 0.1211772821
H   H31       1.0  0.53220  0.51830  0.32360  1.0000 0.1287412069
H   H32       1.0  0.46780  0.48170  0.67640  1.0000 0.1287412069
H   H33       1.0  0.37340  0.31370  0.14460  1.0000 0.1211772821
H   H34       1.0  0.62660  0.68630  0.85540  1.0000 0.1211772821
H   H35       1.0  0.30040  0.44590  0.12330  1.0000 0.1211772821
H   H36       1.0  0.69960  0.55410  0.87670  1.0000 0.1211772821
H   H37       1.0  0.13580  0.92100  0.17420  1.0000 0.1287412069
H   H38       1.0  0.86420  0.07900  0.82580  1.0000 0.1287412069
H   H39       1.0  0.32400  0.07980  0.16740  1.0000 0.1211772821
H   H40       1.0  0.67600  0.92020  0.83260  1.0000 0.1211772821
H   H41       1.0  0.37760  0.23950  0.35090  1.0000 0.1211772821
H   H42       1.0  0.62240  0.76050  0.64910  1.0000 0.1211772821
H   H43       1.0  0.18040  0.08550  0.35400  1.0000 0.1211772821
H   H44       1.0  0.81960  0.91450  0.64600  1.0000 0.1211772821
H   H45       1.0  0.22390  0.31470  0.39640  1.0000 0.1120905665
H   H46       1.0  0.77610  0.68530  0.60360  1.0000 0.1120905665
H   H47       1.0  0.36070  0.51250  0.38840  1.0000 0.1211772821
H   H48       1.0  0.63930  0.48750  0.61160  1.0000 0.1211772821
H   H49       1.0  0.42700  0.62760  0.57800  1.0000 0.1287412069
H   H50       1.0  0.57300  0.37240  0.42200  1.0000 0.1287412069
H   H51       1.0  0.28950  0.43050  0.58580  1.0000 0.1287412069
H   H52       1.0  0.71050  0.56950  0.41420  1.0000 0.1287412069
H   H53       1.0  0.30380  0.93700  0.56590  1.0000 0.1211772821
H   H54       1.0  0.69620  0.06300  0.43410  1.0000 0.1211772821
H   H55       1.0  0.44090  0.86030  0.56940  1.0000 0.1287412069
H   H56       1.0  0.55910  0.13970  0.43060  1.0000 0.1287412069
H   H57       1.0  0.37080  0.77360  0.37790  1.0000 0.1287412069
H   H58       1.0  0.62920  0.22640  0.62210  1.0000 0.1287412069
H   H59       1.0  0.23220  0.85050  0.37440  1.0000 0.1287412069
H   H60       1.0  0.76780  0.14950  0.62560  1.0000 0.1287412069
H   H61       1.0  0.93790  0.28260  0.14030  1.0000 0.1120905665
H   H62       1.0  0.06210  0.71740  0.85970  1.0000 0.1120905665
H   H63       1.0  0.19180  0.32430  0.27560  1.0000 0.1287412069
H   H64       1.0  0.80820  0.67570  0.72440  1.0000 0.1287412069
H   H65       1.0  0.09710  0.34320  0.31200  1.0000 0.1287412069
H   H66       1.0  0.90290  0.65680  0.68800  1.0000 0.1287412069
H   H67       1.0  0.17220  0.43850  0.27180  1.0000 0.1398798978
H   H68       1.0  0.82780  0.56150  0.72820  1.0000 0.1398798978
H   H69       1.0  0.03900  0.12580  0.20670  1.0000 0.1398798978
H   H70       1.0  0.96100  0.87420  0.79330  1.0000 0.1398798978
H   H71       1.0  0.91210  0.11020  0.17120  1.0000 0.1398798978
H   H72       1.0  0.08790  0.88980  0.82880  1.0000 0.1398798978
H   H73       1.0  0.94020  0.12610  0.24630  1.0000 0.1287412069
H   H74       1.0  0.05980  0.87390  0.75370  1.0000 0.1287412069
C   C1        1.0  0.05100  0.32040  0.99130  1.0000 0.6512973235
C   C2        1.0  0.94900  0.67960  0.00870  1.0000 0.6512973235
C   C3        1.0  0.09230  0.22580  0.98830  1.0000 -0.0113724958
C   C4        1.0  0.90770  0.77420  0.01170  1.0000 -0.0113724958
C   C5        1.0  0.11860  0.18600  0.93290  1.0000 -0.0800834822
C   C6        1.0  0.88140  0.81400  0.06710  1.0000 -0.0800834822
C   C7        1.0  0.16870  0.10990  0.93240  1.0000 -0.1097148022
C   C8        1.0  0.83130  0.89010  0.06760  1.0000 -0.1097148022
C   C9        1.0  0.18890  0.07240  0.98590  1.0000 -0.0800834822
C   C10       1.0  0.81110  0.92760  0.01410  1.0000 -0.0800834822
C   C11       1.0  0.15910  0.10840  0.04200  1.0000 -0.1097148022
C   C12       1.0  0.84090  0.89160  0.95800  1.0000 -0.1097148022
C   C13       1.0  0.11220  0.18700  0.04160  1.0000 -0.0997688901
C   C14       1.0  0.88780  0.81300  0.95840  1.0000 -0.0997688901
C   C15       1.0  0.79650  0.36440  0.03130  1.0000 0.6512973235
C   C16       1.0  0.20350  0.63560  0.96870  1.0000 0.6512973235
C   C17       1.0  0.66380  0.26900  0.01940  1.0000 -0.0177812508
C   C18       1.0  0.33620  0.73100  0.98060  1.0000 -0.0177812508
C   C19       1.0  0.61310  0.22600  0.06960  1.0000 -0.0702418262
C   C20       1.0  0.38690  0.77400  0.93040  1.0000 -0.0702418262
C   C21       1.0  0.48910  0.13580  0.05930  1.0000 -0.0997688901
C   C22       1.0  0.51090  0.86420  0.94070  1.0000 -0.0997688901
C   C23       1.0  0.41930  0.09160  0.99950  1.0000 -0.0905809528
C   C24       1.0  0.58070  0.90840  0.00050  1.0000 -0.0905809528
C   C25       1.0  0.46960  0.13360  0.94840  1.0000 -0.1097148022
C   C26       1.0  0.53040  0.86640  0.05160  1.0000 -0.1097148022
C   C27       1.0  0.59180  0.22090  0.95920  1.0000 -0.0702418262
C   C28       1.0  0.40820  0.77910  0.04080  1.0000 -0.0702418262
C   C29       1.0  0.30690  0.63340  0.19990  1.0000 0.594100607
C   C30       1.0  0.69310  0.36660  0.80010  1.0000 0.594100607
C   C31       1.0  0.36600  0.55790  0.21130  1.0000 -0.0177812508
C   C32       1.0  0.63400  0.44210  0.78870  1.0000 -0.0177812508
C   C33       1.0  0.43700  0.57830  0.27060  1.0000 -0.0905809528
C   C34       1.0  0.56300  0.42170  0.72940  1.0000 -0.0905809528
C   C35       1.0  0.48400  0.50310  0.28320  1.0000 -0.1097148022
C   C36       1.0  0.51600  0.49690  0.71680  1.0000 -0.1097148022
C   C37       1.0  0.45980  0.40440  0.23550  1.0000 -0.0800834822
C   C38       1.0  0.54020  0.59560  0.76450  1.0000 -0.0800834822
C   C39       1.0  0.39050  0.38150  0.17650  1.0000 -0.1097148022
C   C40       1.0  0.60950  0.61850  0.82350  1.0000 -0.1097148022
C   C41       1.0  0.34570  0.45970  0.16430  1.0000 -0.0905809528
C   C42       1.0  0.65430  0.54030  0.83570  1.0000 -0.0905809528
C   C43       1.0  0.01190  0.88890  0.26750  1.0000 0.611555112
C   C44       1.0  0.98810  0.11110  0.73250  1.0000 0.611555112
C   C45       1.0  0.13950  0.98850  0.26480  1.0000 -0.0177812508
C   C46       1.0  0.86050  0.01150  0.73520  1.0000 -0.0177812508
C   C47       1.0  0.18360  0.98700  0.20960  1.0000 -0.0905809528
C   C48       1.0  0.81640  0.01300  0.79040  1.0000 -0.0905809528
C   C49       1.0  0.29580  0.08020  0.20580  1.0000 -0.1097148022
C   C50       1.0  0.70420  0.91980  0.79420  1.0000 -0.1097148022
C   C51       1.0  0.36810  0.17550  0.25860  1.0000 -0.0905809528
C   C52       1.0  0.63190  0.82450  0.74140  1.0000 -0.0905809528
C   C53       1.0  0.32740  0.17660  0.31440  1.0000 -0.0997688901
C   C54       1.0  0.67260  0.82340  0.68560  1.0000 -0.0997688901
C   C55       1.0  0.21080  0.08340  0.31650  1.0000 -0.0905809528
C   C56       1.0  0.78920  0.91660  0.68350  1.0000 -0.0905809528
C   C57       1.0  0.15230  0.22350  0.49580  1.0000 0.6512973235
C   C58       1.0  0.84770  0.77650  0.50420  1.0000 0.6512973235
C   C59       1.0  0.24300  0.35260  0.49130  1.0000 -0.0113724958
C   C60       1.0  0.75700  0.64740  0.50870  1.0000 -0.0113724958
C   C61       1.0  0.26500  0.37810  0.43340  1.0000 -0.0997688901
C   C62       1.0  0.73500  0.62190  0.56660  1.0000 -0.0997688901
C   C63       1.0  0.34640  0.49550  0.42850  1.0000 -0.1097148022
C   C64       1.0  0.65360  0.50450  0.57150  1.0000 -0.1097148022
C   C65       1.0  0.40620  0.58680  0.48260  1.0000 -0.0800834822
C   C66       1.0  0.59380  0.41320  0.51740  1.0000 -0.0800834822
C   C67       1.0  0.38560  0.56370  0.54110  1.0000 -0.0997688901
C   C68       1.0  0.61440  0.43630  0.45890  1.0000 -0.0997688901
C   C69       1.0  0.30410  0.44690  0.54570  1.0000 -0.0800834822
C   C70       1.0  0.69590  0.55310  0.45430  1.0000 -0.0800834822
C   C71       1.0  0.15530  0.93500  0.46770  1.0000 0.6588686829
C   C72       1.0  0.84470  0.06500  0.53230  1.0000 0.6588686829
C   C73       1.0  0.25290  0.89690  0.46990  1.0000 -0.0113724958
C   C74       1.0  0.74710  0.10310  0.53010  1.0000 -0.0113724958
C   C75       1.0  0.31590  0.90240  0.52780  1.0000 -0.0905809528
C   C76       1.0  0.68410  0.09760  0.47220  1.0000 -0.0905809528
C   C77       1.0  0.39710  0.85680  0.53000  1.0000 -0.0997688901
C   C78       1.0  0.60290  0.14320  0.47000  1.0000 -0.0997688901
C   C79       1.0  0.41280  0.80670  0.47400  1.0000 -0.0800834822
C   C80       1.0  0.58720  0.19330  0.52600  1.0000 -0.0800834822
C   C81       1.0  0.35540  0.80500  0.41570  1.0000 -0.0997688901
C   C82       1.0  0.64460  0.19500  0.58430  1.0000 -0.0997688901
C   C83       1.0  0.27340  0.85090  0.41390  1.0000 -0.0800834822
C   C84       1.0  0.72660  0.14910  0.58610  1.0000 -0.0800834822
C   C85       1.0  0.00430  0.33400  0.17510  1.0000 0.328277496
C   C86       1.0  0.99570  0.66600  0.82490  1.0000 0.328277496
C   C87       1.0  0.13160  0.35250  0.27390  1.0000 -0.3309184486
C   C88       1.0  0.86840  0.64750  0.72610  1.0000 -0.3309184486
C   C89       1.0  0.97650  0.15020  0.20990  1.0000 -0.3445059831
C   C90       1.0  0.02350  0.84980  0.79010  1.0000 -0.3445059831
S   S1        1.0  0.26109  0.98173  0.98692  1.0000 0.9701374298
S   S2        1.0  0.73891  0.01827  0.01308  1.0000 0.9701374298
S   S3        1.0  0.50720  0.29960  0.25286  1.0000 0.9701374298
S   S4        1.0  0.49280  0.70040  0.74714  1.0000 0.9701374298
S   S5        1.0  0.50697  0.73810  0.47699  1.0000 0.9635695343
S   S6        1.0  0.49303  0.26190  0.52301  1.0000 0.9635695343
N   N1        1.0  0.03270  0.28000  0.21790  1.0000 0.0304976398
N   N2        1.0  0.96730  0.72000  0.78210  1.0000 0.0304976398
O   O1        1.0  0.05290  0.37020  0.04510  1.0000 -0.6699278081
O   O2        1.0  0.94710  0.62980  0.95490  1.0000 -0.6699278081
O   O3        1.0  0.02170  0.34340  0.94010  1.0000 -0.6495638067
O   O4        1.0  0.97830  0.65660  0.05990  1.0000 -0.6495638067
O   O5        1.0  0.22280  0.90520  0.92460  1.0000 -0.5226774091
O   O6        1.0  0.77720  0.09480  0.07540  1.0000 -0.5226774091
O   O7        1.0  0.24040  0.92830  0.04090  1.0000 -0.5095565194
O   O8        1.0  0.75960  0.07170  0.95910  1.0000 -0.5095565194
O   O9        1.0  0.85550  0.41180  0.08820  1.0000 -0.6607197995
O   O10       1.0  0.14450  0.58820  0.91180  1.0000 -0.6607197995
O   O11       1.0  0.84540  0.39540  0.98540  1.0000 -0.7149865503
O   O12       1.0  0.15460  0.60460  0.01460  1.0000 -0.7196244234
O   O13       1.0  0.25870  0.62080  0.14220  1.0000 -0.7196244234
O   O14       1.0  0.74130  0.37920  0.85780  1.0000 -0.7196244234
O   O15       1.0  0.30310  0.69980  0.24620  1.0000 -0.5409624452
O   O16       1.0  0.69690  0.30020  0.75380  1.0000 -0.5409624452
O   O17       1.0  0.54660  0.26050  0.19910  1.0000 -0.5095565194
O   O18       1.0  0.45340  0.73950  0.80090  1.0000 -0.5095565194
O   O19       1.0  0.58960  0.35050  0.31370  1.0000 -0.5226774091
O   O20       1.0  0.41040  0.64950  0.68630  1.0000 -0.5226774091
O   O21       1.0  0.95740  0.91730  0.30590  1.0000 -0.7196244234
O   O22       1.0  0.04260  0.08270  0.69410  1.0000 -0.7196244234
O   O23       1.0  0.96840  0.78910  0.22990  1.0000 -0.528283971
O   O24       1.0  0.03160  0.21090  0.77010  1.0000 -0.528283971
O   O25       1.0  0.09130  0.91640  0.41500  1.0000 -0.6430500621
O   O26       1.0  0.90870  0.08360  0.58500  1.0000 -0.6430500621
O   O27       1.0  0.14370  0.98100  0.51950  1.0000 -0.7304718668
O   O28       1.0  0.85630  0.01900  0.48050  1.0000 -0.7304718668
O   O29       1.0  0.60000  0.79900  0.53400  1.0000 -0.4946514243
O   O30       1.0  0.40000  0.20100  0.46600  1.0000 -0.4946514243
O   O31       1.0  0.54240  0.73070  0.41690  1.0000 -0.5226774091
O   O32       1.0  0.45760  0.26930  0.58310  1.0000 -0.5226774091
O   O33       1.0  0.09520  0.14620  0.44460  1.0000 -0.6805679077
O   O34       1.0  0.90480  0.85380  0.55540  1.0000 -0.6805679077
O   O35       1.0  0.88320  0.09090  0.35780  1.0000 -0.8137878055
O   O36       1.0  0.11680  0.90910  0.64220  1.0000 -0.8137878055
O   O37       1.0  0.14220  0.20550  0.55010  1.0000 -0.6699278081
O   O38       1.0  0.85780  0.79450  0.44990  1.0000 -0.6699278081
O   O39       1.0  0.72530  0.83640  0.35030  1.0000 -0.6946990961
O   O40       1.0  0.27470  0.16360  0.64970  1.0000 -0.6946990961
O   O41       1.0  0.05590  0.44190  0.17710  1.0000 -0.528283971
O   O42       1.0  0.94410  0.55810  0.82290  1.0000 -0.528283971
O   O43       1.0  0.09010  0.68310  0.18440  1.0000 -0.7796214694
O   O44       1.0  0.90990  0.31690  0.81560  1.0000 -0.7796214694
