# DDEC6 charges by PACMAN v1.1 (https://github.com/mtap-research/PACMAN-charge/)
data_2017[Zn][sql]2[FSR]19
_chemical_formula_sum              "Zn4 H64 C96 N8 O16"
_cell_length_a       10.715
_cell_length_b       19.788
_cell_length_c       11.652
_cell_angle_alpha    90
_cell_angle_beta     90.03
_cell_angle_gamma    90

_symmetry_space_group_name_H-M    "P 1"
_symmetry_Int_Tables_number       1

loop_
  _symmetry_equiv_pos_as_xyz
  'x, y, z'

loop_
  _atom_site_type_symbol
  _atom_site_label
  _atom_site_symmetry_multiplicity
  _atom_site_fract_x
  _atom_site_fract_y
  _atom_site_fract_z
  _atom_site_occupancy
  _atom_site_charge
Zn  Zn1       1.0  0.43737  0.14615  0.04875  1.0000 0.7218188199
Zn  Zn2       1.0  0.06263  0.64615  0.95125  1.0000 0.7218188199
Zn  Zn3       1.0  0.56263  0.85385  0.95125  1.0000 0.7218188199
Zn  Zn4       1.0  0.93737  0.35385  0.04875  1.0000 0.7218188199
H   H1        1.0  0.54556  0.18479  0.63720  1.0000 0.1369734409
H   H2        1.0  0.59519  0.03884  0.94038  1.0000 0.118368255
H   H3        1.0  0.49316  0.12673  0.48063  1.0000 0.118368255
H   H4        1.0  0.90045  0.95980  0.73770  1.0000 0.118368255
H   H5        1.0  0.18556  0.98444  0.95954  1.0000 0.118368255
H   H6        1.0  0.49216  0.21602  0.82172  1.0000 0.111812265
H   H7        1.0  0.68670  0.01511  0.25216  1.0000 0.111812265
H   H8        1.0  0.04538  0.14551  0.78912  1.0000 0.118368255
H   H9        1.0  0.65218  0.00305  0.76055  1.0000 0.1369734409
H   H10       1.0  0.88320  0.85940  0.80217  1.0000 0.1465346816
H   H11       1.0  0.76045  0.99918  0.59204  1.0000 0.111812265
H   H12       1.0  0.21698  0.88297  0.95024  1.0000 0.1329926329
H   H13       1.0  0.79888  0.96515  0.40313  1.0000 0.111812265
H   H14       1.0  0.89860  0.74561  0.84096  1.0000 0.111812265
H   H15       1.0  0.21670  0.77124  0.99611  1.0000 0.111812265
H   H16       1.0  0.90103  0.07503  0.70060  1.0000 0.111812265
H   H17       1.0  0.95444  0.68479  0.36280  1.0000 0.1369734409
H   H18       1.0  0.90481  0.53884  0.05962  1.0000 0.118368255
H   H19       1.0  0.00684  0.62673  0.51937  1.0000 0.118368255
H   H20       1.0  0.59955  0.45980  0.26230  1.0000 0.118368255
H   H21       1.0  0.31444  0.48444  0.04046  1.0000 0.118368255
H   H22       1.0  0.00784  0.71602  0.17828  1.0000 0.111812265
H   H23       1.0  0.81330  0.51511  0.74784  1.0000 0.111812265
H   H24       1.0  0.45462  0.64551  0.21088  1.0000 0.118368255
H   H25       1.0  0.84782  0.50305  0.23945  1.0000 0.1369734409
H   H26       1.0  0.61680  0.35940  0.19783  1.0000 0.1465346816
H   H27       1.0  0.73955  0.49918  0.40796  1.0000 0.111812265
H   H28       1.0  0.28302  0.38297  0.04976  1.0000 0.1329926329
H   H29       1.0  0.70112  0.46515  0.59687  1.0000 0.111812265
H   H30       1.0  0.60140  0.24561  0.15904  1.0000 0.111812265
H   H31       1.0  0.28330  0.27124  0.00389  1.0000 0.111812265
H   H32       1.0  0.59897  0.57503  0.29940  1.0000 0.111812265
H   H33       1.0  0.45444  0.81521  0.36280  1.0000 0.1369734409
H   H34       1.0  0.40481  0.96116  0.05962  1.0000 0.118368255
H   H35       1.0  0.50684  0.87327  0.51937  1.0000 0.118368255
H   H36       1.0  0.09955  0.04020  0.26230  1.0000 0.118368255
H   H37       1.0  0.81444  0.01556  0.04046  1.0000 0.118368255
H   H38       1.0  0.50784  0.78398  0.17828  1.0000 0.111812265
H   H39       1.0  0.31330  0.98489  0.74784  1.0000 0.111812265
H   H40       1.0  0.95462  0.85449  0.21088  1.0000 0.118368255
H   H41       1.0  0.34782  0.99695  0.23945  1.0000 0.1369734409
H   H42       1.0  0.11680  0.14060  0.19783  1.0000 0.1465346816
H   H43       1.0  0.23955  0.00082  0.40796  1.0000 0.111812265
H   H44       1.0  0.78302  0.11703  0.04976  1.0000 0.1329926329
H   H45       1.0  0.20112  0.03485  0.59687  1.0000 0.111812265
H   H46       1.0  0.10140  0.25439  0.15904  1.0000 0.111812265
H   H47       1.0  0.78330  0.22876  0.00389  1.0000 0.111812265
H   H48       1.0  0.09897  0.92497  0.29940  1.0000 0.111812265
H   H49       1.0  0.04556  0.31521  0.63720  1.0000 0.1369734409
H   H50       1.0  0.09519  0.46116  0.94038  1.0000 0.118368255
H   H51       1.0  0.99316  0.37327  0.48063  1.0000 0.118368255
H   H52       1.0  0.40045  0.54020  0.73770  1.0000 0.118368255
H   H53       1.0  0.68556  0.51556  0.95954  1.0000 0.118368255
H   H54       1.0  0.99216  0.28398  0.82172  1.0000 0.111812265
H   H55       1.0  0.18670  0.48489  0.25216  1.0000 0.111812265
H   H56       1.0  0.54538  0.35449  0.78912  1.0000 0.118368255
H   H57       1.0  0.15218  0.49695  0.76055  1.0000 0.1369734409
H   H58       1.0  0.38320  0.64060  0.80217  1.0000 0.1465346816
H   H59       1.0  0.26045  0.50082  0.59204  1.0000 0.111812265
H   H60       1.0  0.71698  0.61703  0.95024  1.0000 0.1329926329
H   H61       1.0  0.29888  0.53485  0.40313  1.0000 0.111812265
H   H62       1.0  0.39860  0.75439  0.84096  1.0000 0.111812265
H   H63       1.0  0.71670  0.72876  0.99611  1.0000 0.111812265
H   H64       1.0  0.40103  0.42497  0.70060  1.0000 0.111812265
C   C1        1.0  0.55520  0.15330  0.69800  1.0000 -0.1900689066
C   C2        1.0  0.58390  0.06880  0.87750  1.0000 0.0878666865
C   C3        1.0  0.50400  0.10700  0.25680  1.0000 0.5392650667
C   C4        1.0  0.55630  0.09430  0.46490  1.0000 -0.150425866
C   C5        1.0  0.22730  0.11570  0.93660  1.0000 0.5392650667
C   C6        1.0  0.62470  0.06700  0.55590  1.0000 0.057339553
C   C7        1.0  0.13070  0.07170  0.88290  1.0000 -0.0186307875
C   C8        1.0  0.60040  0.08960  0.67510  1.0000 0.118368255
C   C9        1.0  0.95950  0.98800  0.77510  1.0000 -0.1354662774
C   C10       1.0  0.57850  0.07540  0.35270  1.0000 -0.0130827201
C   C11       1.0  0.04430  0.95990  0.85150  1.0000 0.073037565
C   C12       1.0  0.12820  0.00270  0.90560  1.0000 -0.150425866
C   C13       1.0  0.52370  0.17180  0.80880  1.0000 0.0878666865
C   C14       1.0  0.67000  0.02780  0.32930  1.0000 -0.1012055126
C   C15       1.0  0.04510  0.09850  0.80550  1.0000 -0.1144180817
C   C16       1.0  0.61750  0.04690  0.77040  1.0000 -0.1900689066
C   C17       1.0  0.95430  0.84250  0.84160  1.0000 -0.1752216218
C   C18       1.0  0.71400  0.01890  0.53110  1.0000 -0.1332160679
C   C19       1.0  0.14730  0.85600  0.92920  1.0000 -0.1900689066
C   C20       1.0  0.73750  0.99860  0.41870  1.0000 -0.0925241408
C   C21       1.0  0.96390  0.77450  0.86600  1.0000 0.0770792405
C   C22       1.0  0.04810  0.88560  0.87460  1.0000 0.118368255
C   C23       1.0  0.14810  0.78890  0.95390  1.0000 0.073037565
C   C24       1.0  0.96000  0.05660  0.75280  1.0000 -0.1012055126
C   C25       1.0  0.94480  0.65330  0.30200  1.0000 -0.1900689066
C   C26       1.0  0.91610  0.56880  0.12250  1.0000 0.0878666865
C   C27       1.0  0.99600  0.60700  0.74320  1.0000 0.5392650667
C   C28       1.0  0.94370  0.59430  0.53510  1.0000 -0.150425866
C   C29       1.0  0.27270  0.61570  0.06340  1.0000 0.5392650667
C   C30       1.0  0.87530  0.56700  0.44410  1.0000 0.057339553
C   C31       1.0  0.36930  0.57170  0.11710  1.0000 -0.0186307875
C   C32       1.0  0.89960  0.58960  0.32490  1.0000 0.118368255
C   C33       1.0  0.54050  0.48800  0.22490  1.0000 -0.1354662774
C   C34       1.0  0.92150  0.57540  0.64730  1.0000 -0.0130827201
C   C35       1.0  0.45570  0.45990  0.14850  1.0000 0.073037565
C   C36       1.0  0.37180  0.50270  0.09440  1.0000 -0.150425866
C   C37       1.0  0.97630  0.67180  0.19120  1.0000 0.0878666865
C   C38       1.0  0.83000  0.52780  0.67070  1.0000 -0.1012055126
C   C39       1.0  0.45490  0.59850  0.19450  1.0000 -0.1144180817
C   C40       1.0  0.88250  0.54690  0.22960  1.0000 -0.1900689066
C   C41       1.0  0.54570  0.34250  0.15840  1.0000 -0.1742874531
C   C42       1.0  0.78600  0.51890  0.46890  1.0000 -0.1332160679
C   C43       1.0  0.35270  0.35600  0.07080  1.0000 -0.1900689066
C   C44       1.0  0.76250  0.49860  0.58130  1.0000 -0.0925241408
C   C45       1.0  0.53610  0.27450  0.13400  1.0000 0.0770792405
C   C46       1.0  0.45190  0.38560  0.12540  1.0000 0.118368255
C   C47       1.0  0.35190  0.28890  0.04610  1.0000 0.073037565
C   C48       1.0  0.54000  0.55660  0.24720  1.0000 -0.1012055126
C   C49       1.0  0.44480  0.84670  0.30200  1.0000 -0.1900689066
C   C50       1.0  0.41610  0.93120  0.12250  1.0000 0.0878666865
C   C51       1.0  0.49600  0.89300  0.74320  1.0000 0.5392650667
C   C52       1.0  0.44370  0.90570  0.53510  1.0000 -0.150425866
C   C53       1.0  0.77270  0.88430  0.06340  1.0000 0.5392650667
C   C54       1.0  0.37530  0.93300  0.44410  1.0000 0.057339553
C   C55       1.0  0.86930  0.92830  0.11710  1.0000 -0.0186307875
C   C56       1.0  0.39960  0.91040  0.32490  1.0000 0.118368255
C   C57       1.0  0.04050  0.01200  0.22490  1.0000 -0.1354662774
C   C58       1.0  0.42150  0.92460  0.64730  1.0000 -0.0130827201
C   C59       1.0  0.95570  0.04010  0.14850  1.0000 0.073037565
C   C60       1.0  0.87180  0.99730  0.09440  1.0000 -0.150425866
C   C61       1.0  0.47630  0.82820  0.19120  1.0000 0.0878666865
C   C62       1.0  0.33000  0.97220  0.67070  1.0000 -0.1012055126
C   C63       1.0  0.95490  0.90150  0.19450  1.0000 -0.1144180817
C   C64       1.0  0.38250  0.95310  0.22960  1.0000 -0.1900689066
C   C65       1.0  0.04570  0.15750  0.15840  1.0000 -0.1742874531
C   C66       1.0  0.28600  0.98110  0.46890  1.0000 -0.1332160679
C   C67       1.0  0.85270  0.14400  0.07080  1.0000 -0.1900689066
C   C68       1.0  0.26250  0.00140  0.58130  1.0000 -0.0925241408
C   C69       1.0  0.03610  0.22550  0.13400  1.0000 0.0770792405
C   C70       1.0  0.95190  0.11440  0.12540  1.0000 0.118368255
C   C71       1.0  0.85190  0.21110  0.04610  1.0000 0.073037565
C   C72       1.0  0.04000  0.94340  0.24720  1.0000 -0.1012055126
C   C73       1.0  0.05520  0.34670  0.69800  1.0000 -0.1900689066
C   C74       1.0  0.08390  0.43120  0.87750  1.0000 0.0878666865
C   C75       1.0  0.00400  0.39300  0.25680  1.0000 0.5392650667
C   C76       1.0  0.05630  0.40570  0.46490  1.0000 -0.150425866
C   C77       1.0  0.72730  0.38430  0.93660  1.0000 0.5392650667
C   C78       1.0  0.12470  0.43300  0.55590  1.0000 0.057339553
C   C79       1.0  0.63070  0.42830  0.88290  1.0000 -0.0186307875
C   C80       1.0  0.10040  0.41040  0.67510  1.0000 0.118368255
C   C81       1.0  0.45950  0.51200  0.77510  1.0000 -0.1354662774
C   C82       1.0  0.07850  0.42460  0.35270  1.0000 -0.0130827201
C   C83       1.0  0.54430  0.54010  0.85150  1.0000 0.073037565
C   C84       1.0  0.62820  0.49730  0.90560  1.0000 -0.150425866
C   C85       1.0  0.02370  0.32820  0.80880  1.0000 0.0878666865
C   C86       1.0  0.17000  0.47220  0.32930  1.0000 -0.1012055126
C   C87       1.0  0.54510  0.40150  0.80550  1.0000 -0.1144180817
C   C88       1.0  0.11750  0.45310  0.77040  1.0000 -0.1900689066
C   C89       1.0  0.45430  0.65750  0.84160  1.0000 -0.1742874531
C   C90       1.0  0.21400  0.48110  0.53110  1.0000 -0.1332160679
C   C91       1.0  0.64730  0.64400  0.92920  1.0000 -0.1900689066
C   C92       1.0  0.23750  0.50140  0.41870  1.0000 -0.0925241408
C   C93       1.0  0.46390  0.72550  0.86600  1.0000 0.0770792405
C   C94       1.0  0.54810  0.61440  0.87460  1.0000 0.118368255
C   C95       1.0  0.64810  0.71110  0.95390  1.0000 0.073037565
C   C96       1.0  0.46000  0.44340  0.75280  1.0000 -0.1012055126
N   N1        1.0  0.53600  0.12994  0.89860  1.0000 -0.2385167775
N   N2        1.0  0.05900  0.74698  0.92260  1.0000 -0.2209190575
N   N3        1.0  0.96400  0.62994  0.10140  1.0000 -0.2385167775
N   N4        1.0  0.44100  0.24698  0.07740  1.0000 -0.2209190575
N   N5        1.0  0.46400  0.87006  0.10140  1.0000 -0.2385167775
N   N6        1.0  0.94100  0.25302  0.07740  1.0000 -0.2209190575
N   N7        1.0  0.03600  0.37006  0.89860  1.0000 -0.2385167775
N   N8        1.0  0.55900  0.75302  0.92260  1.0000 -0.2209190575
O   O1        1.0  0.55160  0.10097  0.15660  1.0000 -0.5520443318
O   O2        1.0  0.40370  0.13487  0.27690  1.0000 -0.5425899026
O   O3        1.0  0.24240  0.17436  0.90190  1.0000 -0.5693255661
O   O4        1.0  0.29320  0.08935  0.01740  1.0000 -0.5425899026
O   O5        1.0  0.94840  0.60097  0.84340  1.0000 -0.5520443318
O   O6        1.0  0.09630  0.63487  0.72310  1.0000 -0.5425899026
O   O7        1.0  0.25760  0.67436  0.09810  1.0000 -0.5693255661
O   O8        1.0  0.20680  0.58935  0.98260  1.0000 -0.5425899026
O   O9        1.0  0.44840  0.89903  0.84340  1.0000 -0.5520443318
O   O10       1.0  0.59630  0.86513  0.72310  1.0000 -0.5425899026
O   O11       1.0  0.75760  0.82564  0.09810  1.0000 -0.5693255661
O   O12       1.0  0.70680  0.91065  0.98260  1.0000 -0.5425899026
O   O13       1.0  0.05160  0.39903  0.15660  1.0000 -0.5520443318
O   O14       1.0  0.90370  0.36513  0.27690  1.0000 -0.5425899026
O   O15       1.0  0.74240  0.32564  0.90190  1.0000 -0.5693255661
O   O16       1.0  0.79320  0.41065  0.01740  1.0000 -0.5425899026
