# DDEC6 charges by PACMAN v1.1 (https://github.com/mtap-research/PACMAN-charge/)
data_2017[Ag][hcb]2[FSR]12
_chemical_formula_sum              "Ag6 H126 C168 S6 N18 O54 F18"
_cell_length_a       16.748
_cell_length_b       17.5894
_cell_length_c       20.0526
_cell_angle_alpha    96.267
_cell_angle_beta     95.7
_cell_angle_gamma    117.695

_symmetry_space_group_name_H-M    "P 1"
_symmetry_Int_Tables_number       1

loop_
  _symmetry_equiv_pos_as_xyz
  'x, y, z'

loop_
  _atom_site_type_symbol
  _atom_site_label
  _atom_site_symmetry_multiplicity
  _atom_site_fract_x
  _atom_site_fract_y
  _atom_site_fract_z
  _atom_site_occupancy
  _atom_site_charge
Ag  Ag1       1.0  0.68661  0.88722  0.77164  1.0000 0.3013007718
Ag  Ag2       1.0  0.32488  0.55765  0.89896  1.0000 0.3077616322
Ag  Ag3       1.0  0.27621  0.22462  0.18171  1.0000 0.2932774154
Ag  Ag4       1.0  0.71852  0.57840  0.09797  1.0000 0.3013007718
Ag  Ag5       1.0  0.26034  0.86791  0.55356  1.0000 0.2932774154
Ag  Ag6       1.0  0.70892  0.21213  0.46607  1.0000 0.2932774154
H   H1        1.0  0.78360  0.64460  0.77480  1.0000 0.1390469558
H   H2        1.0  0.80250  0.78610  0.77510  1.0000 0.110102443
H   H3        1.0  0.53510  0.69020  0.73300  1.0000 0.110102443
H   H4        1.0  0.51130  0.55170  0.73000  1.0000 0.1390469558
H   H5        1.0  0.56510  0.34110  0.78190  1.0000 0.1011271546
H   H6        1.0  0.54670  0.32410  0.70020  1.0000 0.110102443
H   H7        1.0  0.02410  0.12570  0.81320  1.0000 0.1390469558
H   H8        1.0  0.89160  0.01650  0.83230  1.0000 0.1196161954
H   H9        1.0  0.74770  0.03740  0.67880  1.0000 0.110102443
H   H10       1.0  0.86880  0.15590  0.65890  1.0000 0.1470532594
H   H11       1.0  0.23180  0.35120  0.76240  1.0000 0.110102443
H   H12       1.0  0.19860  0.30860  0.68310  1.0000 0.1196161954
H   H13       1.0  0.33890  0.80080  0.73380  1.0000 0.1390469558
H   H14       1.0  0.46710  0.78420  0.75610  1.0000 0.110102443
H   H15       1.0  0.62830  0.03540  0.76530  1.0000 0.1011271546
H   H16       1.0  0.50290  0.05970  0.75580  1.0000 0.1297888203
H   H17       1.0  0.24400  0.03270  0.78670  1.0000 0.1196161954
H   H18       1.0  0.22310  0.01020  0.70500  1.0000 0.110102443
H   H19       1.0  0.44150  0.17630  0.74550  1.0000 0.1196161954
H   H20       1.0  0.38760  0.37660  0.73550  1.0000 0.1390469558
H   H21       1.0  0.18110  0.13220  0.73560  1.0000 0.1196161954
H   H22       1.0  0.49940  0.89420  0.92760  1.0000 0.1297888203
H   H23       1.0  0.47590  0.75330  0.93020  1.0000 0.110102443
H   H24       1.0  0.21050  0.66160  0.89330  1.0000 0.1196161954
H   H25       1.0  0.22410  0.79370  0.89330  1.0000 0.1470532594
H   H26       1.0  0.45470  0.11920  0.94950  1.0000 0.110102443
H   H27       1.0  0.44270  0.09550  0.86820  1.0000 0.1011271546
H   H28       1.0  0.66990  0.64400  0.92310  1.0000 0.1390469558
H   H29       1.0  0.54210  0.66050  0.91320  1.0000 0.110102443
H   H30       1.0  0.38210  0.40890  0.89570  1.0000 0.1011271546
H   H31       1.0  0.50420  0.38380  0.90760  1.0000 0.1297888203
H   H32       1.0  0.78500  0.43040  0.94460  1.0000 0.110102443
H   H33       1.0  0.75720  0.40300  0.86330  1.0000 0.1196161954
H   H34       1.0  0.13310  0.27520  0.00220  1.0000 0.1390469558
H   H35       1.0  0.26450  0.39810  0.98340  1.0000 0.1011271546
H   H36       1.0  0.11670  0.43470  0.83770  1.0000 0.1196161954
H   H37       1.0  0.98210  0.31740  0.85980  1.0000 0.1297888203
H   H38       1.0  0.80970  0.14170  0.98380  1.0000 0.1196161954
H   H39       1.0  0.77820  0.09110  0.90630  1.0000 0.110102443
H   H40       1.0  0.82490  0.30850  0.92290  1.0000 0.1297888203
H   H41       1.0  0.56520  0.26360  0.90590  1.0000 0.1297888203
H   H42       1.0  0.62170  0.06690  0.92420  1.0000 0.1196161954
H   H43       1.0  0.45770  0.56520  0.24190  1.0000 0.1390469558
H   H44       1.0  0.43320  0.42250  0.22370  1.0000 0.110102443
H   H45       1.0  0.16870  0.33410  0.17450  1.0000 0.110102443
H   H46       1.0  0.18660  0.47360  0.19470  1.0000 0.1390469558
H   H47       1.0  0.42370  0.78380  0.29710  1.0000 0.1196161954
H   H48       1.0  0.40540  0.78380  0.21710  1.0000 0.1011271546
H   H49       1.0  0.61830  0.31470  0.24650  1.0000 0.1390469558
H   H50       1.0  0.48870  0.32510  0.21280  1.0000 0.110102443
H   H51       1.0  0.32990  0.08230  0.22360  1.0000 0.110102443
H   H52       1.0  0.45590  0.06170  0.24860  1.0000 0.1297888203
H   H53       1.0  0.73050  0.09970  0.23610  1.0000 0.1196161954
H   H54       1.0  0.73220  0.10790  0.31670  1.0000 0.1011271546
H   H55       1.0  0.94250  0.97940  0.08910  1.0000 0.1390469558
H   H56       1.0  0.08260  0.09220  0.08510  1.0000 0.1196161954
H   H57       1.0  0.15290  0.12210  0.28180  1.0000 0.110102443
H   H58       1.0  0.00910  0.01480  0.29120  1.0000 0.1390469558
H   H59       1.0  0.77170  0.81310  0.30630  1.0000 0.1297888203
H   H60       1.0  0.74550  0.78120  0.22560  1.0000 0.1196161954
H   H61       1.0  0.78890  0.99580  0.26930  1.0000 0.1196161954
H   H62       1.0  0.58780  0.74480  0.25580  1.0000 0.1297888203
H   H63       1.0  0.52360  0.94120  0.25890  1.0000 0.1196161954
H   H64       1.0  0.56360  0.37830  0.06590  1.0000 0.110102443
H   H65       1.0  0.54330  0.24070  0.07660  1.0000 0.1390469558
H   H66       1.0  0.81700  0.33840  0.10610  1.0000 0.1390469558
H   H67       1.0  0.83200  0.47770  0.09670  1.0000 0.1011271546
H   H68       1.0  0.59670  0.03500  0.13160  1.0000 0.110102443
H   H69       1.0  0.58470  0.02180  0.05010  1.0000 0.110102443
H   H70       1.0  0.54090  0.75580  0.08410  1.0000 0.1297888203
H   H71       1.0  0.66470  0.73100  0.08900  1.0000 0.110102443
H   H72       1.0  0.50290  0.47820  0.08180  1.0000 0.110102443
H   H73       1.0  0.37670  0.49600  0.06980  1.0000 0.1297888203
H   H74       1.0  0.27600  0.72650  0.12470  1.0000 0.1196161954
H   H75       1.0  0.25640  0.70440  0.04290  1.0000 0.110102443
H   H76       1.0  0.98340  0.83020  0.01220  1.0000 0.1390469558
H   H77       1.0  0.83690  0.71330  0.00790  1.0000 0.1196161954
H   H78       1.0  0.89990  0.71050  0.20240  1.0000 0.1196161954
H   H79       1.0  0.04120  0.82810  0.21040  1.0000 0.1390469558
H   H80       1.0  0.25710  0.03870  0.08680  1.0000 0.110102443
H   H81       1.0  0.24430  0.00330  0.00740  1.0000 0.1196161954
H   H82       1.0  0.21400  0.82480  0.06110  1.0000 0.1196161954
H   H83       1.0  0.47580  0.87400  0.09800  1.0000 0.1196161954
H   H84       1.0  0.41840  0.06930  0.07210  1.0000 0.1390469558
H   H85       1.0  0.43510  0.20420  0.57650  1.0000 0.1390469558
H   H86       1.0  0.41240  0.06300  0.57350  1.0000 0.110102443
H   H87       1.0  0.14930  0.97370  0.55920  1.0000 0.110102443
H   H88       1.0  0.16130  0.10560  0.55470  1.0000 0.1470532594
H   H89       1.0  0.39530  0.42770  0.60830  1.0000 0.1196161954
H   H90       1.0  0.38230  0.41450  0.52670  1.0000 0.1011271546
H   H91       1.0  0.43800  0.69130  0.56650  1.0000 0.1297888203
H   H92       1.0  0.31340  0.71630  0.55710  1.0000 0.110102443
H   H93       1.0  0.47610  0.96830  0.58290  1.0000 0.110102443
H   H94       1.0  0.60330  0.95160  0.59540  1.0000 0.1297888203
H   H95       1.0  0.71690  0.74150  0.62250  1.0000 0.110102443
H   H96       1.0  0.70650  0.72760  0.54110  1.0000 0.1196161954
H   H97       1.0  0.97990  0.64330  0.64240  1.0000 0.1390469558
H   H98       1.0  0.12220  0.75750  0.64580  1.0000 0.110102443
H   H99       1.0  0.09180  0.72560  0.44650  1.0000 0.1196161954
H   H100      1.0  0.94280  0.60800  0.43840  1.0000 0.1297888203
H   H101      1.0  0.73540  0.43610  0.64170  1.0000 0.1196161954
H   H102      1.0  0.71890  0.40690  0.56090  1.0000 0.110102443
H   H103      1.0  0.76580  0.62070  0.58970  1.0000 0.1196161954
H   H104      1.0  0.50400  0.57240  0.55970  1.0000 0.1297888203
H   H105      1.0  0.55860  0.37480  0.57920  1.0000 0.1297888203
H   H106      1.0  0.03650  0.46760  0.56310  1.0000 0.1297888203
H   H107      1.0  0.89230  0.35220  0.56390  1.0000 0.1196161954
H   H108      1.0  0.82640  0.31730  0.36520  1.0000 0.110102443
H   H109      1.0  0.97190  0.43100  0.35850  1.0000 0.1390469558
H   H110      1.0  0.24060  0.65840  0.42630  1.0000 0.110102443
H   H111      1.0  0.21570  0.62770  0.34540  1.0000 0.1196161954
H   H112      1.0  0.52970  0.38040  0.40950  1.0000 0.1297888203
H   H113      1.0  0.65460  0.35690  0.43120  1.0000 0.110102443
H   H114      1.0  0.49200  0.10530  0.42880  1.0000 0.110102443
H   H115      1.0  0.36440  0.12160  0.40660  1.0000 0.1297888203
H   H116      1.0  0.25100  0.33340  0.41490  1.0000 0.1196161954
H   H117      1.0  0.25520  0.32990  0.33500  1.0000 0.110102443
H   H118      1.0  0.80300  0.96840  0.45050  1.0000 0.1390469558
H   H119      1.0  0.81970  0.10960  0.46200  1.0000 0.110102443
H   H120      1.0  0.55380  0.01440  0.43640  1.0000 0.110102443
H   H121      1.0  0.52860  0.87240  0.42200  1.0000 0.1297888203
H   H122      1.0  0.58120  0.65380  0.44220  1.0000 0.1011271546
H   H123      1.0  0.56380  0.65110  0.36150  1.0000 0.1196161954
H   H124      1.0  0.45930  0.49500  0.39810  1.0000 0.1297888203
H   H125      1.0  0.20100  0.44590  0.38330  1.0000 0.1297888203
H   H126      1.0  0.39800  0.69310  0.40790  1.0000 0.1390469558
C   C1        1.0  0.73160  0.65280  0.76590  1.0000 -0.1496780555
C   C2        1.0  0.74240  0.73790  0.76630  1.0000 0.0797862888
C   C3        1.0  0.58670  0.68130  0.74150  1.0000 0.049441336
C   C4        1.0  0.57200  0.59890  0.73990  1.0000 -0.1410677087
C   C5        1.0  0.64550  0.58280  0.75280  1.0000 -0.0104358212
C   C6        1.0  0.63460  0.49390  0.75230  1.0000 0.4906596991
C   C7        1.0  0.52870  0.34430  0.74130  1.0000 -0.0716886676
C   C8        1.0  0.96770  0.11040  0.78530  1.0000 -0.1702997371
C   C9        1.0  0.88920  0.04500  0.79520  1.0000 0.0797862888
C   C10       1.0  0.80510  0.05820  0.70720  1.0000 0.0715953155
C   C11       1.0  0.87670  0.12660  0.69400  1.0000 -0.1595361211
C   C12       1.0  0.96420  0.15640  0.73150  1.0000 0.0295738134
C   C13       1.0  0.04800  0.23070  0.71410  1.0000 0.4906596991
C   C14       1.0  0.20750  0.29620  0.72940  1.0000 -0.0795593408
C   C15       1.0  0.39820  0.85020  0.74230  1.0000 -0.1496780555
C   C16       1.0  0.47470  0.84080  0.75410  1.0000 0.0715953155
C   C17       1.0  0.56870  0.98730  0.76120  1.0000 0.0715953155
C   C18       1.0  0.49450  0.00220  0.75360  1.0000 -0.1595361211
C   C19       1.0  0.40910  0.93220  0.74300  1.0000 0.0184926915
C   C20       1.0  0.32210  0.94230  0.73530  1.0000 0.4995702086
C   C21       1.0  0.27120  0.04630  0.74500  1.0000 -0.0795593408
C   C22       1.0  0.30680  0.13980  0.74210  1.0000 0.1011271546
C   C23       1.0  0.39840  0.19710  0.74320  1.0000 -0.2287087065
C   C24       1.0  0.42840  0.28660  0.74090  1.0000 0.1011271546
C   C25       1.0  0.36710  0.31660  0.73680  1.0000 -0.2010943604
C   C26       1.0  0.27410  0.26030  0.73430  1.0000 0.1196161954
C   C27       1.0  0.24430  0.17090  0.73710  1.0000 -0.2195553447
C   C28       1.0  0.71830  0.93020  0.00570  1.0000 0.5066598979
C   C29       1.0  0.43890  0.84680  0.92070  1.0000 -0.1496780555
C   C30       1.0  0.42460  0.76260  0.92200  1.0000 0.0883888357
C   C31       1.0  0.27040  0.71020  0.90100  1.0000 0.0603538503
C   C32       1.0  0.27740  0.78710  0.90010  1.0000 -0.1496780555
C   C33       1.0  0.36610  0.86090  0.90950  1.0000 0.002062077
C   C34       1.0  0.37400  0.94930  0.90800  1.0000 0.4906596991
C   C35       1.0  0.47680  0.09700  0.91200  1.0000 -0.0716886676
C   C36       1.0  0.61110  0.59430  0.91730  1.0000 -0.1496780555
C   C37       1.0  0.53470  0.60330  0.91130  1.0000 0.0715953155
C   C38       1.0  0.44180  0.45730  0.90150  1.0000 0.0715953155
C   C39       1.0  0.51400  0.44160  0.90790  1.0000 -0.1595361211
C   C40       1.0  0.60240  0.51050  0.91490  1.0000 -0.017251943
C   C41       1.0  0.68510  0.49960  0.92060  1.0000 0.4906596991
C   C42       1.0  0.73380  0.39310  0.90670  1.0000 -0.0628016402
C   C43       1.0  0.12820  0.30930  0.97000  1.0000 -0.1410677087
C   C44       1.0  0.20660  0.38260  0.95770  1.0000 0.1011271546
C   C45       1.0  0.12040  0.40470  0.87340  1.0000 0.0797862888
C   C46       1.0  0.03990  0.33350  0.88590  1.0000 -0.1410677087
C   C47       1.0  0.04590  0.28950  0.93430  1.0000 0.002062077
C   C48       1.0  0.96350  0.21500  0.94900  1.0000 0.5066598979
C   C49       1.0  0.80140  0.14860  0.93570  1.0000 -0.0716886676
C   C50       1.0  0.73450  0.18390  0.92360  1.0000 0.110102443
C   C51       1.0  0.76180  0.26870  0.92030  1.0000 -0.2010943604
C   C52       1.0  0.69710  0.29750  0.91310  1.0000 0.1011271546
C   C53       1.0  0.60830  0.24290  0.91080  1.0000 -0.2010943604
C   C54       1.0  0.57860  0.15610  0.91560  1.0000 0.1011271546
C   C55       1.0  0.64140  0.12640  0.92150  1.0000 -0.2108399522
C   C56       1.0  0.25180  0.54370  0.65590  1.0000 0.4542453217
C   C57       1.0  0.39740  0.51780  0.22860  1.0000 -0.1410677087
C   C58       1.0  0.38210  0.43250  0.21770  1.0000 0.0797862888
C   C59       1.0  0.22840  0.38180  0.18960  1.0000 0.0413800872
C   C60       1.0  0.23800  0.46410  0.20050  1.0000 -0.1496780555
C   C61       1.0  0.32510  0.53190  0.22000  1.0000 0.0082624818
C   C62       1.0  0.33570  0.62270  0.23160  1.0000 0.4995702086
C   C63       1.0  0.44180  0.77280  0.25300  1.0000 -0.0716886676
C   C64       1.0  0.55940  0.26500  0.24040  1.0000 -0.1496780555
C   C65       1.0  0.48170  0.27070  0.22220  1.0000 0.0797862888
C   C66       1.0  0.38960  0.13010  0.22710  1.0000 0.0715953155
C   C67       1.0  0.46460  0.11780  0.24270  1.0000 -0.1595361211
C   C68       1.0  0.54940  0.18480  0.24970  1.0000 0.0184926915
C   C69       1.0  0.63440  0.17430  0.26280  1.0000 0.5066598979
C   C70       1.0  0.69320  0.07720  0.27180  1.0000 -0.0910243836
C   C71       1.0  0.98530  0.00940  0.13000  1.0000 -0.1410677087
C   C72       1.0  0.06840  0.07540  0.12760  1.0000 0.0603538503
C   C73       1.0  0.10840  0.09350  0.24160  1.0000 0.0797862888
C   C74       1.0  0.02390  0.02870  0.24810  1.0000 -0.1595361211
C   C75       1.0  0.96240  0.98560  0.18980  1.0000 0.0082624818
C   C76       1.0  0.87040  0.90950  0.19080  1.0000 0.4995702086
C   C77       1.0  0.76700  0.83230  0.26220  1.0000 -0.0795593408
C   C78       1.0  0.66060  0.98330  0.26600  1.0000 0.110102443
C   C79       1.0  0.72600  0.95470  0.26550  1.0000 -0.2385809046
C   C80       1.0  0.69850  0.86480  0.25940  1.0000 0.1196161954
C   C81       1.0  0.60590  0.80480  0.25690  1.0000 -0.2195553447
C   C82       1.0  0.54030  0.83290  0.25590  1.0000 0.110102443
C   C83       1.0  0.56820  0.92210  0.26010  1.0000 -0.2287087065
C   C84       1.0  0.29640  0.19920  0.93430  1.0000 0.4906596991
C   C85       1.0  0.61600  0.37080  0.07490  1.0000 0.049441336
C   C86       1.0  0.60320  0.28780  0.07960  1.0000 -0.1410677087
C   C87       1.0  0.67820  0.27410  0.08880  1.0000 -0.0104358212
C   C88       1.0  0.76390  0.34490  0.09730  1.0000 -0.1496780555
C   C89       1.0  0.77240  0.42950  0.09250  1.0000 0.0883888357
C   C90       1.0  0.66800  0.18740  0.09440  1.0000 0.4906596991
C   C91       1.0  0.56340  0.03990  0.09010  1.0000 -0.0716886676
C   C92       1.0  0.53190  0.69810  0.08280  1.0000 -0.1702997371
C   C93       1.0  0.60530  0.68310  0.08630  1.0000 0.0715953155
C   C94       1.0  0.51050  0.53510  0.08110  1.0000 0.0715953155
C   C95       1.0  0.43550  0.54560  0.07530  1.0000 -0.1410677087
C   C96       1.0  0.44280  0.62780  0.07730  1.0000 -0.0327170414
C   C97       1.0  0.36160  0.63920  0.07300  1.0000 0.4800337184
C   C98       1.0  0.30370  0.74070  0.08330  1.0000 -0.0795593408
C   C99       1.0  0.96700  0.80510  0.05160  1.0000 -0.1410677087
C   C100      1.0  0.88010  0.73520  0.04900  1.0000 0.1011271546
C   C101      1.0  0.91710  0.73440  0.16260  1.0000 0.0797862888
C   C102      1.0  0.00130  0.80360  0.16770  1.0000 -0.1595361211
C   C103      1.0  0.02840  0.83770  0.11100  1.0000 -0.0015784511
C   C104      1.0  0.12480  0.91100  0.11470  1.0000 0.4995702086
C   C105      1.0  0.23980  0.98600  0.05290  1.0000 -0.0795593408
C   C106      1.0  0.30510  0.95280  0.06810  1.0000 0.110102443
C   C107      1.0  0.27760  0.86500  0.06900  1.0000 -0.2108399522
C   C108      1.0  0.33840  0.83460  0.08050  1.0000 0.110102443
C   C109      1.0  0.43220  0.89350  0.08920  1.0000 -0.2195553447
C   C110      1.0  0.46170  0.98130  0.08510  1.0000 0.1011271546
C   C111      1.0  0.39820  0.00970  0.07480  1.0000 -0.2010943604
C   C112      1.0  0.70420  0.54990  0.33920  1.0000 0.4995702086
C   C113      1.0  0.37490  0.15660  0.57070  1.0000 -0.1702997371
C   C114      1.0  0.36110  0.07290  0.57090  1.0000 0.1011271546
C   C115      1.0  0.20840  0.02190  0.56160  1.0000 0.0413800872
C   C116      1.0  0.21450  0.09890  0.55880  1.0000 -0.1410677087
C   C117      1.0  0.30040  0.16990  0.56200  1.0000 0.0184926915
C   C118      1.0  0.31040  0.26020  0.56060  1.0000 0.4906596991
C   C119      1.0  0.41590  0.40930  0.56790  1.0000 -0.0716886676
C   C120      1.0  0.44740  0.74920  0.57070  1.0000 -0.1702997371
C   C121      1.0  0.37330  0.76480  0.56510  1.0000 0.0797862888
C   C122      1.0  0.46810  0.91090  0.58050  1.0000 0.0715953155
C   C123      1.0  0.54420  0.90180  0.58730  1.0000 -0.1496780555
C   C124      1.0  0.53460  0.81880  0.58230  1.0000 0.002062077
C   C125      1.0  0.61880  0.80810  0.58670  1.0000 0.4906596991
C   C126      1.0  0.67360  0.70870  0.57950  1.0000 -0.0716886676
C   C127      1.0  0.00080  0.65830  0.60100  1.0000 -0.1496780555
C   C128      1.0  0.08570  0.72670  0.60250  1.0000 0.0797862888
C   C129      1.0  0.06830  0.70860  0.48680  1.0000 0.0715953155
C   C130      1.0  0.97950  0.63770  0.48170  1.0000 -0.1496780555
C   C131      1.0  0.94650  0.61200  0.54140  1.0000 -0.017251943
C   C132      1.0  0.85500  0.53750  0.53370  1.0000 0.4906596991
C   C133      1.0  0.73800  0.45720  0.59780  1.0000 -0.0716886676
C   C134      1.0  0.67260  0.49390  0.58900  1.0000 0.110102443
C   C135      1.0  0.70230  0.58150  0.58590  1.0000 -0.2287087065
C   C136      1.0  0.63790  0.61250  0.57690  1.0000 0.110102443
C   C137      1.0  0.54780  0.55310  0.56850  1.0000 -0.2108399522
C   C138      1.0  0.51630  0.46580  0.57220  1.0000 0.110102443
C   C139      1.0  0.57910  0.43520  0.58000  1.0000 -0.2108399522
C   C140      1.0  0.28670  0.88590  0.31240  1.0000 0.4906596991
C   C141      1.0  0.99480  0.43760  0.52170  1.0000 -0.1496780555
C   C142      1.0  0.90850  0.36890  0.52170  1.0000 0.0797862888
C   C143      1.0  0.86980  0.34790  0.40580  1.0000 0.0883888357
C   C144      1.0  0.95700  0.41660  0.40150  1.0000 -0.1595361211
C   C145      1.0  0.01940  0.46190  0.45960  1.0000 -0.0015784511
C   C146      1.0  0.11260  0.53500  0.45800  1.0000 0.4995702086
C   C147      1.0  0.21920  0.60770  0.38940  1.0000 -0.0628016402
C   C148      1.0  0.52070  0.32370  0.41310  1.0000 -0.1702997371
C   C149      1.0  0.59470  0.30910  0.42660  1.0000 0.0797862888
C   C150      1.0  0.49930  0.16150  0.42500  1.0000 0.0603538503
C   C151      1.0  0.42350  0.17070  0.41160  1.0000 -0.1410677087
C   C152      1.0  0.43270  0.25330  0.40500  1.0000 -0.0104358212
C   C153      1.0  0.34960  0.26130  0.39130  1.0000 0.4800337184
C   C154      1.0  0.29110  0.35850  0.38130  1.0000 -0.0628016402
C   C155      1.0  0.75050  0.97650  0.44700  1.0000 -0.1496780555
C   C156      1.0  0.76000  0.06100  0.45470  1.0000 0.0715953155
C   C157      1.0  0.60530  0.00490  0.43940  1.0000 0.0603538503
C   C158      1.0  0.58940  0.91950  0.43040  1.0000 -0.133652575
C   C159      1.0  0.66150  0.90380  0.43380  1.0000 -0.0104358212
C   C160      1.0  0.65040  0.81480  0.42640  1.0000 0.4906596991
C   C161      1.0  0.54560  0.66390  0.40510  1.0000 -0.0795593408
C   C162      1.0  0.44550  0.60660  0.40240  1.0000 0.110102443
C   C163      1.0  0.41550  0.51520  0.39700  1.0000 -0.2108399522
C   C164      1.0  0.32590  0.45740  0.39030  1.0000 0.1011271546
C   C165      1.0  0.26410  0.48690  0.38810  1.0000 -0.2108399522
C   C166      1.0  0.28940  0.57350  0.39240  1.0000 0.110102443
C   C167      1.0  0.37990  0.63260  0.40170  1.0000 -0.2010943604
C   C168      1.0  0.70020  0.24270  0.71580  1.0000 0.4906596991
S   S1        1.0  0.72562  0.86166  0.93418  1.0000 0.9788771498
S   S2        1.0  0.31221  0.55037  0.73322  1.0000 0.9788771498
S   S3        1.0  0.32969  0.23739  0.02549  1.0000 0.962119155
S   S4        1.0  0.66667  0.56460  0.25572  1.0000 0.9689885306
S   S5        1.0  0.31773  0.87346  0.39752  1.0000 0.9689885306
S   S6        1.0  0.65612  0.20413  0.62518  1.0000 0.962119155
N   N1        1.0  0.67200  0.75280  0.75480  1.0000 -0.1783186623
N   N2        1.0  0.80910  0.01730  0.75760  1.0000 -0.1911514313
N   N3        1.0  0.56050  0.90830  0.76300  1.0000 -0.2108399522
N   N4        1.0  0.34060  0.69460  0.91190  1.0000 -0.1783186623
N   N5        1.0  0.44920  0.53640  0.90280  1.0000 -0.2010943604
N   N6        1.0  0.20300  0.43020  0.91240  1.0000 -0.2010943604
N   N7        1.0  0.29940  0.36450  0.19920  1.0000 -0.1911514313
N   N8        1.0  0.39850  0.20660  0.21680  1.0000 -0.1911514313
N   N9        1.0  0.13240  0.11870  0.18480  1.0000 -0.1783186623
N   N10       1.0  0.70180  0.44320  0.08280  1.0000 -0.2010943604
N   N11       1.0  0.59650  0.60230  0.08600  1.0000 -0.1911514313
N   N12       1.0  0.85690  0.69800  0.10490  1.0000 -0.1783186623
N   N13       1.0  0.28030  0.00750  0.56750  1.0000 -0.1911514313
N   N14       1.0  0.38260  0.84520  0.57060  1.0000 -0.1911514313
N   N15       1.0  0.12020  0.75250  0.54810  1.0000 -0.1783186623
N   N16       1.0  0.84720  0.32540  0.46470  1.0000 -0.1911514313
N   N17       1.0  0.58580  0.23040  0.43340  1.0000 -0.2010943604
N   N18       1.0  0.68900  0.07510  0.45220  1.0000 -0.1911514313
O   O1        1.0  0.69680  0.47820  0.76010  1.0000 -0.4394394614
O   O2        1.0  0.54680  0.43280  0.74250  1.0000 -0.2010943604
O   O3        1.0  0.04540  0.28100  0.67930  1.0000 -0.4695932192
O   O4        1.0  0.12150  0.23210  0.74410  1.0000 -0.2385809046
O   O5        1.0  0.24750  0.88310  0.72240  1.0000 -0.4613983206
O   O6        1.0  0.34690  0.02730  0.74550  1.0000 -0.2108399522
O   O7        1.0  0.77760  0.92560  0.89480  1.0000 -0.5492948067
O   O8        1.0  0.76920  0.81760  0.96320  1.0000 -0.5394668452
O   O9        1.0  0.62920  0.80740  0.90400  1.0000 -0.5833415461
O   O10       1.0  0.31000  0.96190  0.89470  1.0000 -0.4394394614
O   O11       1.0  0.46180  0.00990  0.91790  1.0000 -0.2108399522
O   O12       1.0  0.66270  0.41550  0.90860  1.0000 -0.2010943604
O   O13       1.0  0.76280  0.55860  0.93220  1.0000 -0.4695932192
O   O14       1.0  0.96410  0.16320  0.98190  1.0000 -0.4394394614
O   O15       1.0  0.88740  0.21150  0.91910  1.0000 -0.2195553447
O   O16       1.0  0.24230  0.52250  0.77660  1.0000 -0.5613576394
O   O17       1.0  0.34450  0.49090  0.71260  1.0000 -0.5613576394
O   O18       1.0  0.37670  0.63790  0.75590  1.0000 -0.5492948067
O   O19       1.0  0.27410  0.63970  0.23120  1.0000 -0.4394394614
O   O20       1.0  0.42260  0.68420  0.23880  1.0000 -0.2010943604
O   O21       1.0  0.71250  0.23690  0.27070  1.0000 -0.4989159775
O   O22       1.0  0.61480  0.09390  0.26400  1.0000 -0.2108399522
O   O23       1.0  0.81530  0.86520  0.14140  1.0000 -0.4394394614
O   O24       1.0  0.85580  0.89810  0.25450  1.0000 -0.2195553447
O   O25       1.0  0.37810  0.32980  0.03070  1.0000 -0.5492948067
O   O26       1.0  0.38480  0.19790  0.04450  1.0000 -0.5613576394
O   O27       1.0  0.24580  0.20290  0.04980  1.0000 -0.5394668452
O   O28       1.0  0.73080  0.17180  0.09910  1.0000 -0.4394394614
O   O29       1.0  0.58190  0.12860  0.09270  1.0000 -0.2010943604
O   O30       1.0  0.38140  0.72280  0.08450  1.0000 -0.2108399522
O   O31       1.0  0.28380  0.57930  0.06170  1.0000 -0.4695932192
O   O32       1.0  0.17470  0.95210  0.16810  1.0000 -0.4613983206
O   O33       1.0  0.14580  0.92210  0.05370  1.0000 -0.2108399522
O   O34       1.0  0.75100  0.60280  0.22940  1.0000 -0.5492948067
O   O35       1.0  0.62870  0.62140  0.26940  1.0000 -0.5492948067
O   O36       1.0  0.60290  0.47910  0.22160  1.0000 -0.5492948067
O   O37       1.0  0.24760  0.27560  0.55640  1.0000 -0.4394394614
O   O38       1.0  0.39700  0.31910  0.56500  1.0000 -0.2108399522
O   O39       1.0  0.69620  0.87010  0.60010  1.0000 -0.4825387371
O   O40       1.0  0.59910  0.72600  0.57570  1.0000 -0.2010943604
O   O41       1.0  0.80530  0.49400  0.48160  1.0000 -0.4514204335
O   O42       1.0  0.83160  0.52240  0.59630  1.0000 -0.2195553447
O   O43       1.0  0.23190  0.83450  0.42100  1.0000 -0.5492948067
O   O44       1.0  0.35800  0.81850  0.38810  1.0000 -0.5492948067
O   O45       1.0  0.37980  0.96160  0.43190  1.0000 -0.5714462173
O   O46       1.0  0.16650  0.57950  0.51040  1.0000 -0.4695932192
O   O47       1.0  0.13040  0.54280  0.39600  1.0000 -0.2195553447
O   O48       1.0  0.27400  0.20340  0.38350  1.0000 -0.4514204335
O   O49       1.0  0.36780  0.34440  0.39100  1.0000 -0.2108399522
O   O50       1.0  0.71500  0.80050  0.42590  1.0000 -0.4613983206
O   O51       1.0  0.56360  0.75490  0.41740  1.0000 -0.2108399522
O   O52       1.0  0.73940  0.24540  0.59680  1.0000 -0.5613576394
O   O53       1.0  0.59860  0.24510  0.61110  1.0000 -0.5714462173
O   O54       1.0  0.61500  0.11260  0.61720  1.0000 -0.5394668452
F   F1        1.0  0.67070  0.88290  0.04940  1.0000 -0.1911514313
F   F2        1.0  0.80140  0.98950  0.04030  1.0000 -0.1702997371
F   F3        1.0  0.67720  0.97330  0.98190  1.0000 -0.1911514313
F   F4        1.0  0.21830  0.60510  0.66310  1.0000 -0.2010943604
F   F5        1.0  0.18190  0.46820  0.62970  1.0000 -0.1496780555
F   F6        1.0  0.30400  0.56320  0.60680  1.0000 -0.1702997371
F   F7        1.0  0.36920  0.22370  0.90450  1.0000 -0.1783186623
F   F8        1.0  0.24590  0.22990  0.90690  1.0000 -0.1702997371
F   F9        1.0  0.24950  0.11340  0.91890  1.0000 -0.1702997371
F   F10       1.0  0.76940  0.62200  0.37570  1.0000 -0.1702997371
F   F11       1.0  0.63480  0.52310  0.37430  1.0000 -0.1911514313
F   F12       1.0  0.73140  0.49110  0.33450  1.0000 -0.1783186623
F   F13       1.0  0.35960  0.91720  0.28100  1.0000 -0.1911514313
F   F14       1.0  0.25500  0.94190  0.31170  1.0000 -0.1702997371
F   F15       1.0  0.22350  0.81220  0.27440  1.0000 -0.1702997371
F   F16       1.0  0.73940  0.32590  0.73230  1.0000 -0.1595361211
F   F17       1.0  0.75510  0.21530  0.74080  1.0000 -0.1783186623
F   F18       1.0  0.62760  0.21140  0.74920  1.0000 -0.1911514313
