# DDEC6 charges by PACMAN v1.1 (https://github.com/mtap-research/PACMAN-charge/)
data_2017[Tb][nan]3[FSR]12
_chemical_formula_sum              "Tb2 H66 C102 N2 O18"
_cell_length_a       9.8575
_cell_length_b       11.7168
_cell_length_c       23.5244
_cell_angle_alpha    75.4615
_cell_angle_beta     80.7943
_cell_angle_gamma    79.651

_symmetry_space_group_name_H-M    "P 1"
_symmetry_Int_Tables_number       1

loop_
  _symmetry_equiv_pos_as_xyz
  'x, y, z'

loop_
  _atom_site_type_symbol
  _atom_site_label
  _atom_site_symmetry_multiplicity
  _atom_site_fract_x
  _atom_site_fract_y
  _atom_site_fract_z
  _atom_site_occupancy
  _atom_site_charge
Tb  Tb1       1.0  0.73647  0.02078  0.50495  1.0000 2.1288720837
Tb  Tb2       1.0  0.26353  0.97922  0.49505  1.0000 2.1288720837
H   H1        1.0  0.76000  0.92910  0.66440  1.0000 0.1207981421
H   H2        1.0  0.69080  0.84090  0.76280  1.0000 0.1207981421
H   H3        1.0  0.07160  0.64150  0.77430  1.0000 0.1283829227
H   H4        1.0  0.14270  0.73360  0.67640  1.0000 0.1394869569
H   H5        1.0  0.90600  0.80520  0.49280  1.0000 0.3698494306
H   H6        1.0  0.53300  0.18340  0.45860  1.0000 0.3698494306
H   H7        1.0  0.33090  0.85330  0.92330  1.0000 0.10997412
H   H8        1.0  0.54050  0.75920  0.88810  1.0000 0.1207981421
H   H9        1.0  0.24770  0.80510  0.02520  1.0000 0.10997412
H   H10       1.0  0.37280  0.65870  0.08970  1.0000 0.1207981421
H   H11       1.0  0.78490  0.34490  0.12470  1.0000 0.1207981421
H   H12       1.0  0.98770  0.24220  0.08810  1.0000 0.10997412
H   H13       1.0  0.07310  0.29420  0.98690  1.0000 0.10997412
H   H14       1.0  0.95580  0.44910  0.92300  1.0000 0.1207981421
H   H15       1.0  0.26580  0.52090  0.23330  1.0000 0.1283829227
H   H16       1.0  0.16660  0.44360  0.32880  1.0000 0.1283829227
H   H17       1.0  0.51510  0.20530  0.35750  1.0000 0.1283829227
H   H18       1.0  0.61520  0.28140  0.26200  1.0000 0.1283829227
H   H19       1.0  0.81040  0.97480  0.36020  1.0000 0.1394869569
H   H20       1.0  0.92700  0.97520  0.26600  1.0000 0.1283829227
H   H21       1.0  0.57160  0.93380  0.21230  1.0000 0.1283829227
H   H22       1.0  0.45790  0.93250  0.30660  1.0000 0.1283829227
H   H23       1.0  0.12300  0.01150  0.12640  1.0000 0.1283829227
H   H24       1.0  0.33860  0.07100  0.09730  1.0000 0.1207981421
H   H25       1.0  0.42740  0.11600  0.99630  1.0000 0.1207981421
H   H26       1.0  0.30400  0.09240  0.92570  1.0000 0.1207981421
H   H27       1.0  0.64100  0.30210  0.54380  1.0000 0.1207981421
H   H28       1.0  0.64500  0.35910  0.68180  1.0000 0.1283829227
H   H29       1.0  0.61470  0.43760  0.61770  1.0000 0.1394869569
H   H30       1.0  0.53040  0.32910  0.64890  1.0000 0.1394869569
H   H31       1.0  0.81850  0.22910  0.69120  1.0000 0.1283829227
H   H32       1.0  0.81130  0.11950  0.66320  1.0000 0.1394869569
H   H33       1.0  0.92140  0.20880  0.63350  1.0000 0.1585440656
H   H34       1.0  0.24000  0.07090  0.33560  1.0000 0.1207981421
H   H35       1.0  0.30920  0.15910  0.23720  1.0000 0.1207981421
H   H36       1.0  0.92840  0.35850  0.22570  1.0000 0.1283829227
H   H37       1.0  0.85730  0.26640  0.32360  1.0000 0.1394869569
H   H38       1.0  0.09400  0.19480  0.50720  1.0000 0.3698494306
H   H39       1.0  0.46700  0.81660  0.54140  1.0000 0.3698494306
H   H40       1.0  0.66910  0.14670  0.07670  1.0000 0.10997412
H   H41       1.0  0.45950  0.24080  0.11190  1.0000 0.1207981421
H   H42       1.0  0.75230  0.19490  0.97480  1.0000 0.10997412
H   H43       1.0  0.62720  0.34130  0.91030  1.0000 0.1207981421
H   H44       1.0  0.21510  0.65510  0.87530  1.0000 0.1207981421
H   H45       1.0  0.01230  0.75780  0.91190  1.0000 0.10997412
H   H46       1.0  0.92690  0.70580  0.01310  1.0000 0.10997412
H   H47       1.0  0.04420  0.55090  0.07700  1.0000 0.1207981421
H   H48       1.0  0.73420  0.47910  0.76670  1.0000 0.1283829227
H   H49       1.0  0.83340  0.55640  0.67120  1.0000 0.1283829227
H   H50       1.0  0.48490  0.79470  0.64250  1.0000 0.1283829227
H   H51       1.0  0.38480  0.71860  0.73800  1.0000 0.1283829227
H   H52       1.0  0.18960  0.02520  0.63980  1.0000 0.1394869569
H   H53       1.0  0.07300  0.02480  0.73400  1.0000 0.1283829227
H   H54       1.0  0.42840  0.06620  0.78770  1.0000 0.1283829227
H   H55       1.0  0.54210  0.06750  0.69340  1.0000 0.1283829227
H   H56       1.0  0.87700  0.98850  0.87360  1.0000 0.1283829227
H   H57       1.0  0.66140  0.92900  0.90270  1.0000 0.1207981421
H   H58       1.0  0.57260  0.88400  0.00370  1.0000 0.1207981421
H   H59       1.0  0.69600  0.90760  0.07430  1.0000 0.1207981421
H   H60       1.0  0.35900  0.69790  0.45620  1.0000 0.1207981421
H   H61       1.0  0.35500  0.64090  0.31820  1.0000 0.1283829227
H   H62       1.0  0.38530  0.56240  0.38230  1.0000 0.1394869569
H   H63       1.0  0.46960  0.67090  0.35110  1.0000 0.1394869569
H   H64       1.0  0.18150  0.77090  0.30880  1.0000 0.1283829227
H   H65       1.0  0.18870  0.88050  0.33680  1.0000 0.1394869569
H   H66       1.0  0.07860  0.79120  0.36650  1.0000 0.1585440656
C   C1        1.0  0.99910  0.89634  0.59726  1.0000 0.6474234929
C   C2        1.0  0.95760  0.83921  0.66079  1.0000 -0.01654152
C   C3        1.0  0.82330  0.87099  0.68671  1.0000 -0.0993423412
C   C4        1.0  0.78190  0.81778  0.74512  1.0000 -0.1402338853
C   C5        1.0  0.87330  0.73054  0.77806  1.0000 0.1394869569
C   C6        1.0  0.00830  0.69987  0.75203  1.0000 -0.1485044563
C   C7        1.0  0.05050  0.75435  0.69375  1.0000 -0.0879234247
C   C8        1.0  0.82480  0.67325  0.83735  1.0000 -0.1218099425
C   C9        1.0  0.77690  0.63061  0.88659  1.0000 -0.0730087575
C   C10       1.0  0.58990  0.64853  0.96747  1.0000 0.0414489921
C   C11       1.0  0.71940  0.58929  0.94651  1.0000 0.0414489921
C   C12       1.0  0.38410  0.79405  0.94975  1.0000 -0.0879234247
C   C13       1.0  0.50790  0.73818  0.92902  1.0000 -0.1485044563
C   C14       1.0  0.33360  0.76446  0.01084  1.0000 -0.0879234247
C   C15       1.0  0.40780  0.67809  0.04891  1.0000 -0.1485044563
C   C16       1.0  0.61320  0.52365  0.06715  1.0000 0.0414489921
C   C17       1.0  0.53720  0.61620  0.02850  1.0000 0.0316210535
C   C18       1.0  0.74040  0.46185  0.04575  1.0000 0.0414489921
C   C19       1.0  0.81780  0.36643  0.08377  1.0000 -0.1402338853
C   C20       1.0  0.93800  0.30595  0.06225  1.0000 -0.0879234247
C   C21       1.0  0.98930  0.33740  0.00150  1.0000 -0.0879234247
C   C22       1.0  0.91990  0.42897  0.96363  1.0000 -0.126226356
C   C23       1.0  0.79340  0.49493  0.98477  1.0000 0.0457432961
C   C24       1.0  0.55760  0.48656  0.12774  1.0000 -0.0622159445
C   C25       1.0  0.50870  0.45275  0.17815  1.0000 -0.0993423412
C   C26       1.0  0.44990  0.40840  0.23770  1.0000 0.1207981421
C   C27       1.0  0.31640  0.45647  0.25833  1.0000 -0.1485044563
C   C28       1.0  0.25750  0.41045  0.31515  1.0000 -0.0993423412
C   C29       1.0  0.33080  0.31572  0.35268  1.0000 -0.0122351216
C   C30       1.0  0.46420  0.26914  0.33216  1.0000 -0.0813856179
C   C31       1.0  0.52390  0.31432  0.27538  1.0000 -0.1485044563
C   C32       1.0  0.26220  0.26232  0.41308  1.0000 0.5851080885
C   C33       1.0  0.54510  0.95796  0.40294  1.0000 0.6350447407
C   C34       1.0  0.62310  0.95389  0.34281  1.0000 -0.0122351216
C   C35       1.0  0.76180  0.96641  0.33009  1.0000 -0.0730087575
C   C36       1.0  0.83120  0.96691  0.27399  1.0000 -0.1485044563
C   C37       1.0  0.76140  0.95552  0.22918  1.0000 0.1283829227
C   C38       1.0  0.62080  0.94239  0.24221  1.0000 -0.1561369577
C   C39       1.0  0.55340  0.94157  0.29823  1.0000 -0.0993423412
C   C40       1.0  0.83040  0.95946  0.17024  1.0000 -0.0993423412
C   C41       1.0  0.88350  0.96439  0.12091  1.0000 -0.0730087575
C   C42       1.0  0.94390  0.97890  0.06030  1.0000 0.0316210535
C   C43       1.0  0.07700  0.01427  0.04333  1.0000 0.0316210535
C   C44       1.0  0.15830  0.02773  0.08567  1.0000 -0.1402338853
C   C45       1.0  0.28560  0.06332  0.06848  1.0000 -0.0879234247
C   C46       1.0  0.33950  0.08921  0.00789  1.0000 -0.0879234247
C   C47       1.0  0.26600  0.07591  0.96619  1.0000 -0.1402338853
C   C48       1.0  0.13310  0.03755  0.98235  1.0000 0.0316210535
C   C49       1.0  0.71760  0.25844  0.56356  1.0000 0.3400874903
C   C50       1.0  0.62050  0.35730  0.64330  1.0000 -0.3309105912
C   C51       1.0  0.82760  0.20250  0.65430  1.0000 -0.3309105912
C   C52       1.0  0.00090  0.10366  0.40274  1.0000 0.6474234929
C   C53       1.0  0.04240  0.16079  0.33921  1.0000 -0.01654152
C   C54       1.0  0.17670  0.12901  0.31329  1.0000 -0.0993423412
C   C55       1.0  0.21810  0.18222  0.25488  1.0000 -0.1402338853
C   C56       1.0  0.12670  0.26946  0.22194  1.0000 0.1394869569
C   C57       1.0  0.99170  0.30013  0.24797  1.0000 -0.1485044563
C   C58       1.0  0.94950  0.24565  0.30625  1.0000 -0.0879234247
C   C59       1.0  0.17520  0.32675  0.16265  1.0000 -0.1218099425
C   C60       1.0  0.22310  0.36939  0.11341  1.0000 -0.0730087575
C   C61       1.0  0.41010  0.35147  0.03253  1.0000 0.0414489921
C   C62       1.0  0.28060  0.41071  0.05349  1.0000 0.0457432961
C   C63       1.0  0.61590  0.20595  0.05025  1.0000 -0.0879234247
C   C64       1.0  0.49210  0.26182  0.07098  1.0000 -0.1485044563
C   C65       1.0  0.66640  0.23554  0.98916  1.0000 -0.0879234247
C   C66       1.0  0.59220  0.32191  0.95109  1.0000 -0.1485044563
C   C67       1.0  0.38680  0.47635  0.93285  1.0000 0.0414489921
C   C68       1.0  0.46280  0.38380  0.97150  1.0000 0.0316210535
C   C69       1.0  0.25960  0.53815  0.95425  1.0000 0.0414489921
C   C70       1.0  0.18220  0.63357  0.91623  1.0000 -0.1402338853
C   C71       1.0  0.06200  0.69405  0.93775  1.0000 -0.0879234247
C   C72       1.0  0.01070  0.66260  0.99850  1.0000 -0.0879234247
C   C73       1.0  0.08010  0.57103  0.03637  1.0000 -0.126226356
C   C74       1.0  0.20660  0.50507  0.01523  1.0000 0.0457432961
C   C75       1.0  0.44240  0.51344  0.87226  1.0000 -0.0622159445
C   C76       1.0  0.49130  0.54725  0.82185  1.0000 -0.0993423412
C   C77       1.0  0.55010  0.59160  0.76230  1.0000 0.1207981421
C   C78       1.0  0.68360  0.54353  0.74167  1.0000 -0.1485044563
C   C79       1.0  0.74250  0.58955  0.68485  1.0000 -0.0993423412
C   C80       1.0  0.66920  0.68428  0.64732  1.0000 -0.0122351216
C   C81       1.0  0.53580  0.73086  0.66784  1.0000 -0.0813856179
C   C82       1.0  0.47610  0.68568  0.72462  1.0000 -0.1485044563
C   C83       1.0  0.73780  0.73768  0.58692  1.0000 0.5851080885
C   C84       1.0  0.45490  0.04204  0.59706  1.0000 0.6350447407
C   C85       1.0  0.37690  0.04611  0.65719  1.0000 -0.0122351216
C   C86       1.0  0.23820  0.03359  0.66991  1.0000 -0.0730087575
C   C87       1.0  0.16880  0.03309  0.72601  1.0000 -0.1485044563
C   C88       1.0  0.23860  0.04448  0.77082  1.0000 0.1283829227
C   C89       1.0  0.37920  0.05761  0.75779  1.0000 -0.1561369577
C   C90       1.0  0.44660  0.05843  0.70177  1.0000 -0.0993423412
C   C91       1.0  0.16960  0.04054  0.82976  1.0000 -0.0993423412
C   C92       1.0  0.11650  0.03561  0.87909  1.0000 -0.0730087575
C   C93       1.0  0.05610  0.02110  0.93970  1.0000 0.0316210535
C   C94       1.0  0.92300  0.98573  0.95667  1.0000 0.0316210535
C   C95       1.0  0.84170  0.97227  0.91433  1.0000 -0.1402338853
C   C96       1.0  0.71440  0.93668  0.93152  1.0000 -0.0879234247
C   C97       1.0  0.66050  0.91079  0.99211  1.0000 -0.0879234247
C   C98       1.0  0.73400  0.92409  0.03381  1.0000 -0.1402338853
C   C99       1.0  0.86690  0.96245  0.01765  1.0000 0.0316210535
C   C100      1.0  0.28240  0.74156  0.43644  1.0000 0.3400874903
C   C101      1.0  0.37950  0.64270  0.35670  1.0000 -0.3309105912
C   C102      1.0  0.17240  0.79750  0.34570  1.0000 -0.3309105912
N   N1        1.0  0.72480  0.27801  0.61649  1.0000 0.0414489921
N   N2        1.0  0.27520  0.72199  0.38351  1.0000 0.0414489921
O   O1        1.0  0.14610  0.30943  0.43137  1.0000 -0.4955027232
O   O2        1.0  0.33000  0.16769  0.44225  1.0000 -0.6648979316
O   O3        1.0  0.90560  0.95929  0.56793  1.0000 -0.6420622
O   O4        1.0  0.12570  0.88097  0.57708  1.0000 -0.6272570321
O   O5        1.0  0.60950  0.97385  0.44167  1.0000 -0.6481602619
O   O6        1.0  0.41880  0.94667  0.41052  1.0000 -0.6481602619
O   O7        1.0  0.90020  0.86222  0.46813  1.0000 -0.8076845536
O   O8        1.0  0.58540  0.19794  0.46736  1.0000 -0.7825082073
O   O9        1.0  0.79740  0.19155  0.53785  1.0000 -0.4148638377
O   O10       1.0  0.85390  0.69057  0.56863  1.0000 -0.4955027232
O   O11       1.0  0.67000  0.83231  0.55775  1.0000 -0.6648979316
O   O12       1.0  0.09440  0.04071  0.43207  1.0000 -0.6420622
O   O13       1.0  0.87430  0.11903  0.42292  1.0000 -0.6272570321
O   O14       1.0  0.39050  0.02615  0.55833  1.0000 -0.6481602619
O   O15       1.0  0.58120  0.05333  0.58948  1.0000 -0.6481602619
O   O16       1.0  0.09980  0.13778  0.53187  1.0000 -0.8031291494
O   O17       1.0  0.41460  0.80206  0.53264  1.0000 -0.7825082073
O   O18       1.0  0.20260  0.80845  0.46215  1.0000 -0.4148638377
