# DDEC6 charges by PACMAN v1.1 (https://github.com/mtap-research/PACMAN-charge/)
data_2017[Nd][nan]3[FSR]2
_chemical_formula_sum              "Nd8 H112 C104 O76"
_cell_length_a       12.3488
_cell_length_b       12.8414
_cell_length_c       24.1086
_cell_angle_alpha    90
_cell_angle_beta     90
_cell_angle_gamma    90

_symmetry_space_group_name_H-M    "P 1"
_symmetry_Int_Tables_number       1

loop_
  _symmetry_equiv_pos_as_xyz
  'x, y, z'

loop_
  _atom_site_type_symbol
  _atom_site_label
  _atom_site_symmetry_multiplicity
  _atom_site_fract_x
  _atom_site_fract_y
  _atom_site_fract_z
  _atom_site_occupancy
  _atom_site_charge
Nd  Nd1       1.0  0.05460  0.39822  0.93180  1.0000 2.0594778112
Nd  Nd2       1.0  0.05460  0.60178  0.06820  1.0000 2.0594778112
Nd  Nd3       1.0  0.94540  0.89822  0.56820  1.0000 2.0594778112
Nd  Nd4       1.0  0.94540  0.10178  0.43180  1.0000 2.0594778112
Nd  Nd5       1.0  0.27481  0.62488  0.58231  1.0000 2.1508778981
Nd  Nd6       1.0  0.27481  0.37512  0.41769  1.0000 2.1508778981
Nd  Nd7       1.0  0.72519  0.12488  0.91769  1.0000 2.1508778981
Nd  Nd8       1.0  0.72519  0.87512  0.08231  1.0000 2.1508778981
H   H1        1.0  0.91870  0.30160  0.74560  1.0000 0.1332053251
H   H2        1.0  0.91870  0.69840  0.25440  1.0000 0.1332053251
H   H3        1.0  0.08130  0.80160  0.75440  1.0000 0.1332053251
H   H4        1.0  0.08130  0.19840  0.24560  1.0000 0.1332053251
H   H5        1.0  0.23960  0.32200  0.75160  1.0000 0.1479253687
H   H6        1.0  0.23960  0.67800  0.24840  1.0000 0.1479253687
H   H7        1.0  0.76040  0.82200  0.74840  1.0000 0.1479253687
H   H8        1.0  0.76040  0.17800  0.25160  1.0000 0.1479253687
H   H9        1.0  0.09270  0.25730  0.60500  1.0000 0.1479253687
H   H10       1.0  0.09270  0.74270  0.39500  1.0000 0.1479253687
H   H11       1.0  0.90730  0.75730  0.89500  1.0000 0.1479253687
H   H12       1.0  0.90730  0.24270  0.10500  1.0000 0.1479253687
H   H13       1.0  0.93240  0.28440  0.56380  1.0000 0.0973518653
H   H14       1.0  0.93240  0.71560  0.43620  1.0000 0.0973518653
H   H15       1.0  0.06760  0.78440  0.93620  1.0000 0.0973518653
H   H16       1.0  0.06760  0.21560  0.06380  1.0000 0.0973518653
H   H17       1.0  0.73310  0.19020  0.58970  1.0000 0.1479253687
H   H18       1.0  0.73310  0.80980  0.41030  1.0000 0.1479253687
H   H19       1.0  0.26690  0.69020  0.91030  1.0000 0.1479253687
H   H20       1.0  0.26690  0.30980  0.08970  1.0000 0.1479253687
H   H21       1.0  0.76840  0.22700  0.53040  1.0000 0.141316866
H   H22       1.0  0.76840  0.77300  0.46960  1.0000 0.141316866
H   H23       1.0  0.23160  0.72700  0.96960  1.0000 0.141316866
H   H24       1.0  0.23160  0.27300  0.03040  1.0000 0.141316866
H   H25       1.0  0.74560  0.30930  0.57700  1.0000 0.1332053251
H   H26       1.0  0.74560  0.69070  0.42300  1.0000 0.1332053251
H   H27       1.0  0.25440  0.80930  0.92300  1.0000 0.1332053251
H   H28       1.0  0.25440  0.19070  0.07700  1.0000 0.1332053251
H   H29       1.0  0.27010  0.21160  0.58350  1.0000 0.0973518653
H   H30       1.0  0.27010  0.78840  0.41650  1.0000 0.0973518653
H   H31       1.0  0.72990  0.71160  0.91650  1.0000 0.0973518653
H   H32       1.0  0.72990  0.28840  0.08350  1.0000 0.0973518653
H   H33       1.0  0.45960  0.32790  0.60040  1.0000 0.1479253687
H   H34       1.0  0.45960  0.67210  0.39960  1.0000 0.1479253687
H   H35       1.0  0.54040  0.82790  0.89960  1.0000 0.1479253687
H   H36       1.0  0.54040  0.17210  0.10040  1.0000 0.1479253687
H   H37       1.0  0.43810  0.26220  0.54670  1.0000 0.141316866
H   H38       1.0  0.43810  0.73780  0.45330  1.0000 0.141316866
H   H39       1.0  0.56190  0.76220  0.95330  1.0000 0.141316866
H   H40       1.0  0.56190  0.23780  0.04670  1.0000 0.141316866
H   H41       1.0  0.45070  0.20630  0.60420  1.0000 0.141316866
H   H42       1.0  0.45070  0.79370  0.39580  1.0000 0.141316866
H   H43       1.0  0.54930  0.70630  0.89580  1.0000 0.141316866
H   H44       1.0  0.54930  0.29370  0.10420  1.0000 0.141316866
H   H45       1.0  0.10210  0.00000  0.00000  1.0000 0.141316866
H   H46       1.0  0.89790  0.50000  0.50000  1.0000 0.141316866
H   H47       1.0  0.38790  0.04710  0.92120  1.0000 0.141316866
H   H48       1.0  0.38790  0.95290  0.07880  1.0000 0.141316866
H   H49       1.0  0.61210  0.54710  0.57880  1.0000 0.141316866
H   H50       1.0  0.61210  0.45290  0.42120  1.0000 0.141316866
H   H51       1.0  0.04840  0.98500  0.91110  1.0000 0.0935867368
H   H52       1.0  0.04840  0.01500  0.08890  1.0000 0.0935867368
H   H53       1.0  0.95160  0.48500  0.58890  1.0000 0.0935867368
H   H54       1.0  0.95160  0.51500  0.41110  1.0000 0.0935867368
H   H55       1.0  0.07910  0.11560  0.81800  1.0000 0.1479253687
H   H56       1.0  0.07910  0.88440  0.18200  1.0000 0.1479253687
H   H57       1.0  0.92090  0.61560  0.68200  1.0000 0.1479253687
H   H58       1.0  0.92090  0.38440  0.31800  1.0000 0.1479253687
H   H59       1.0  0.97880  0.04270  0.82680  1.0000 0.141316866
H   H60       1.0  0.97880  0.95730  0.17320  1.0000 0.141316866
H   H61       1.0  0.02120  0.54270  0.67320  1.0000 0.141316866
H   H62       1.0  0.02120  0.45730  0.32680  1.0000 0.141316866
H   H63       1.0  0.09360  0.99440  0.81660  1.0000 0.141316866
H   H64       1.0  0.09360  0.00560  0.18340  1.0000 0.141316866
H   H65       1.0  0.90640  0.49440  0.68340  1.0000 0.141316866
H   H66       1.0  0.90640  0.50560  0.31660  1.0000 0.141316866
H   H67       1.0  0.41640  0.52120  0.08350  1.0000 0.1479253687
H   H68       1.0  0.41640  0.47880  0.91650  1.0000 0.1479253687
H   H69       1.0  0.58360  0.02120  0.41650  1.0000 0.1479253687
H   H70       1.0  0.58360  0.97880  0.58350  1.0000 0.1479253687
H   H71       1.0  0.69620  0.50000  0.00000  1.0000 0.1332053251
H   H72       1.0  0.30380  0.00000  0.50000  1.0000 0.1332053251
H   H73       1.0  0.74980  0.44690  0.08620  1.0000 0.0935867368
H   H74       1.0  0.74980  0.55310  0.91380  1.0000 0.0935867368
H   H75       1.0  0.25020  0.94690  0.41380  1.0000 0.0935867368
H   H76       1.0  0.25020  0.05310  0.58620  1.0000 0.0935867368
H   H77       1.0  0.73980  0.56960  0.18430  1.0000 0.141316866
H   H78       1.0  0.73980  0.43040  0.81570  1.0000 0.141316866
H   H79       1.0  0.26020  0.06960  0.31570  1.0000 0.141316866
H   H80       1.0  0.26020  0.93040  0.68430  1.0000 0.141316866
H   H81       1.0  0.83030  0.48790  0.17070  1.0000 0.1479253687
H   H82       1.0  0.83030  0.51210  0.82930  1.0000 0.1479253687
H   H83       1.0  0.16970  0.98790  0.32930  1.0000 0.1479253687
H   H84       1.0  0.16970  0.01210  0.67070  1.0000 0.1479253687
H   H85       1.0  0.71240  0.45040  0.18420  1.0000 0.141316866
H   H86       1.0  0.71240  0.54960  0.81580  1.0000 0.141316866
H   H87       1.0  0.28760  0.95040  0.31580  1.0000 0.141316866
H   H88       1.0  0.28760  0.04960  0.68420  1.0000 0.141316866
H   H89       1.0  0.13850  0.71910  0.68170  1.0000 0.3746862388
H   H90       1.0  0.13850  0.28090  0.31830  1.0000 0.3746862388
H   H91       1.0  0.86150  0.21910  0.81830  1.0000 0.3746862388
H   H92       1.0  0.86150  0.78090  0.18170  1.0000 0.3746862388
H   H93       1.0  0.23550  0.68150  0.70100  1.0000 0.3085502884
H   H94       1.0  0.23550  0.31850  0.29900  1.0000 0.3085502884
H   H95       1.0  0.76450  0.18150  0.79900  1.0000 0.3085502884
H   H96       1.0  0.76450  0.81850  0.20100  1.0000 0.3085502884
H   H97       1.0  0.50960  0.73830  0.61730  1.0000 0.3558984152
H   H98       1.0  0.50960  0.26170  0.38270  1.0000 0.3558984152
H   H99       1.0  0.49040  0.23830  0.88270  1.0000 0.3558984152
H   H100      1.0  0.49040  0.76170  0.11730  1.0000 0.3558984152
H   H101      1.0  0.40870  0.78230  0.61250  1.0000 0.3252103305
H   H102      1.0  0.40870  0.21770  0.38750  1.0000 0.3252103305
H   H103      1.0  0.59130  0.28230  0.88750  1.0000 0.3252103305
H   H104      1.0  0.59130  0.71770  0.11250  1.0000 0.3252103305
H   H105      1.0  0.34120  0.48170  0.68170  1.0000 0.3454658142
H   H106      1.0  0.34120  0.51830  0.31830  1.0000 0.3454658142
H   H107      1.0  0.65880  0.98170  0.81830  1.0000 0.3454658142
H   H108      1.0  0.65880  0.01830  0.18170  1.0000 0.3454658142
H   H109      1.0  0.39530  0.57490  0.68450  1.0000 0.3189132265
H   H110      1.0  0.39530  0.42510  0.31550  1.0000 0.3189132265
H   H111      1.0  0.60470  0.07490  0.81550  1.0000 0.3189132265
H   H112      1.0  0.60470  0.92510  0.18450  1.0000 0.3189132265
C   C1        1.0  0.99170  0.27890  0.66860  1.0000 0.2906076885
C   C2        1.0  0.99170  0.72110  0.33140  1.0000 0.2906076885
C   C3        1.0  0.00830  0.77890  0.83140  1.0000 0.2906076885
C   C4        1.0  0.00830  0.22110  0.16860  1.0000 0.2906076885
C   C5        1.0  0.98540  0.29970  0.72770  1.0000 -0.2392783524
C   C6        1.0  0.98540  0.70030  0.27230  1.0000 -0.2392783524
C   C7        1.0  0.01460  0.79970  0.77230  1.0000 -0.2392783524
C   C8        1.0  0.01460  0.20030  0.22770  1.0000 -0.2392783524
C   C9        1.0  0.07720  0.31630  0.75610  1.0000 0.0303718362
C   C10       1.0  0.07720  0.68370  0.24390  1.0000 0.0303718362
C   C11       1.0  0.92280  0.81630  0.74390  1.0000 0.0303718362
C   C12       1.0  0.92280  0.18370  0.25610  1.0000 0.0303718362
C   C13       1.0  0.17690  0.31170  0.73090  1.0000 -0.2583880783
C   C14       1.0  0.17690  0.68830  0.26910  1.0000 -0.2583880783
C   C15       1.0  0.82310  0.81170  0.76910  1.0000 -0.2583880783
C   C16       1.0  0.82310  0.18830  0.23090  1.0000 -0.2583880783
C   C17       1.0  0.18350  0.29130  0.67350  1.0000 0.2906076885
C   C18       1.0  0.18350  0.70870  0.32650  1.0000 0.2906076885
C   C19       1.0  0.81650  0.79130  0.82650  1.0000 0.2906076885
C   C20       1.0  0.81650  0.20870  0.17350  1.0000 0.2906076885
C   C21       1.0  0.08870  0.27310  0.64260  1.0000 -0.352343733
C   C22       1.0  0.08870  0.72690  0.35740  1.0000 -0.352343733
C   C23       1.0  0.91130  0.77310  0.85740  1.0000 -0.352343733
C   C24       1.0  0.91130  0.22690  0.14260  1.0000 -0.352343733
C   C25       1.0  0.88970  0.23640  0.58660  1.0000 0.077497588
C   C26       1.0  0.88970  0.76360  0.41340  1.0000 0.077497588
C   C27       1.0  0.11030  0.73640  0.91340  1.0000 0.077497588
C   C28       1.0  0.11030  0.26360  0.08660  1.0000 0.077497588
C   C29       1.0  0.93370  0.12690  0.58040  1.0000 0.5704642734
C   C30       1.0  0.93370  0.87310  0.41960  1.0000 0.5704642734
C   C31       1.0  0.06630  0.62690  0.91960  1.0000 0.5704642734
C   C32       1.0  0.06630  0.37310  0.08040  1.0000 0.5704642734
C   C33       1.0  0.77390  0.24120  0.56940  1.0000 -0.45071579
C   C34       1.0  0.77390  0.75880  0.43060  1.0000 -0.45071579
C   C35       1.0  0.22610  0.74120  0.93060  1.0000 -0.45071579
C   C36       1.0  0.22610  0.25880  0.06940  1.0000 -0.45071579
C   C37       1.0  0.30530  0.27640  0.59510  1.0000 0.0637640082
C   C38       1.0  0.30530  0.72360  0.40490  1.0000 0.0637640082
C   C39       1.0  0.69470  0.77640  0.90490  1.0000 0.0637640082
C   C40       1.0  0.69470  0.22360  0.09510  1.0000 0.0637640082
C   C41       1.0  0.25770  0.36650  0.56240  1.0000 0.6295325807
C   C42       1.0  0.25770  0.63350  0.43760  1.0000 0.6295325807
C   C43       1.0  0.74230  0.86650  0.93760  1.0000 0.6295325807
C   C44       1.0  0.74230  0.13350  0.06240  1.0000 0.6295325807
C   C45       1.0  0.42390  0.26740  0.58570  1.0000 -0.4550750204
C   C46       1.0  0.42390  0.73260  0.41430  1.0000 -0.4550750204
C   C47       1.0  0.57610  0.76740  0.91430  1.0000 -0.4550750204
C   C48       1.0  0.57610  0.23260  0.08570  1.0000 -0.4550750204
C   C49       1.0  0.06970  0.33980  0.81790  1.0000 0.5589199713
C   C50       1.0  0.06970  0.66020  0.18210  1.0000 0.5589199713
C   C51       1.0  0.93030  0.83980  0.68210  1.0000 0.5589199713
C   C52       1.0  0.93030  0.16020  0.31790  1.0000 0.5589199713
C   C53       1.0  0.17740  0.00000  0.00000  1.0000 -0.3801474222
C   C54       1.0  0.82260  0.50000  0.50000  1.0000 -0.3801474222
C   C55       1.0  0.23610  0.02630  0.95180  1.0000 0.3009248129
C   C56       1.0  0.23610  0.97370  0.04820  1.0000 0.3009248129
C   C57       1.0  0.76390  0.52630  0.54820  1.0000 0.3009248129
C   C58       1.0  0.76390  0.47370  0.45180  1.0000 0.3009248129
C   C59       1.0  0.34960  0.02760  0.95280  1.0000 -0.2483646409
C   C60       1.0  0.34960  0.97240  0.04720  1.0000 -0.2483646409
C   C61       1.0  0.65040  0.52760  0.54720  1.0000 -0.2483646409
C   C62       1.0  0.65040  0.47240  0.45280  1.0000 -0.2483646409
C   C63       1.0  0.40440  0.00000  0.00000  1.0000 0.0063147074
C   C64       1.0  0.59560  0.50000  0.50000  1.0000 0.0063147074
C   C65       1.0  0.52570  0.00000  0.00000  1.0000 0.6427170089
C   C66       1.0  0.47430  0.50000  0.50000  1.0000 0.6427170089
C   C67       1.0  0.07600  0.05050  0.89580  1.0000 0.077497588
C   C68       1.0  0.07600  0.94950  0.10420  1.0000 0.077497588
C   C69       1.0  0.92400  0.55050  0.60420  1.0000 0.077497588
C   C70       1.0  0.92400  0.44950  0.39580  1.0000 0.077497588
C   C71       1.0  0.01740  0.14120  0.92490  1.0000 0.605092471
C   C72       1.0  0.01740  0.85880  0.07510  1.0000 0.605092471
C   C73       1.0  0.98260  0.64120  0.57510  1.0000 0.605092471
C   C74       1.0  0.98260  0.35880  0.42490  1.0000 0.605092471
C   C75       1.0  0.05490  0.05080  0.83350  1.0000 -0.45071579
C   C76       1.0  0.05490  0.94920  0.16650  1.0000 -0.45071579
C   C77       1.0  0.94510  0.55080  0.66650  1.0000 -0.45071579
C   C78       1.0  0.94510  0.44920  0.33350  1.0000 -0.45071579
C   C79       1.0  0.39680  0.50000  0.00000  1.0000 0.0303718362
C   C80       1.0  0.60320  0.00000  0.50000  1.0000 0.0303718362
C   C81       1.0  0.45280  0.51280  0.05000  1.0000 -0.2392783524
C   C82       1.0  0.45280  0.48720  0.95000  1.0000 -0.2392783524
C   C83       1.0  0.54720  0.01280  0.45000  1.0000 -0.2392783524
C   C84       1.0  0.54720  0.98720  0.55000  1.0000 -0.2392783524
C   C85       1.0  0.56240  0.51250  0.04740  1.0000 0.2416854291
C   C86       1.0  0.56240  0.48750  0.95260  1.0000 0.2416854291
C   C87       1.0  0.43760  0.01250  0.45260  1.0000 0.2416854291
C   C88       1.0  0.43760  0.98750  0.54740  1.0000 0.2416854291
C   C89       1.0  0.62090  0.50000  0.00000  1.0000 -0.3184154579
C   C90       1.0  0.37910  0.00000  0.50000  1.0000 -0.3184154579
C   C91       1.0  0.27360  0.50000  0.00000  1.0000 0.6295325807
C   C92       1.0  0.72640  0.00000  0.50000  1.0000 0.6295325807
C   C93       1.0  0.72570  0.51040  0.10510  1.0000 0.0637640082
C   C94       1.0  0.72570  0.48960  0.89490  1.0000 0.0637640082
C   C95       1.0  0.27430  0.01040  0.39490  1.0000 0.0637640082
C   C96       1.0  0.27430  0.98960  0.60510  1.0000 0.0637640082
C   C97       1.0  0.77950  0.60540  0.07830  1.0000 0.6244417629
C   C98       1.0  0.77950  0.39460  0.92170  1.0000 0.6244417629
C   C99       1.0  0.22050  0.10540  0.42170  1.0000 0.6244417629
C   C100      1.0  0.22050  0.89460  0.57830  1.0000 0.6244417629
C   C101      1.0  0.75470  0.50400  0.16680  1.0000 -0.4387531825
C   C102      1.0  0.75470  0.49600  0.83320  1.0000 -0.4387531825
C   C103      1.0  0.24530  0.00400  0.33320  1.0000 -0.4387531825
C   C104      1.0  0.24530  0.99600  0.66680  1.0000 -0.4387531825
O   O1        1.0  0.28700  0.29200  0.65340  1.0000 -0.2155445316
O   O2        1.0  0.28700  0.70800  0.34660  1.0000 -0.2155445316
O   O3        1.0  0.71300  0.79200  0.84660  1.0000 -0.2155445316
O   O4        1.0  0.71300  0.20800  0.15340  1.0000 -0.2155445316
O   O5        1.0  0.23130  0.44670  0.58570  1.0000 -0.6212488734
O   O6        1.0  0.23130  0.55330  0.41430  1.0000 -0.6212488734
O   O7        1.0  0.76870  0.94670  0.91430  1.0000 -0.6212488734
O   O8        1.0  0.76870  0.05330  0.08570  1.0000 -0.6212488734
O   O9        1.0  0.25350  0.34640  0.51070  1.0000 -0.7094861367
O   O10       1.0  0.25350  0.65360  0.48930  1.0000 -0.7094861367
O   O11       1.0  0.74650  0.84640  0.98930  1.0000 -0.7094861367
O   O12       1.0  0.74650  0.15360  0.01070  1.0000 -0.7094861367
O   O13       1.0  0.89330  0.26930  0.64350  1.0000 -0.1966870637
O   O14       1.0  0.89330  0.73070  0.35650  1.0000 -0.1966870637
O   O15       1.0  0.10670  0.76930  0.85650  1.0000 -0.1966870637
O   O16       1.0  0.10670  0.23070  0.14350  1.0000 -0.1966870637
O   O17       1.0  0.95950  0.09790  0.53250  1.0000 -0.7094861367
O   O18       1.0  0.95950  0.90210  0.46750  1.0000 -0.7094861367
O   O19       1.0  0.04050  0.59790  0.96750  1.0000 -0.7094861367
O   O20       1.0  0.04050  0.40210  0.03250  1.0000 -0.7094861367
O   O21       1.0  0.93510  0.06810  0.62070  1.0000 -0.5651310035
O   O22       1.0  0.93510  0.93190  0.37930  1.0000 -0.5640023896
O   O23       1.0  0.06490  0.56810  0.87930  1.0000 -0.5640023896
O   O24       1.0  0.06490  0.43190  0.12070  1.0000 -0.5640023896
O   O25       1.0  0.97960  0.33420  0.84110  1.0000 -0.6100054332
O   O26       1.0  0.97960  0.66580  0.15890  1.0000 -0.6100054332
O   O27       1.0  0.02040  0.83420  0.65890  1.0000 -0.6100054332
O   O28       1.0  0.02040  0.16580  0.34110  1.0000 -0.6100054332
O   O29       1.0  0.15440  0.36230  0.84410  1.0000 -0.5997942486
O   O30       1.0  0.15440  0.63770  0.15590  1.0000 -0.5997942486
O   O31       1.0  0.84560  0.86230  0.65590  1.0000 -0.5997942486
O   O32       1.0  0.84560  0.13770  0.34410  1.0000 -0.5997942486
O   O33       1.0  0.19060  0.05200  0.90250  1.0000 -0.1932237545
O   O34       1.0  0.19060  0.94800  0.09750  1.0000 -0.1932237545
O   O35       1.0  0.80940  0.55200  0.59750  1.0000 -0.1932237545
O   O36       1.0  0.80940  0.44800  0.40250  1.0000 -0.1932237545
O   O37       1.0  0.07210  0.21560  0.93970  1.0000 -0.6212488734
O   O38       1.0  0.07210  0.78440  0.06030  1.0000 -0.6212488734
O   O39       1.0  0.92790  0.71560  0.56030  1.0000 -0.6212488734
O   O40       1.0  0.92790  0.28440  0.43970  1.0000 -0.6212488734
O   O41       1.0  0.91790  0.13310  0.92660  1.0000 -0.6470690914
O   O42       1.0  0.91790  0.86690  0.07340  1.0000 -0.6470690914
O   O43       1.0  0.08210  0.63310  0.57340  1.0000 -0.6470690914
O   O44       1.0  0.08210  0.36690  0.42660  1.0000 -0.6470690914
O   O45       1.0  0.57220  0.04160  0.96060  1.0000 -0.6337342211
O   O46       1.0  0.57220  0.95840  0.03940  1.0000 -0.6337342211
O   O47       1.0  0.42780  0.54160  0.53940  1.0000 -0.6337342211
O   O48       1.0  0.42780  0.45840  0.46060  1.0000 -0.6337342211
O   O49       1.0  0.87080  0.58790  0.05870  1.0000 -0.6441371986
O   O50       1.0  0.87080  0.41210  0.94130  1.0000 -0.6441371986
O   O51       1.0  0.12920  0.08790  0.44130  1.0000 -0.6441371986
O   O52       1.0  0.12920  0.91210  0.55870  1.0000 -0.6441371986
O   O53       1.0  0.73420  0.68900  0.07910  1.0000 -0.5997942486
O   O54       1.0  0.73420  0.31100  0.92090  1.0000 -0.5997942486
O   O55       1.0  0.26580  0.18900  0.42090  1.0000 -0.5997942486
O   O56       1.0  0.26580  0.81100  0.57910  1.0000 -0.5997942486
O   O57       1.0  0.60890  0.51960  0.10070  1.0000 -0.2583880783
O   O58       1.0  0.60890  0.48040  0.89930  1.0000 -0.2583880783
O   O59       1.0  0.39110  0.01960  0.39930  1.0000 -0.2583880783
O   O60       1.0  0.39110  0.98040  0.60070  1.0000 -0.2583880783
O   O61       1.0  0.22790  0.45370  0.96070  1.0000 -0.6592886546
O   O62       1.0  0.22790  0.54630  0.03930  1.0000 -0.6592886546
O   O63       1.0  0.77210  0.95370  0.53930  1.0000 -0.6592886546
O   O64       1.0  0.77210  0.04630  0.46070  1.0000 -0.6592886546
O   O65       1.0  0.19660  0.68760  0.67130  1.0000 -0.7918414571
O   O66       1.0  0.19660  0.31240  0.32870  1.0000 -0.7918414571
O   O67       1.0  0.80340  0.18760  0.82870  1.0000 -0.7918414571
O   O68       1.0  0.80340  0.81240  0.17130  1.0000 -0.7918414571
O   O69       1.0  0.44350  0.72540  0.61030  1.0000 -0.7642387846
O   O70       1.0  0.44350  0.27460  0.38970  1.0000 -0.7642387846
O   O71       1.0  0.55650  0.22540  0.88970  1.0000 -0.7642387846
O   O72       1.0  0.55650  0.77460  0.11030  1.0000 -0.7642387846
O   O73       1.0  0.36380  0.53280  0.66260  1.0000 -0.7485855468
O   O74       1.0  0.36380  0.46720  0.33740  1.0000 -0.7485855468
O   O75       1.0  0.63620  0.03280  0.83740  1.0000 -0.7485855468
O   O76       1.0  0.63620  0.96720  0.16260  1.0000 -0.7485855468
