# DDEC6 charges by PACMAN v1.1 (https://github.com/mtap-research/PACMAN-charge/)
data_2017[Cu][rob]3[FSR]9
_chemical_formula_sum              "Cu8 H104 C92 N8 O32"
_cell_length_a       9.148
_cell_length_b       11.819
_cell_length_c       27.255
_cell_angle_alpha    90
_cell_angle_beta     90
_cell_angle_gamma    90

_symmetry_space_group_name_H-M    "P 1"
_symmetry_Int_Tables_number       1

loop_
  _symmetry_equiv_pos_as_xyz
  'x, y, z'

loop_
  _atom_site_type_symbol
  _atom_site_label
  _atom_site_symmetry_multiplicity
  _atom_site_fract_x
  _atom_site_fract_y
  _atom_site_fract_z
  _atom_site_occupancy
  _atom_site_charge
Cu  Cu1       1.0  0.42220  0.52330  0.53916  1.0000 0.7593283474
Cu  Cu2       1.0  0.42220  0.97670  0.96084  1.0000 0.7593283474
Cu  Cu3       1.0  0.07780  0.02330  0.46084  1.0000 0.7593283474
Cu  Cu4       1.0  0.07780  0.47670  0.03916  1.0000 0.7593283474
Cu  Cu5       1.0  0.57780  0.47670  0.46084  1.0000 0.7593283474
Cu  Cu6       1.0  0.57780  0.02330  0.03916  1.0000 0.7593283474
Cu  Cu7       1.0  0.92220  0.97670  0.53916  1.0000 0.7593283474
Cu  Cu8       1.0  0.92220  0.52330  0.96084  1.0000 0.7593283474
H   H1        1.0  0.27778  0.43957  0.63672  1.0000 0.1125369936
H   H2        1.0  0.31523  0.17940  0.58808  1.0000 0.1001403115
H   H3        1.0  0.47134  0.14899  0.61107  1.0000 0.0894146075
H   H4        1.0  0.44372  0.96108  0.57046  1.0000 0.1336581043
H   H5        1.0  0.34439  0.98206  0.61812  1.0000 0.1196892604
H   H6        1.0  0.58019  0.13983  0.53594  1.0000 0.139924697
H   H7        1.0  0.42736  0.13022  0.50802  1.0000 0.139924697
H   H8        1.0  0.11747  0.49741  0.69723  1.0000 0.1336581043
H   H9        1.0  0.24322  0.73191  0.56909  1.0000 0.1125369936
H   H10       1.0  0.13407  0.69074  0.76410  1.0000 0.1001403115
H   H11       1.0  0.92003  0.63438  0.72163  1.0000 0.1196892604
H   H12       1.0  0.91206  0.75507  0.69489  1.0000 0.1196892604
H   H13       1.0  0.07928  0.79727  0.62657  1.0000 0.139924697
H   H14       1.0  0.27778  0.06043  0.86328  1.0000 0.1125369936
H   H15       1.0  0.31523  0.32060  0.91192  1.0000 0.1001403115
H   H16       1.0  0.47134  0.35101  0.88893  1.0000 0.0894146075
H   H17       1.0  0.44372  0.53892  0.92954  1.0000 0.1336581043
H   H18       1.0  0.34439  0.51794  0.88188  1.0000 0.1196892604
H   H19       1.0  0.58019  0.36017  0.96406  1.0000 0.139924697
H   H20       1.0  0.42736  0.36978  0.99198  1.0000 0.139924697
H   H21       1.0  0.11747  0.00259  0.80277  1.0000 0.1336581043
H   H22       1.0  0.24322  0.76809  0.93091  1.0000 0.1125369936
H   H23       1.0  0.13407  0.80926  0.73590  1.0000 0.1001403115
H   H24       1.0  0.92003  0.86562  0.77837  1.0000 0.1196892604
H   H25       1.0  0.91206  0.74493  0.80511  1.0000 0.1196892604
H   H26       1.0  0.07928  0.70273  0.87343  1.0000 0.139924697
H   H27       1.0  0.22222  0.93957  0.36328  1.0000 0.1125369936
H   H28       1.0  0.18477  0.67940  0.41192  1.0000 0.1001403115
H   H29       1.0  0.02866  0.64899  0.38893  1.0000 0.0894146075
H   H30       1.0  0.05628  0.46108  0.42954  1.0000 0.1336581043
H   H31       1.0  0.15561  0.48206  0.38188  1.0000 0.1196892604
H   H32       1.0  0.91981  0.63983  0.46406  1.0000 0.139924697
H   H33       1.0  0.07264  0.63022  0.49198  1.0000 0.139924697
H   H34       1.0  0.38253  0.99741  0.30277  1.0000 0.1336581043
H   H35       1.0  0.25678  0.23191  0.43091  1.0000 0.1125369936
H   H36       1.0  0.36593  0.19074  0.23590  1.0000 0.1001403115
H   H37       1.0  0.57997  0.13438  0.27837  1.0000 0.1196892604
H   H38       1.0  0.58794  0.25507  0.30511  1.0000 0.1196892604
H   H39       1.0  0.42072  0.29727  0.37343  1.0000 0.139924697
H   H40       1.0  0.22222  0.56043  0.13672  1.0000 0.1125369936
H   H41       1.0  0.18477  0.82060  0.08808  1.0000 0.1001403115
H   H42       1.0  0.02866  0.85101  0.11107  1.0000 0.0894146075
H   H43       1.0  0.05628  0.03892  0.07046  1.0000 0.1336581043
H   H44       1.0  0.15561  0.01794  0.11812  1.0000 0.1196892604
H   H45       1.0  0.91981  0.86017  0.03594  1.0000 0.139924697
H   H46       1.0  0.07264  0.86978  0.00802  1.0000 0.139924697
H   H47       1.0  0.38253  0.50259  0.19723  1.0000 0.1336581043
H   H48       1.0  0.25678  0.26809  0.06909  1.0000 0.1125369936
H   H49       1.0  0.36593  0.30926  0.26410  1.0000 0.1001403115
H   H50       1.0  0.57997  0.36562  0.22163  1.0000 0.1196892604
H   H51       1.0  0.58794  0.24493  0.19489  1.0000 0.1196892604
H   H52       1.0  0.42072  0.20273  0.12657  1.0000 0.139924697
H   H53       1.0  0.72222  0.56043  0.36328  1.0000 0.1125369936
H   H54       1.0  0.68477  0.82060  0.41192  1.0000 0.1001403115
H   H55       1.0  0.52866  0.85101  0.38893  1.0000 0.0894146075
H   H56       1.0  0.55628  0.03892  0.42954  1.0000 0.1336581043
H   H57       1.0  0.65561  0.01794  0.38188  1.0000 0.1196892604
H   H58       1.0  0.41981  0.86017  0.46406  1.0000 0.139924697
H   H59       1.0  0.57264  0.86978  0.49198  1.0000 0.139924697
H   H60       1.0  0.88253  0.50259  0.30277  1.0000 0.1336581043
H   H61       1.0  0.75678  0.26809  0.43091  1.0000 0.1125369936
H   H62       1.0  0.86593  0.30926  0.23590  1.0000 0.1001403115
H   H63       1.0  0.07997  0.36562  0.27837  1.0000 0.1196892604
H   H64       1.0  0.08794  0.24493  0.30511  1.0000 0.1196892604
H   H65       1.0  0.92072  0.20273  0.37343  1.0000 0.139924697
H   H66       1.0  0.72222  0.93957  0.13672  1.0000 0.1125369936
H   H67       1.0  0.68477  0.67940  0.08808  1.0000 0.1001403115
H   H68       1.0  0.52866  0.64899  0.11107  1.0000 0.0894146075
H   H69       1.0  0.55628  0.46108  0.07046  1.0000 0.1336581043
H   H70       1.0  0.65561  0.48206  0.11812  1.0000 0.1196892604
H   H71       1.0  0.41981  0.63983  0.03594  1.0000 0.139924697
H   H72       1.0  0.57264  0.63022  0.00802  1.0000 0.139924697
H   H73       1.0  0.88253  0.99741  0.19723  1.0000 0.1336581043
H   H74       1.0  0.75678  0.23191  0.06909  1.0000 0.1125369936
H   H75       1.0  0.86593  0.19074  0.26410  1.0000 0.1001403115
H   H76       1.0  0.07997  0.13438  0.22163  1.0000 0.1196892604
H   H77       1.0  0.08794  0.25507  0.19489  1.0000 0.1196892604
H   H78       1.0  0.92072  0.29727  0.12657  1.0000 0.139924697
H   H79       1.0  0.77778  0.06043  0.63672  1.0000 0.1125369936
H   H80       1.0  0.81523  0.32060  0.58808  1.0000 0.1001403115
H   H81       1.0  0.97134  0.35101  0.61107  1.0000 0.0894146075
H   H82       1.0  0.94372  0.53892  0.57046  1.0000 0.1336581043
H   H83       1.0  0.84439  0.51794  0.61812  1.0000 0.1196892604
H   H84       1.0  0.08019  0.36017  0.53594  1.0000 0.139924697
H   H85       1.0  0.92736  0.36978  0.50802  1.0000 0.139924697
H   H86       1.0  0.61747  0.00259  0.69723  1.0000 0.1336581043
H   H87       1.0  0.74322  0.76809  0.56909  1.0000 0.1125369936
H   H88       1.0  0.63407  0.80926  0.76410  1.0000 0.1001403115
H   H89       1.0  0.42003  0.86562  0.72163  1.0000 0.1196892604
H   H90       1.0  0.41206  0.74493  0.69489  1.0000 0.1196892604
H   H91       1.0  0.57928  0.70273  0.62657  1.0000 0.139924697
H   H92       1.0  0.77778  0.43957  0.86328  1.0000 0.1125369936
H   H93       1.0  0.81523  0.17940  0.91192  1.0000 0.1001403115
H   H94       1.0  0.97134  0.14899  0.88893  1.0000 0.0894146075
H   H95       1.0  0.94372  0.96108  0.92954  1.0000 0.1336581043
H   H96       1.0  0.84439  0.98206  0.88188  1.0000 0.1196892604
H   H97       1.0  0.08019  0.13983  0.96406  1.0000 0.139924697
H   H98       1.0  0.92736  0.13022  0.99198  1.0000 0.139924697
H   H99       1.0  0.61747  0.49741  0.80277  1.0000 0.1336581043
H   H100      1.0  0.74322  0.73191  0.93091  1.0000 0.1125369936
H   H101      1.0  0.63407  0.69074  0.73590  1.0000 0.1001403115
H   H102      1.0  0.42003  0.63438  0.77837  1.0000 0.1196892604
H   H103      1.0  0.41206  0.75507  0.80511  1.0000 0.1196892604
H   H104      1.0  0.57928  0.79727  0.87343  1.0000 0.139924697
C   C1        1.0  0.07840  0.65450  0.66872  1.0000 0.1673745371
C   C2        1.0  0.23760  0.51360  0.63493  1.0000 0.082775627
C   C3        1.0  0.22670  0.98970  0.55351  1.0000 0.6251437559
C   C4        1.0  0.40440  0.13320  0.58335  1.0000 -0.0884947034
C   C5        1.0  0.36260  0.00690  0.58397  1.0000 -0.3302635133
C   C6        1.0  0.47840  0.16830  0.53548  1.0000 -0.3482631736
C   C7        1.0  0.14110  0.54710  0.67101  1.0000 -0.2120694222
C   C8        1.0  0.48230  0.29340  0.52500  1.0000 0.6238216057
C   C9        1.0  0.21700  0.68360  0.59551  1.0000 0.0894146075
C   C10       1.0  0.97940  0.69750  0.70854  1.0000 -0.268604073
C   C11       1.0  0.11900  0.72330  0.62965  1.0000 -0.2120694222
C   C12       1.0  0.07840  0.84550  0.83128  1.0000 0.1673745371
C   C13       1.0  0.23760  0.98640  0.86507  1.0000 0.082775627
C   C14       1.0  0.22670  0.51030  0.94649  1.0000 0.6251437559
C   C15       1.0  0.40440  0.36680  0.91665  1.0000 -0.0884947034
C   C16       1.0  0.36260  0.49310  0.91603  1.0000 -0.3302635133
C   C17       1.0  0.47840  0.33170  0.96452  1.0000 -0.3482631736
C   C18       1.0  0.14110  0.95290  0.82899  1.0000 -0.2120694222
C   C19       1.0  0.48230  0.20660  0.97500  1.0000 0.6238216057
C   C20       1.0  0.21700  0.81640  0.90449  1.0000 0.0894146075
C   C21       1.0  0.97940  0.80250  0.79146  1.0000 -0.268604073
C   C22       1.0  0.11900  0.77670  0.87035  1.0000 -0.2120694222
C   C23       1.0  0.42160  0.15450  0.33128  1.0000 0.1673745371
C   C24       1.0  0.26240  0.01360  0.36507  1.0000 0.082775627
C   C25       1.0  0.27330  0.48970  0.44649  1.0000 0.6251437559
C   C26       1.0  0.09560  0.63320  0.41665  1.0000 -0.0884947034
C   C27       1.0  0.13740  0.50690  0.41603  1.0000 -0.3302635133
C   C28       1.0  0.02160  0.66830  0.46452  1.0000 -0.3482631736
C   C29       1.0  0.35890  0.04710  0.32899  1.0000 -0.2120694222
C   C30       1.0  0.01770  0.79340  0.47500  1.0000 0.6238216057
C   C31       1.0  0.28300  0.18360  0.40449  1.0000 0.0894146075
C   C32       1.0  0.52060  0.19750  0.29146  1.0000 -0.268604073
C   C33       1.0  0.38100  0.22330  0.37035  1.0000 -0.2120694222
C   C34       1.0  0.42160  0.34550  0.16872  1.0000 0.1673745371
C   C35       1.0  0.26240  0.48640  0.13493  1.0000 0.082775627
C   C36       1.0  0.27330  0.01030  0.05351  1.0000 0.6251437559
C   C37       1.0  0.09560  0.86680  0.08335  1.0000 -0.0884947034
C   C38       1.0  0.13740  0.99310  0.08397  1.0000 -0.3302635133
C   C39       1.0  0.02160  0.83170  0.03548  1.0000 -0.3482631736
C   C40       1.0  0.35890  0.45290  0.17101  1.0000 -0.2120694222
C   C41       1.0  0.01770  0.70660  0.02500  1.0000 0.6238216057
C   C42       1.0  0.28300  0.31640  0.09551  1.0000 0.0894146075
C   C43       1.0  0.52060  0.30250  0.20854  1.0000 -0.268604073
C   C44       1.0  0.38100  0.27670  0.12965  1.0000 -0.2120694222
C   C45       1.0  0.92160  0.34550  0.33128  1.0000 0.1673745371
C   C46       1.0  0.76240  0.48640  0.36507  1.0000 0.082775627
C   C47       1.0  0.77330  0.01030  0.44649  1.0000 0.6251437559
C   C48       1.0  0.59560  0.86680  0.41665  1.0000 -0.0884947034
C   C49       1.0  0.63740  0.99310  0.41603  1.0000 -0.3302635133
C   C50       1.0  0.52160  0.83170  0.46452  1.0000 -0.3482631736
C   C51       1.0  0.85890  0.45290  0.32899  1.0000 -0.2120694222
C   C52       1.0  0.51770  0.70660  0.47500  1.0000 0.6238216057
C   C53       1.0  0.78300  0.31640  0.40449  1.0000 0.0894146075
C   C54       1.0  0.02060  0.30250  0.29146  1.0000 -0.268604073
C   C55       1.0  0.88100  0.27670  0.37035  1.0000 -0.2120694222
C   C56       1.0  0.92160  0.15450  0.16872  1.0000 0.1673745371
C   C57       1.0  0.76240  0.01360  0.13493  1.0000 0.082775627
C   C58       1.0  0.77330  0.48970  0.05351  1.0000 0.6251437559
C   C59       1.0  0.59560  0.63320  0.08335  1.0000 -0.0884947034
C   C60       1.0  0.63740  0.50690  0.08397  1.0000 -0.3302635133
C   C61       1.0  0.52160  0.66830  0.03548  1.0000 -0.3482631736
C   C62       1.0  0.85890  0.04710  0.17101  1.0000 -0.2120694222
C   C63       1.0  0.51770  0.79340  0.02500  1.0000 0.6238216057
C   C64       1.0  0.78300  0.18360  0.09551  1.0000 0.0894146075
C   C65       1.0  0.02060  0.19750  0.20854  1.0000 -0.268604073
C   C66       1.0  0.88100  0.22330  0.12965  1.0000 -0.2120694222
C   C67       1.0  0.57840  0.84550  0.66872  1.0000 0.1673745371
C   C68       1.0  0.73760  0.98640  0.63493  1.0000 0.082775627
C   C69       1.0  0.72670  0.51030  0.55351  1.0000 0.6251437559
C   C70       1.0  0.90440  0.36680  0.58335  1.0000 -0.0884947034
C   C71       1.0  0.86260  0.49310  0.58397  1.0000 -0.3302635133
C   C72       1.0  0.97840  0.33170  0.53548  1.0000 -0.3482631736
C   C73       1.0  0.64110  0.95290  0.67101  1.0000 -0.2120694222
C   C74       1.0  0.98230  0.20660  0.52500  1.0000 0.6238216057
C   C75       1.0  0.71700  0.81640  0.59551  1.0000 0.0894146075
C   C76       1.0  0.47940  0.80250  0.70854  1.0000 -0.268604073
C   C77       1.0  0.61900  0.77670  0.62965  1.0000 -0.2120694222
C   C78       1.0  0.57840  0.65450  0.83128  1.0000 0.1673745371
C   C79       1.0  0.73760  0.51360  0.86507  1.0000 0.082775627
C   C80       1.0  0.72670  0.98970  0.94649  1.0000 0.6251437559
C   C81       1.0  0.90440  0.13320  0.91665  1.0000 -0.0884947034
C   C82       1.0  0.86260  0.00690  0.91603  1.0000 -0.3302635133
C   C83       1.0  0.97840  0.16830  0.96452  1.0000 -0.3482631736
C   C84       1.0  0.64110  0.54710  0.82899  1.0000 -0.2120694222
C   C85       1.0  0.98230  0.29340  0.97500  1.0000 0.6238216057
C   C86       1.0  0.71700  0.68360  0.90449  1.0000 0.0894146075
C   C87       1.0  0.47940  0.69750  0.79146  1.0000 -0.268604073
C   C88       1.0  0.61900  0.72330  0.87035  1.0000 -0.2120694222
C   C89       1.0  0.07010  0.75000  0.75000  1.0000 -0.1370713816
C   C90       1.0  0.42990  0.25000  0.25000  1.0000 -0.1370713816
C   C91       1.0  0.92990  0.25000  0.25000  1.0000 -0.1370713816
C   C92       1.0  0.57010  0.75000  0.75000  1.0000 -0.1370713816
N   N1        1.0  0.27760  0.58037  0.59744  1.0000 -0.2519317523
N   N2        1.0  0.27760  0.91963  0.90256  1.0000 -0.2519317523
N   N3        1.0  0.22240  0.08037  0.40256  1.0000 -0.2519317523
N   N4        1.0  0.22240  0.41963  0.09744  1.0000 -0.2519317523
N   N5        1.0  0.72240  0.41963  0.40256  1.0000 -0.2519317523
N   N6        1.0  0.72240  0.08037  0.09744  1.0000 -0.2519317523
N   N7        1.0  0.77760  0.91963  0.59744  1.0000 -0.2519317523
N   N8        1.0  0.77760  0.58037  0.90256  1.0000 -0.2519317523
O   O1        1.0  0.41830  0.36074  0.55406  1.0000 -0.5160880194
O   O2        1.0  0.10820  0.97162  0.57582  1.0000 -0.5351782695
O   O3        1.0  0.54880  0.32249  0.48648  1.0000 -0.5453438714
O   O4        1.0  0.23930  0.00111  0.50764  1.0000 -0.5319438681
O   O5        1.0  0.41830  0.13926  0.94594  1.0000 -0.5160880194
O   O6        1.0  0.10820  0.52838  0.92418  1.0000 -0.5351782695
O   O7        1.0  0.54880  0.17751  0.01352  1.0000 -0.5453438714
O   O8        1.0  0.23930  0.49889  0.99236  1.0000 -0.5319438681
O   O9        1.0  0.08170  0.86074  0.44594  1.0000 -0.5160880194
O   O10       1.0  0.39180  0.47162  0.42418  1.0000 -0.5351782695
O   O11       1.0  0.95120  0.82249  0.51352  1.0000 -0.5453438714
O   O12       1.0  0.26070  0.50111  0.49236  1.0000 -0.5319438681
O   O13       1.0  0.08170  0.63926  0.05406  1.0000 -0.5160880194
O   O14       1.0  0.39180  0.02838  0.07582  1.0000 -0.5351782695
O   O15       1.0  0.95120  0.67751  0.98648  1.0000 -0.5453438714
O   O16       1.0  0.26070  0.99889  0.00764  1.0000 -0.5319438681
O   O17       1.0  0.58170  0.63926  0.44594  1.0000 -0.5160880194
O   O18       1.0  0.89180  0.02838  0.42418  1.0000 -0.5351782695
O   O19       1.0  0.45120  0.67751  0.51352  1.0000 -0.5453438714
O   O20       1.0  0.76070  0.99889  0.49236  1.0000 -0.5319438681
O   O21       1.0  0.58170  0.86074  0.05406  1.0000 -0.5160880194
O   O22       1.0  0.89180  0.47162  0.07582  1.0000 -0.5351782695
O   O23       1.0  0.45120  0.82249  0.98648  1.0000 -0.5453438714
O   O24       1.0  0.76070  0.50111  0.00764  1.0000 -0.5319438681
O   O25       1.0  0.91830  0.13926  0.55406  1.0000 -0.5160880194
O   O26       1.0  0.60820  0.52838  0.57582  1.0000 -0.5351782695
O   O27       1.0  0.04880  0.17751  0.48648  1.0000 -0.5453438714
O   O28       1.0  0.73930  0.49889  0.50764  1.0000 -0.5319438681
O   O29       1.0  0.91830  0.36074  0.94594  1.0000 -0.5160880194
O   O30       1.0  0.60820  0.97162  0.92418  1.0000 -0.5351782695
O   O31       1.0  0.04880  0.32249  0.01352  1.0000 -0.5453438714
O   O32       1.0  0.73930  0.00111  0.99236  1.0000 -0.5319438681
