# DDEC6 charges by PACMAN v1.1 (https://github.com/mtap-research/PACMAN-charge/)
data_2017[Co][pcu]2[FSR]12
_chemical_formula_sum              "Co8 H88 C144 N56 O48"
_cell_length_a       10.087
_cell_length_b       19.268
_cell_length_c       20.93
_cell_angle_alpha    90
_cell_angle_beta     90
_cell_angle_gamma    90

_symmetry_space_group_name_H-M    "P 1"
_symmetry_Int_Tables_number       1

loop_
  _symmetry_equiv_pos_as_xyz
  'x, y, z'

loop_
  _atom_site_type_symbol
  _atom_site_label
  _atom_site_symmetry_multiplicity
  _atom_site_fract_x
  _atom_site_fract_y
  _atom_site_fract_z
  _atom_site_occupancy
  _atom_site_charge
Co  Co1       1.0  0.57457  0.05402  0.56199  1.0000 0.8505230561
Co  Co2       1.0  0.57457  0.44598  0.06199  1.0000 0.8505230561
Co  Co3       1.0  0.92543  0.94598  0.06199  1.0000 0.8505230561
Co  Co4       1.0  0.92543  0.55402  0.56199  1.0000 0.8505230561
Co  Co5       1.0  0.42543  0.55402  0.93801  1.0000 0.8505230561
Co  Co6       1.0  0.42543  0.94598  0.43801  1.0000 0.8505230561
Co  Co7       1.0  0.07457  0.44598  0.43801  1.0000 0.8505230561
Co  Co8       1.0  0.07457  0.05402  0.93801  1.0000 0.8505230561
H   H1        1.0  0.04010  0.06470  0.56780  1.0000 0.1199135748
H   H2        1.0  0.27960  0.89860  0.59490  1.0000 0.1323930088
H   H3        1.0  0.87880  0.87570  0.60240  1.0000 0.1323930088
H   H4        1.0  0.41120  0.13180  0.45210  1.0000 0.1323930088
H   H5        1.0  0.41310  0.35020  0.16710  1.0000 0.1199135748
H   H6        1.0  0.60310  0.32010  0.36130  1.0000 0.1589313816
H   H7        1.0  0.20340  0.23060  0.30180  1.0000 0.092033885
H   H8        1.0  0.72120  0.20320  0.54720  1.0000 0.1199135748
H   H9        1.0  0.66590  0.29130  0.46670  1.0000 0.1378512471
H   H10       1.0  0.66830  0.41630  0.30110  1.0000 0.1323930088
H   H11       1.0  0.71810  0.47320  0.19890  1.0000 0.1199135748
H   H12       1.0  0.04010  0.43530  0.06780  1.0000 0.1199135748
H   H13       1.0  0.27960  0.60140  0.09490  1.0000 0.1323930088
H   H14       1.0  0.87880  0.62430  0.10240  1.0000 0.1323930088
H   H15       1.0  0.41120  0.36820  0.95210  1.0000 0.1323930088
H   H16       1.0  0.41310  0.14980  0.66710  1.0000 0.1199135748
H   H17       1.0  0.60310  0.17990  0.86130  1.0000 0.1589313816
H   H18       1.0  0.20340  0.26940  0.80180  1.0000 0.092033885
H   H19       1.0  0.72120  0.29680  0.04720  1.0000 0.1199135748
H   H20       1.0  0.66590  0.20870  0.96670  1.0000 0.1378512471
H   H21       1.0  0.66830  0.08370  0.80110  1.0000 0.1323930088
H   H22       1.0  0.71810  0.02680  0.69890  1.0000 0.1199135748
H   H23       1.0  0.45990  0.93530  0.06780  1.0000 0.1199135748
H   H24       1.0  0.22040  0.10140  0.09490  1.0000 0.1323930088
H   H25       1.0  0.62120  0.12430  0.10240  1.0000 0.1323930088
H   H26       1.0  0.08880  0.86820  0.95210  1.0000 0.1323930088
H   H27       1.0  0.08690  0.64980  0.66710  1.0000 0.1199135748
H   H28       1.0  0.89690  0.67990  0.86130  1.0000 0.1589313816
H   H29       1.0  0.29660  0.76940  0.80180  1.0000 0.092033885
H   H30       1.0  0.77880  0.79680  0.04720  1.0000 0.1199135748
H   H31       1.0  0.83410  0.70870  0.96670  1.0000 0.1378512471
H   H32       1.0  0.83170  0.58370  0.80110  1.0000 0.1323930088
H   H33       1.0  0.78190  0.52680  0.69890  1.0000 0.1199135748
H   H34       1.0  0.45990  0.56470  0.56780  1.0000 0.1199135748
H   H35       1.0  0.22040  0.39860  0.59490  1.0000 0.1323930088
H   H36       1.0  0.62120  0.37570  0.60240  1.0000 0.1323930088
H   H37       1.0  0.08880  0.63180  0.45210  1.0000 0.1323930088
H   H38       1.0  0.08690  0.85020  0.16710  1.0000 0.1199135748
H   H39       1.0  0.89690  0.82010  0.36130  1.0000 0.1589313816
H   H40       1.0  0.29660  0.73060  0.30180  1.0000 0.092033885
H   H41       1.0  0.77880  0.70320  0.54720  1.0000 0.1199135748
H   H42       1.0  0.83410  0.79130  0.46670  1.0000 0.1378512471
H   H43       1.0  0.83170  0.91630  0.30110  1.0000 0.1323930088
H   H44       1.0  0.78190  0.97320  0.19890  1.0000 0.1199135748
H   H45       1.0  0.95990  0.56470  0.93220  1.0000 0.1199135748
H   H46       1.0  0.72040  0.39860  0.90510  1.0000 0.1323930088
H   H47       1.0  0.12120  0.37570  0.89760  1.0000 0.1323930088
H   H48       1.0  0.58880  0.63180  0.04790  1.0000 0.1323930088
H   H49       1.0  0.58690  0.85020  0.33290  1.0000 0.1199135748
H   H50       1.0  0.39690  0.82010  0.13870  1.0000 0.1589313816
H   H51       1.0  0.79660  0.73060  0.19820  1.0000 0.092033885
H   H52       1.0  0.27880  0.70320  0.95280  1.0000 0.1199135748
H   H53       1.0  0.33410  0.79130  0.03330  1.0000 0.1378512471
H   H54       1.0  0.33170  0.91630  0.19890  1.0000 0.1323930088
H   H55       1.0  0.28190  0.97320  0.30110  1.0000 0.1199135748
H   H56       1.0  0.95990  0.93530  0.43220  1.0000 0.1199135748
H   H57       1.0  0.72040  0.10140  0.40510  1.0000 0.1323930088
H   H58       1.0  0.12120  0.12430  0.39760  1.0000 0.1323930088
H   H59       1.0  0.58880  0.86820  0.54790  1.0000 0.1323930088
H   H60       1.0  0.58690  0.64980  0.83290  1.0000 0.1199135748
H   H61       1.0  0.39690  0.67990  0.63870  1.0000 0.1589313816
H   H62       1.0  0.79660  0.76940  0.69820  1.0000 0.092033885
H   H63       1.0  0.27880  0.79680  0.45280  1.0000 0.1199135748
H   H64       1.0  0.33410  0.70870  0.53330  1.0000 0.1378512471
H   H65       1.0  0.33170  0.58370  0.69890  1.0000 0.1323930088
H   H66       1.0  0.28190  0.52680  0.80110  1.0000 0.1199135748
H   H67       1.0  0.54010  0.43530  0.43220  1.0000 0.1199135748
H   H68       1.0  0.77960  0.60140  0.40510  1.0000 0.1323930088
H   H69       1.0  0.37880  0.62430  0.39760  1.0000 0.1323930088
H   H70       1.0  0.91120  0.36820  0.54790  1.0000 0.1323930088
H   H71       1.0  0.91310  0.14980  0.83290  1.0000 0.1199135748
H   H72       1.0  0.10310  0.17990  0.63870  1.0000 0.1589313816
H   H73       1.0  0.70340  0.26940  0.69820  1.0000 0.092033885
H   H74       1.0  0.22120  0.29680  0.45280  1.0000 0.1199135748
H   H75       1.0  0.16590  0.20870  0.53330  1.0000 0.1378512471
H   H76       1.0  0.16830  0.08370  0.69890  1.0000 0.1323930088
H   H77       1.0  0.21810  0.02680  0.80110  1.0000 0.1199135748
H   H78       1.0  0.54010  0.06470  0.93220  1.0000 0.1199135748
H   H79       1.0  0.77960  0.89860  0.90510  1.0000 0.1323930088
H   H80       1.0  0.37880  0.87570  0.89760  1.0000 0.1323930088
H   H81       1.0  0.91120  0.13180  0.04790  1.0000 0.1323930088
H   H82       1.0  0.91310  0.35020  0.33290  1.0000 0.1199135748
H   H83       1.0  0.10310  0.32010  0.13870  1.0000 0.1589313816
H   H84       1.0  0.70340  0.23060  0.19820  1.0000 0.092033885
H   H85       1.0  0.22120  0.20320  0.95280  1.0000 0.1199135748
H   H86       1.0  0.16590  0.29130  0.03330  1.0000 0.1378512471
H   H87       1.0  0.16830  0.41630  0.19890  1.0000 0.1323930088
H   H88       1.0  0.21810  0.47320  0.30110  1.0000 0.1199135748
C   C1        1.0  0.05080  0.01640  0.57540  1.0000 -0.1164265633
C   C2        1.0  0.93950  0.97520  0.58380  1.0000 0.0060197273
C   C3        1.0  0.29540  0.03530  0.56850  1.0000 0.5580268367
C   C4        1.0  0.80470  0.00700  0.57740  1.0000 0.5168656274
C   C5        1.0  0.17690  0.98860  0.57800  1.0000 -0.0024645278
C   C6        1.0  0.08180  0.87920  0.60350  1.0000 0.0656209751
C   C7        1.0  0.19370  0.91860  0.59260  1.0000 -0.1354345665
C   C8        1.0  0.95390  0.90500  0.59740  1.0000 -0.1518326238
C   C9        1.0  0.48210  0.16060  0.46590  1.0000 0.1378512471
C   C10       1.0  0.48410  0.37400  0.18730  1.0000 0.1323930088
C   C11       1.0  0.45510  0.25160  0.38360  1.0000 0.3406120851
C   C12       1.0  0.52070  0.30070  0.34850  1.0000 -0.3257987038
C   C13       1.0  0.28750  0.24870  0.31370  1.0000 0.2323630168
C   C14       1.0  0.45670  0.31970  0.29270  1.0000 0.3497816115
C   C15       1.0  0.65060  0.20000  0.51720  1.0000 -0.0218333683
C   C16       1.0  0.62110  0.24860  0.47340  1.0000 -0.1044266378
C   C17       1.0  0.62290  0.40970  0.26180  1.0000 -0.0901826979
C   C18       1.0  0.64920  0.44030  0.20540  1.0000 -0.0218333683
C   C19       1.0  0.05080  0.48360  0.07540  1.0000 -0.1164265633
C   C20       1.0  0.93950  0.52480  0.08380  1.0000 0.0060197273
C   C21       1.0  0.29540  0.46470  0.06850  1.0000 0.5580268367
C   C22       1.0  0.80470  0.49300  0.07740  1.0000 0.5168656274
C   C23       1.0  0.17690  0.51140  0.07800  1.0000 -0.0024645278
C   C24       1.0  0.08180  0.62080  0.10350  1.0000 0.0656209751
C   C25       1.0  0.19370  0.58140  0.09260  1.0000 -0.1354345665
C   C26       1.0  0.95390  0.59500  0.09740  1.0000 -0.1518326238
C   C27       1.0  0.48210  0.33940  0.96590  1.0000 0.1378512471
C   C28       1.0  0.48410  0.12600  0.68730  1.0000 0.1323930088
C   C29       1.0  0.45510  0.24840  0.88360  1.0000 0.3406120851
C   C30       1.0  0.52070  0.19930  0.84850  1.0000 -0.3257987038
C   C31       1.0  0.28750  0.25130  0.81370  1.0000 0.2323630168
C   C32       1.0  0.45670  0.18030  0.79270  1.0000 0.3497816115
C   C33       1.0  0.65060  0.30000  0.01720  1.0000 -0.0218333683
C   C34       1.0  0.62110  0.25140  0.97340  1.0000 -0.1044266378
C   C35       1.0  0.62290  0.09030  0.76180  1.0000 -0.0901826979
C   C36       1.0  0.64920  0.05970  0.70540  1.0000 -0.0218333683
C   C37       1.0  0.44920  0.98360  0.07540  1.0000 -0.1164265633
C   C38       1.0  0.56050  0.02480  0.08380  1.0000 0.0060197273
C   C39       1.0  0.20460  0.96470  0.06850  1.0000 0.5580268367
C   C40       1.0  0.69530  0.99300  0.07740  1.0000 0.5168656274
C   C41       1.0  0.32310  0.01140  0.07800  1.0000 -0.0024645278
C   C42       1.0  0.41820  0.12080  0.10350  1.0000 0.0656209751
C   C43       1.0  0.30630  0.08140  0.09260  1.0000 -0.1349051432
C   C44       1.0  0.54610  0.09500  0.09740  1.0000 -0.1518326238
C   C45       1.0  0.01790  0.83940  0.96590  1.0000 0.1378512471
C   C46       1.0  0.01590  0.62600  0.68730  1.0000 0.1323930088
C   C47       1.0  0.04490  0.74840  0.88360  1.0000 0.3406120851
C   C48       1.0  0.97930  0.69930  0.84850  1.0000 -0.3257987038
C   C49       1.0  0.21250  0.75130  0.81370  1.0000 0.2323630168
C   C50       1.0  0.04330  0.68030  0.79270  1.0000 0.3497816115
C   C51       1.0  0.84940  0.80000  0.01720  1.0000 -0.0218333683
C   C52       1.0  0.87890  0.75140  0.97340  1.0000 -0.1044266378
C   C53       1.0  0.87710  0.59030  0.76180  1.0000 -0.0901826979
C   C54       1.0  0.85080  0.55970  0.70540  1.0000 -0.0218333683
C   C55       1.0  0.44920  0.51640  0.57540  1.0000 -0.1164265633
C   C56       1.0  0.56050  0.47520  0.58380  1.0000 0.0060197273
C   C57       1.0  0.20460  0.53530  0.56850  1.0000 0.5580268367
C   C58       1.0  0.69530  0.50700  0.57740  1.0000 0.5168656274
C   C59       1.0  0.32310  0.48860  0.57800  1.0000 -0.0024645278
C   C60       1.0  0.41820  0.37920  0.60350  1.0000 0.0656209751
C   C61       1.0  0.30630  0.41860  0.59260  1.0000 -0.1354345665
C   C62       1.0  0.54610  0.40500  0.59740  1.0000 -0.1518326238
C   C63       1.0  0.01790  0.66060  0.46590  1.0000 0.1378512471
C   C64       1.0  0.01590  0.87400  0.18730  1.0000 0.1323930088
C   C65       1.0  0.04490  0.75160  0.38360  1.0000 0.3406120851
C   C66       1.0  0.97930  0.80070  0.34850  1.0000 -0.3257987038
C   C67       1.0  0.21250  0.74870  0.31370  1.0000 0.2323630168
C   C68       1.0  0.04330  0.81970  0.29270  1.0000 0.3497816115
C   C69       1.0  0.84940  0.70000  0.51720  1.0000 -0.0218333683
C   C70       1.0  0.87890  0.74860  0.47340  1.0000 -0.1044266378
C   C71       1.0  0.87710  0.90970  0.26180  1.0000 -0.0901826979
C   C72       1.0  0.85080  0.94030  0.20540  1.0000 -0.0218333683
C   C73       1.0  0.94920  0.51640  0.92460  1.0000 -0.1164265633
C   C74       1.0  0.06050  0.47520  0.91620  1.0000 0.0060197273
C   C75       1.0  0.70460  0.53530  0.93150  1.0000 0.5580268367
C   C76       1.0  0.19530  0.50700  0.92260  1.0000 0.5168656274
C   C77       1.0  0.82310  0.48860  0.92200  1.0000 -0.0024645278
C   C78       1.0  0.91820  0.37920  0.89650  1.0000 0.0656209751
C   C79       1.0  0.80630  0.41860  0.90740  1.0000 -0.1354345665
C   C80       1.0  0.04610  0.40500  0.90260  1.0000 -0.1518326238
C   C81       1.0  0.51790  0.66060  0.03410  1.0000 0.1378512471
C   C82       1.0  0.51590  0.87400  0.31270  1.0000 0.1323930088
C   C83       1.0  0.54490  0.75160  0.11640  1.0000 0.3406120851
C   C84       1.0  0.47930  0.80070  0.15150  1.0000 -0.3257987038
C   C85       1.0  0.71250  0.74870  0.18630  1.0000 0.2323630168
C   C86       1.0  0.54330  0.81970  0.20730  1.0000 0.3497816115
C   C87       1.0  0.34940  0.70000  0.98280  1.0000 -0.0218333683
C   C88       1.0  0.37890  0.74860  0.02660  1.0000 -0.1044266378
C   C89       1.0  0.37710  0.90970  0.23820  1.0000 -0.0901826979
C   C90       1.0  0.35080  0.94030  0.29460  1.0000 -0.0218333683
C   C91       1.0  0.94920  0.98360  0.42460  1.0000 -0.1164265633
C   C92       1.0  0.06050  0.02480  0.41620  1.0000 0.0060197273
C   C93       1.0  0.70460  0.96470  0.43150  1.0000 0.5580268367
C   C94       1.0  0.19530  0.99300  0.42260  1.0000 0.5168656274
C   C95       1.0  0.82310  0.01140  0.42200  1.0000 -0.0024645278
C   C96       1.0  0.91820  0.12080  0.39650  1.0000 0.0656209751
C   C97       1.0  0.80630  0.08140  0.40740  1.0000 -0.1349051432
C   C98       1.0  0.04610  0.09500  0.40260  1.0000 -0.1518326238
C   C99       1.0  0.51790  0.83940  0.53410  1.0000 0.1378512471
C   C100      1.0  0.51590  0.62600  0.81270  1.0000 0.1323930088
C   C101      1.0  0.54490  0.74840  0.61640  1.0000 0.3406120851
C   C102      1.0  0.47930  0.69930  0.65150  1.0000 -0.3257987038
C   C103      1.0  0.71250  0.75130  0.68630  1.0000 0.2323630168
C   C104      1.0  0.54330  0.68030  0.70730  1.0000 0.3497816115
C   C105      1.0  0.34940  0.80000  0.48280  1.0000 -0.0218333683
C   C106      1.0  0.37890  0.75140  0.52660  1.0000 -0.1044266378
C   C107      1.0  0.37710  0.59030  0.73820  1.0000 -0.0901826979
C   C108      1.0  0.35080  0.55970  0.79460  1.0000 -0.0218333683
C   C109      1.0  0.55080  0.48360  0.42460  1.0000 -0.1164265633
C   C110      1.0  0.43950  0.52480  0.41620  1.0000 0.0060197273
C   C111      1.0  0.79540  0.46470  0.43150  1.0000 0.5580268367
C   C112      1.0  0.30470  0.49300  0.42260  1.0000 0.5168656274
C   C113      1.0  0.67690  0.51140  0.42200  1.0000 -0.0024645278
C   C114      1.0  0.58180  0.62080  0.39650  1.0000 0.0656209751
C   C115      1.0  0.69370  0.58140  0.40740  1.0000 -0.1354345665
C   C116      1.0  0.45390  0.59500  0.40260  1.0000 -0.1518326238
C   C117      1.0  0.98210  0.33940  0.53410  1.0000 0.1378512471
C   C118      1.0  0.98410  0.12600  0.81270  1.0000 0.1323930088
C   C119      1.0  0.95510  0.24840  0.61640  1.0000 0.3406120851
C   C120      1.0  0.02070  0.19930  0.65150  1.0000 -0.3249964849
C   C121      1.0  0.78750  0.25130  0.68630  1.0000 0.2323630168
C   C122      1.0  0.95670  0.18030  0.70730  1.0000 0.3497816115
C   C123      1.0  0.15060  0.30000  0.48280  1.0000 -0.0218333683
C   C124      1.0  0.12110  0.25140  0.52660  1.0000 -0.1044266378
C   C125      1.0  0.12290  0.09030  0.73820  1.0000 -0.0901826979
C   C126      1.0  0.14920  0.05970  0.79460  1.0000 -0.0218333683
C   C127      1.0  0.55080  0.01640  0.92460  1.0000 -0.1164265633
C   C128      1.0  0.43950  0.97520  0.91620  1.0000 0.0060197273
C   C129      1.0  0.79540  0.03530  0.93150  1.0000 0.5580268367
C   C130      1.0  0.30470  0.00700  0.92260  1.0000 0.5168656274
C   C131      1.0  0.67690  0.98860  0.92200  1.0000 -0.0024645278
C   C132      1.0  0.58180  0.87920  0.89650  1.0000 0.0656209751
C   C133      1.0  0.69370  0.91860  0.90740  1.0000 -0.1354345665
C   C134      1.0  0.45390  0.90500  0.90260  1.0000 -0.1518326238
C   C135      1.0  0.98210  0.16060  0.03410  1.0000 0.1378512471
C   C136      1.0  0.98410  0.37400  0.31270  1.0000 0.1323930088
C   C137      1.0  0.95510  0.25160  0.11640  1.0000 0.3406120851
C   C138      1.0  0.02070  0.30070  0.15150  1.0000 -0.3257987038
C   C139      1.0  0.78750  0.24870  0.18630  1.0000 0.2323630168
C   C140      1.0  0.95670  0.31970  0.20730  1.0000 0.3497816115
C   C141      1.0  0.15060  0.20000  0.98280  1.0000 -0.0218333683
C   C142      1.0  0.12110  0.24860  0.02660  1.0000 -0.1044266378
C   C143      1.0  0.12290  0.40970  0.23820  1.0000 -0.0901826979
C   C144      1.0  0.14920  0.44030  0.29460  1.0000 -0.0218333683
N   N1        1.0  0.51180  0.22380  0.43970  1.0000 -0.0218333683
N   N2        1.0  0.56270  0.41770  0.15780  1.0000 -0.2957185046
N   N3        1.0  0.56360  0.14480  0.51260  1.0000 -0.2939690189
N   N4        1.0  0.33780  0.22500  0.36860  1.0000 -0.3703218014
N   N5        1.0  0.51590  0.36670  0.25040  1.0000 -0.0218333683
N   N6        1.0  0.09720  0.80660  0.62290  1.0000 0.5085756047
N   N7        1.0  0.34020  0.29470  0.27340  1.0000 -0.3703218014
N   N8        1.0  0.51180  0.27620  0.93970  1.0000 -0.0218333683
N   N9        1.0  0.56270  0.08230  0.65780  1.0000 -0.2939690189
N   N10       1.0  0.56360  0.35520  0.01260  1.0000 -0.2939690189
N   N11       1.0  0.33780  0.27500  0.86860  1.0000 -0.3703218014
N   N12       1.0  0.51590  0.13330  0.75040  1.0000 -0.0218333683
N   N13       1.0  0.09720  0.69340  0.12290  1.0000 0.5085756047
N   N14       1.0  0.34020  0.20530  0.77340  1.0000 -0.3703218014
N   N15       1.0  0.98820  0.77620  0.93970  1.0000 -0.0218333683
N   N16       1.0  0.93730  0.58230  0.65780  1.0000 -0.2957185046
N   N17       1.0  0.93640  0.85520  0.01260  1.0000 -0.2939690189
N   N18       1.0  0.16220  0.77500  0.86860  1.0000 -0.3703218014
N   N19       1.0  0.98410  0.63330  0.75040  1.0000 -0.0218333683
N   N20       1.0  0.40280  0.19340  0.12290  1.0000 0.5085756047
N   N21       1.0  0.15980  0.70530  0.77340  1.0000 -0.3703218014
N   N22       1.0  0.98820  0.72380  0.43970  1.0000 -0.0218333683
N   N23       1.0  0.93730  0.91770  0.15780  1.0000 -0.2939690189
N   N24       1.0  0.93640  0.64480  0.51260  1.0000 -0.2939690189
N   N25       1.0  0.16220  0.72500  0.36860  1.0000 -0.3703218014
N   N26       1.0  0.98410  0.86670  0.25040  1.0000 -0.0218333683
N   N27       1.0  0.40280  0.30660  0.62290  1.0000 0.5085756047
N   N28       1.0  0.15980  0.79470  0.27340  1.0000 -0.3703218014
N   N29       1.0  0.48820  0.72380  0.06030  1.0000 -0.0218333683
N   N30       1.0  0.43730  0.91770  0.34220  1.0000 -0.2939690189
N   N31       1.0  0.43640  0.64480  0.98740  1.0000 -0.2939690189
N   N32       1.0  0.66220  0.72500  0.13140  1.0000 -0.3703218014
N   N33       1.0  0.48410  0.86670  0.24960  1.0000 -0.0218333683
N   N34       1.0  0.90280  0.30660  0.87710  1.0000 0.5085756047
N   N35       1.0  0.65980  0.79470  0.22660  1.0000 -0.3703218014
N   N36       1.0  0.48820  0.77620  0.56030  1.0000 -0.0218333683
N   N37       1.0  0.43730  0.58230  0.84220  1.0000 -0.2957185046
N   N38       1.0  0.43640  0.85520  0.48740  1.0000 -0.2939690189
N   N39       1.0  0.66220  0.77500  0.63140  1.0000 -0.3703218014
N   N40       1.0  0.48410  0.63330  0.74960  1.0000 -0.0218333683
N   N41       1.0  0.90280  0.19340  0.37710  1.0000 0.5085756047
N   N42       1.0  0.65980  0.70530  0.72660  1.0000 -0.3703218014
N   N43       1.0  0.01180  0.27620  0.56030  1.0000 -0.0218333683
N   N44       1.0  0.06270  0.08230  0.84220  1.0000 -0.2939690189
N   N45       1.0  0.06360  0.35520  0.48740  1.0000 -0.2939690189
N   N46       1.0  0.83780  0.27500  0.63140  1.0000 -0.3703218014
N   N47       1.0  0.01590  0.13330  0.74960  1.0000 -0.0218333683
N   N48       1.0  0.59720  0.69340  0.37710  1.0000 0.5085756047
N   N49       1.0  0.84020  0.20530  0.72660  1.0000 -0.3703218014
N   N50       1.0  0.01180  0.22380  0.06030  1.0000 -0.0218333683
N   N51       1.0  0.06270  0.41770  0.34220  1.0000 -0.2957185046
N   N52       1.0  0.06360  0.14480  0.98740  1.0000 -0.2939690189
N   N53       1.0  0.83780  0.22500  0.13140  1.0000 -0.3703218014
N   N54       1.0  0.01590  0.36670  0.24960  1.0000 -0.0218333683
N   N55       1.0  0.59720  0.80660  0.87710  1.0000 0.5085756047
N   N56       1.0  0.84020  0.29470  0.22660  1.0000 -0.3703218014
O   O1        1.0  0.40310  0.00333  0.55160  1.0000 -0.5817021564
O   O2        1.0  0.70420  0.96870  0.58000  1.0000 -0.5062241193
O   O3        1.0  0.79270  0.06980  0.56790  1.0000 -0.5062241193
O   O4        1.0  0.28470  0.09741  0.57950  1.0000 -0.5409571514
O   O5        1.0  0.20780  0.78600  0.63700  1.0000 -0.3095664964
O   O6        1.0  0.00060  0.76890  0.62320  1.0000 -0.3095664964
O   O7        1.0  0.40310  0.49667  0.05160  1.0000 -0.5817021564
O   O8        1.0  0.70420  0.53130  0.08000  1.0000 -0.5062241193
O   O9        1.0  0.79270  0.43020  0.06790  1.0000 -0.5062241193
O   O10       1.0  0.28470  0.40259  0.07950  1.0000 -0.5409571514
O   O11       1.0  0.20780  0.71400  0.13700  1.0000 -0.3095664964
O   O12       1.0  0.00060  0.73110  0.12320  1.0000 -0.3095664964
O   O13       1.0  0.09690  0.99667  0.05160  1.0000 -0.5817021564
O   O14       1.0  0.79580  0.03130  0.08000  1.0000 -0.5062241193
O   O15       1.0  0.70730  0.93020  0.06790  1.0000 -0.5062241193
O   O16       1.0  0.21530  0.90259  0.07950  1.0000 -0.5409571514
O   O17       1.0  0.29220  0.21400  0.13700  1.0000 -0.3095664964
O   O18       1.0  0.49940  0.23110  0.12320  1.0000 -0.3095664964
O   O19       1.0  0.09690  0.50333  0.55160  1.0000 -0.5817021564
O   O20       1.0  0.79580  0.46870  0.58000  1.0000 -0.5062241193
O   O21       1.0  0.70730  0.56980  0.56790  1.0000 -0.5062241193
O   O22       1.0  0.21530  0.59741  0.57950  1.0000 -0.5409571514
O   O23       1.0  0.29220  0.28600  0.63700  1.0000 -0.3095664964
O   O24       1.0  0.49940  0.26890  0.62320  1.0000 -0.3095664964
O   O25       1.0  0.59690  0.50333  0.94840  1.0000 -0.5817021564
O   O26       1.0  0.29580  0.46870  0.92000  1.0000 -0.504847242
O   O27       1.0  0.20730  0.56980  0.93210  1.0000 -0.5062241193
O   O28       1.0  0.71530  0.59741  0.92050  1.0000 -0.5409571514
O   O29       1.0  0.79220  0.28600  0.86300  1.0000 -0.3095664964
O   O30       1.0  0.99940  0.26890  0.87680  1.0000 -0.3095664964
O   O31       1.0  0.59690  0.99667  0.44840  1.0000 -0.5817021564
O   O32       1.0  0.29580  0.03130  0.42000  1.0000 -0.504847242
O   O33       1.0  0.20730  0.93020  0.43210  1.0000 -0.5062241193
O   O34       1.0  0.71530  0.90259  0.42050  1.0000 -0.5409571514
O   O35       1.0  0.79220  0.21400  0.36300  1.0000 -0.3095664964
O   O36       1.0  0.99940  0.23110  0.37680  1.0000 -0.3095664964
O   O37       1.0  0.90310  0.49667  0.44840  1.0000 -0.5817021564
O   O38       1.0  0.20420  0.53130  0.42000  1.0000 -0.504847242
O   O39       1.0  0.29270  0.43020  0.43210  1.0000 -0.5062241193
O   O40       1.0  0.78470  0.40259  0.42050  1.0000 -0.5409571514
O   O41       1.0  0.70780  0.71400  0.36300  1.0000 -0.3095664964
O   O42       1.0  0.50060  0.73110  0.37680  1.0000 -0.3095664964
O   O43       1.0  0.90310  0.00333  0.94840  1.0000 -0.5817021564
O   O44       1.0  0.20420  0.96870  0.92000  1.0000 -0.504847242
O   O45       1.0  0.29270  0.06980  0.93210  1.0000 -0.5062241193
O   O46       1.0  0.78470  0.09741  0.92050  1.0000 -0.5409571514
O   O47       1.0  0.70780  0.78600  0.86300  1.0000 -0.3095664964
O   O48       1.0  0.50060  0.76890  0.87680  1.0000 -0.3095664964
