# DDEC6 charges by PACMAN v1.1 (https://github.com/mtap-research/PACMAN-charge/)
data_2017[Ni][nan]2[FSR]2
_chemical_formula_sum              "Ni4 H44 C52 N8 O20"
_cell_length_a       12.532
_cell_length_b       7.694
_cell_length_c       15.731
_cell_angle_alpha    90
_cell_angle_beta     105.717
_cell_angle_gamma    90

_symmetry_space_group_name_H-M    "P 1"
_symmetry_Int_Tables_number       1

loop_
  _symmetry_equiv_pos_as_xyz
  'x, y, z'

loop_
  _atom_site_type_symbol
  _atom_site_label
  _atom_site_symmetry_multiplicity
  _atom_site_fract_x
  _atom_site_fract_y
  _atom_site_fract_z
  _atom_site_occupancy
  _atom_site_charge
Ni  Ni1       1.0  0.70020  0.48671  0.32794  1.0000 0.7434939535
Ni  Ni2       1.0  0.29980  0.98671  0.17206  1.0000 0.7434939535
Ni  Ni3       1.0  0.29980  0.51329  0.67206  1.0000 0.7434939535
Ni  Ni4       1.0  0.70020  0.01329  0.82794  1.0000 0.7434939535
H   H1        1.0  0.51160  0.52630  0.35820  1.0000 0.317375587
H   H2        1.0  0.51490  0.64670  0.28760  1.0000 0.317375587
H   H3        1.0  0.81900  0.30500  0.24750  1.0000 0.317375587
H   H4        1.0  0.81190  0.25750  0.32630  1.0000 0.2781297133
H   H5        1.0  0.67250  0.10520  0.56320  1.0000 0.1255445471
H   H6        1.0  0.57970  0.60750  0.51190  1.0000 0.1391795616
H   H7        1.0  0.57790  0.93220  0.31250  1.0000 0.1391795616
H   H8        1.0  0.86240  0.55570  0.50090  1.0000 0.1227935399
H   H9        1.0  0.98230  0.75970  0.57500  1.0000 0.1391795616
H   H10       1.0  0.90500  0.05180  0.36120  1.0000 0.1255445471
H   H11       1.0  0.78560  0.83990  0.29250  1.0000 0.1227935399
H   H12       1.0  0.48840  0.02630  0.14180  1.0000 0.317375587
H   H13       1.0  0.48510  0.14670  0.21240  1.0000 0.317375587
H   H14       1.0  0.18100  0.80500  0.25250  1.0000 0.317375587
H   H15       1.0  0.18810  0.75750  0.17370  1.0000 0.2781297133
H   H16       1.0  0.32750  0.60520  0.93680  1.0000 0.1255445471
H   H17       1.0  0.42030  0.10750  0.98810  1.0000 0.1391795616
H   H18       1.0  0.42210  0.43220  0.18750  1.0000 0.1391795616
H   H19       1.0  0.13760  0.05570  0.99910  1.0000 0.1227935399
H   H20       1.0  0.01770  0.25970  0.92500  1.0000 0.1391795616
H   H21       1.0  0.09500  0.55180  0.13880  1.0000 0.1255445471
H   H22       1.0  0.21440  0.33990  0.20750  1.0000 0.1227935399
H   H23       1.0  0.48840  0.47370  0.64180  1.0000 0.317375587
H   H24       1.0  0.48510  0.35330  0.71240  1.0000 0.317375587
H   H25       1.0  0.18100  0.69500  0.75250  1.0000 0.317375587
H   H26       1.0  0.18810  0.74250  0.67370  1.0000 0.2781297133
H   H27       1.0  0.32750  0.89480  0.43680  1.0000 0.1255445471
H   H28       1.0  0.42030  0.39250  0.48810  1.0000 0.1391795616
H   H29       1.0  0.42210  0.06780  0.68750  1.0000 0.1391795616
H   H30       1.0  0.13760  0.44430  0.49910  1.0000 0.1227935399
H   H31       1.0  0.01770  0.24030  0.42500  1.0000 0.1391795616
H   H32       1.0  0.09500  0.94820  0.63880  1.0000 0.1255445471
H   H33       1.0  0.21440  0.16010  0.70750  1.0000 0.1227935399
H   H34       1.0  0.51160  0.97370  0.85820  1.0000 0.317375587
H   H35       1.0  0.51490  0.85330  0.78760  1.0000 0.317375587
H   H36       1.0  0.81900  0.19500  0.74750  1.0000 0.317375587
H   H37       1.0  0.81190  0.24250  0.82630  1.0000 0.2781297133
H   H38       1.0  0.67250  0.39480  0.06320  1.0000 0.1255445471
H   H39       1.0  0.57970  0.89250  0.01190  1.0000 0.1391795616
H   H40       1.0  0.57790  0.56780  0.81250  1.0000 0.1391795616
H   H41       1.0  0.86240  0.94430  0.00090  1.0000 0.1255445471
H   H42       1.0  0.98230  0.74030  0.07500  1.0000 0.1391795616
H   H43       1.0  0.90500  0.44820  0.86120  1.0000 0.1255445471
H   H44       1.0  0.78560  0.66010  0.79250  1.0000 0.1227935399
C   C1        1.0  0.65260  0.21730  0.39670  1.0000 0.5244686992
C   C2        1.0  0.64440  0.81740  0.64960  1.0000 0.5580708922
C   C3        1.0  0.62900  0.04640  0.43260  1.0000 -0.010433126
C   C4        1.0  0.64700  0.01600  0.52290  1.0000 -0.13972508
C   C5        1.0  0.62680  0.85250  0.55250  1.0000 -0.010433126
C   C6        1.0  0.59190  0.71760  0.49200  1.0000 -0.2011424063
C   C7        1.0  0.57550  0.74640  0.40260  1.0000 0.2617235274
C   C8        1.0  0.59190  0.91150  0.37280  1.0000 -0.1917462023
C   C9        1.0  0.87130  0.65680  0.47120  1.0000 0.0852778719
C   C10       1.0  0.94410  0.77960  0.51630  1.0000 -0.1917462023
C   C11       1.0  0.96160  0.93110  0.47650  1.0000 0.1227935399
C   C12       1.0  0.89910  0.95030  0.39180  1.0000 -0.1917462023
C   C13       1.0  0.82700  0.82130  0.35050  1.0000 0.0844070704
C   C14       1.0  0.34740  0.71730  0.10330  1.0000 0.5244686992
C   C15       1.0  0.35560  0.31740  0.85040  1.0000 0.5580708922
C   C16       1.0  0.37100  0.54640  0.06740  1.0000 -0.010433126
C   C17       1.0  0.35300  0.51600  0.97710  1.0000 -0.13972508
C   C18       1.0  0.37320  0.35250  0.94750  1.0000 -0.010433126
C   C19       1.0  0.40810  0.21760  0.00800  1.0000 -0.2011424063
C   C20       1.0  0.42450  0.24640  0.09740  1.0000 0.2617235274
C   C21       1.0  0.40810  0.41150  0.12720  1.0000 -0.1917462023
C   C22       1.0  0.12870  0.15680  0.02880  1.0000 0.0852778719
C   C23       1.0  0.05590  0.27960  0.98370  1.0000 -0.1917462023
C   C24       1.0  0.03840  0.43110  0.02350  1.0000 0.1227935399
C   C25       1.0  0.10090  0.45030  0.10820  1.0000 -0.1917462023
C   C26       1.0  0.17300  0.32130  0.14950  1.0000 0.0844070704
C   C27       1.0  0.34740  0.78270  0.60330  1.0000 0.5244686992
C   C28       1.0  0.35560  0.18260  0.35040  1.0000 0.5580708922
C   C29       1.0  0.37100  0.95360  0.56740  1.0000 -0.010433126
C   C30       1.0  0.35300  0.98400  0.47710  1.0000 -0.13972508
C   C31       1.0  0.37320  0.14750  0.44750  1.0000 -0.010433126
C   C32       1.0  0.40810  0.28240  0.50800  1.0000 -0.2011424063
C   C33       1.0  0.42450  0.25360  0.59740  1.0000 0.2617235274
C   C34       1.0  0.40810  0.08850  0.62720  1.0000 -0.1917462023
C   C35       1.0  0.12870  0.34320  0.52880  1.0000 0.0852778719
C   C36       1.0  0.05590  0.22040  0.48370  1.0000 -0.1917462023
C   C37       1.0  0.03840  0.06890  0.52350  1.0000 0.1227935399
C   C38       1.0  0.10090  0.04970  0.60820  1.0000 -0.1917462023
C   C39       1.0  0.17300  0.17870  0.64950  1.0000 0.0844070704
C   C40       1.0  0.65260  0.28270  0.89670  1.0000 0.5244686992
C   C41       1.0  0.64440  0.68260  0.14960  1.0000 0.5580708922
C   C42       1.0  0.62900  0.45360  0.93260  1.0000 -0.010433126
C   C43       1.0  0.64700  0.48400  0.02290  1.0000 -0.13972508
C   C44       1.0  0.62680  0.64750  0.05250  1.0000 -0.010433126
C   C45       1.0  0.59190  0.78240  0.99200  1.0000 -0.2011424063
C   C46       1.0  0.57550  0.75360  0.90260  1.0000 0.2617235274
C   C47       1.0  0.59190  0.58850  0.87280  1.0000 -0.1917462023
C   C48       1.0  0.87130  0.84320  0.97120  1.0000 0.0852778719
C   C49       1.0  0.94410  0.72040  0.01630  1.0000 -0.1917462023
C   C50       1.0  0.96160  0.56890  0.97650  1.0000 0.1227935399
C   C51       1.0  0.89910  0.54970  0.89180  1.0000 -0.1917462023
C   C52       1.0  0.82700  0.67870  0.85050  1.0000 0.0844070704
N   N1        1.0  0.55360  0.60630  0.34071  1.0000 -0.5702436327
N   N2        1.0  0.81360  0.67320  0.38860  1.0000 -0.2011424063
N   N3        1.0  0.44640  0.10630  0.15929  1.0000 -0.5702436327
N   N4        1.0  0.18640  0.17320  0.11140  1.0000 -0.2011424063
N   N5        1.0  0.44640  0.39370  0.65929  1.0000 -0.5702436327
N   N6        1.0  0.18640  0.32680  0.61140  1.0000 -0.2011424063
N   N7        1.0  0.55360  0.89370  0.84071  1.0000 -0.5702436327
N   N8        1.0  0.81360  0.82680  0.88860  1.0000 -0.2011424063
O   O1        1.0  0.70720  0.33430  0.44715  1.0000 -0.5430326222
O   O2        1.0  0.62000  0.24500  0.31463  1.0000 -0.5139491468
O   O3        1.0  0.67260  0.94730  0.70032  1.0000 -0.5621955602
O   O4        1.0  0.63120  0.66580  0.67390  1.0000 -0.5702436327
O   O5        1.0  0.83370  0.34190  0.30036  1.0000 -0.6276152937
O   O6        1.0  0.29280  0.83430  0.05285  1.0000 -0.5430326222
O   O7        1.0  0.38000  0.74500  0.18537  1.0000 -0.5139491468
O   O8        1.0  0.32740  0.44730  0.79968  1.0000 -0.5621955602
O   O9        1.0  0.36880  0.16580  0.82610  1.0000 -0.5702436327
O   O10       1.0  0.16630  0.84190  0.19964  1.0000 -0.6276152937
O   O11       1.0  0.29280  0.66570  0.55285  1.0000 -0.5430326222
O   O12       1.0  0.38000  0.75500  0.68537  1.0000 -0.5139491468
O   O13       1.0  0.32740  0.05270  0.29968  1.0000 -0.5621955602
O   O14       1.0  0.36880  0.33420  0.32610  1.0000 -0.5702436327
O   O15       1.0  0.16630  0.65810  0.69964  1.0000 -0.6276152937
O   O16       1.0  0.70720  0.16570  0.94715  1.0000 -0.5430326222
O   O17       1.0  0.62000  0.25500  0.81463  1.0000 -0.5139491468
O   O18       1.0  0.67260  0.55270  0.20032  1.0000 -0.5621955602
O   O19       1.0  0.63120  0.83420  0.17390  1.0000 -0.5702436327
O   O20       1.0  0.83370  0.15810  0.80036  1.0000 -0.6276152937
