# DDEC6 charges by PACMAN v1.1 (https://github.com/mtap-research/PACMAN-charge/)
data_2017[Zn][ths]3[FSR]5
_chemical_formula_sum              "Zn4 H104 C116 N16 O24"
_cell_length_a       13.411
_cell_length_b       13.411
_cell_length_c       27.415
_cell_angle_alpha    65.5531
_cell_angle_beta     114.447
_cell_angle_gamma    137.708

_symmetry_space_group_name_H-M    "P 1"
_symmetry_Int_Tables_number       1

loop_
  _symmetry_equiv_pos_as_xyz
  'x, y, z'

loop_
  _atom_site_type_symbol
  _atom_site_label
  _atom_site_symmetry_multiplicity
  _atom_site_fract_x
  _atom_site_fract_y
  _atom_site_fract_z
  _atom_site_occupancy
  _atom_site_charge
Zn  Zn1       1.0  0.49546  0.08094  0.06894  1.0000 0.8295763069
Zn  Zn2       1.0  0.24119  0.82269  0.56971  1.0000 0.8549580508
Zn  Zn3       1.0  0.08094  0.49546  0.93106  1.0000 0.8295763069
Zn  Zn4       1.0  0.82269  0.24119  0.43029  1.0000 0.8549580508
H   H1        1.0  0.36420  0.07540  0.89160  1.0000 0.119811489
H   H2        1.0  0.23910  0.03330  0.80430  1.0000 0.119811489
H   H3        1.0  0.86760  0.84920  0.83970  1.0000 0.119811489
H   H4        1.0  0.98590  0.87810  0.92960  1.0000 0.119811489
H   H5        1.0  0.74550  0.76830  0.68500  1.0000 0.119811489
H   H6        1.0  0.54630  0.75430  0.64210  1.0000 0.1108132321
H   H7        1.0  0.73780  0.06000  0.72600  1.0000 0.119811489
H   H8        1.0  0.92750  0.06630  0.77070  1.0000 0.119811489
H   H9        1.0  0.04590  0.04110  0.66140  1.0000 0.1291614953
H   H10       1.0  0.12180  0.99600  0.61860  1.0000 0.119811489
H   H11       1.0  0.05480  0.66480  0.74190  1.0000 0.139466747
H   H12       1.0  0.98840  0.71500  0.78870  1.0000 0.1291614953
H   H13       1.0  0.56930  0.59330  0.18670  1.0000 0.1291614953
H   H14       1.0  0.55520  0.77020  0.14020  1.0000 0.1108132321
H   H15       1.0  0.25670  0.58450  0.22770  1.0000 0.119811489
H   H16       1.0  0.25550  0.39350  0.26930  1.0000 0.119811489
H   H17       1.0  0.59470  0.32330  0.28950  1.0000 0.139466747
H   H18       1.0  0.64580  0.25820  0.24470  1.0000 0.1291614953
H   H19       1.0  0.33840  0.22000  0.11630  1.0000 0.119811489
H   H20       1.0  0.28230  0.27910  0.16340  1.0000 0.119811489
H   H21       1.0  0.49080  0.46820  0.34300  1.0000 0.119811489
H   H22       1.0  0.44990  0.34930  0.43080  1.0000 0.1108132321
H   H23       1.0  0.26060  0.97020  0.39760  1.0000 0.1108132321
H   H24       1.0  0.28070  0.07670  0.30580  1.0000 0.119811489
H   H25       1.0  0.81960  0.32740  0.12200  1.0000 0.1291614953
H   H26       1.0  0.92080  0.56800  0.97420  1.0000 0.139466747
H   H27       1.0  0.67930  0.30170  0.96790  1.0000 0.1291614953
H   H28       1.0  0.08780  0.60260  0.12070  1.0000 0.119811489
H   H29       1.0  0.13210  0.70310  0.06340  1.0000 0.1291614953
H   H30       1.0  0.94990  0.71050  0.04720  1.0000 0.0903818628
H   H31       1.0  0.89960  0.54360  0.15410  1.0000 0.119811489
H   H32       1.0  0.77730  0.52330  0.10280  1.0000 0.119811489
H   H33       1.0  0.84920  0.73540  0.10490  1.0000 0.1108132321
H   H34       1.0  0.85660  0.66280  0.16720  1.0000 0.119811489
H   H35       1.0  0.11750  0.82410  0.18220  1.0000 0.119811489
H   H36       1.0  0.10160  0.93380  0.13650  1.0000 0.1108132321
H   H37       1.0  0.98960  0.48080  0.61640  1.0000 0.119811489
H   H38       1.0  0.01770  0.65970  0.46200  1.0000 0.1291614953
H   H39       1.0  0.76860  0.41780  0.46690  1.0000 0.139466747
H   H40       1.0  0.60990  0.22690  0.54150  1.0000 0.1291614953
H   H41       1.0  0.70110  0.19570  0.59220  1.0000 0.1291614953
H   H42       1.0  0.72850  0.31210  0.64460  1.0000 0.0987119124
H   H43       1.0  0.48100  0.10260  0.64000  1.0000 0.1580616468
H   H44       1.0  0.44000  0.16280  0.57980  1.0000 0.139466747
H   H45       1.0  0.58380  0.47800  0.60740  1.0000 0.1108132321
H   H46       1.0  0.68130  0.45870  0.65990  1.0000 0.119811489
H   H47       1.0  0.48010  0.22330  0.67410  1.0000 0.119811489
H   H48       1.0  0.39190  0.23830  0.61630  1.0000 0.119811489
H   H49       1.0  0.15450  0.91390  0.07960  1.0000 0.2889271908
H   H50       1.0  0.19960  0.84000  0.12460  1.0000 0.2762839132
H   H51       1.0  0.79890  0.53050  0.59420  1.0000 0.2631761962
H   H52       1.0  0.66080  0.45820  0.55320  1.0000 0.2732608848
H   H53       1.0  0.07540  0.36420  0.10840  1.0000 0.119811489
H   H54       1.0  0.03330  0.23910  0.19570  1.0000 0.119811489
H   H55       1.0  0.84920  0.86760  0.16030  1.0000 0.119811489
H   H56       1.0  0.87810  0.98590  0.07040  1.0000 0.119811489
H   H57       1.0  0.76830  0.74550  0.31500  1.0000 0.119811489
H   H58       1.0  0.75430  0.54630  0.35790  1.0000 0.1108132321
H   H59       1.0  0.06000  0.73780  0.27400  1.0000 0.119811489
H   H60       1.0  0.06630  0.92750  0.22930  1.0000 0.119811489
H   H61       1.0  0.04110  0.04590  0.33860  1.0000 0.1291614953
H   H62       1.0  0.99600  0.12180  0.38140  1.0000 0.119811489
H   H63       1.0  0.66480  0.05480  0.25810  1.0000 0.139466747
H   H64       1.0  0.71500  0.98840  0.21130  1.0000 0.1291614953
H   H65       1.0  0.59330  0.56930  0.81330  1.0000 0.1291614953
H   H66       1.0  0.77020  0.55520  0.85980  1.0000 0.1108132321
H   H67       1.0  0.58450  0.25670  0.77230  1.0000 0.1108132321
H   H68       1.0  0.39350  0.25550  0.73070  1.0000 0.119811489
H   H69       1.0  0.32330  0.59470  0.71050  1.0000 0.139466747
H   H70       1.0  0.25820  0.64580  0.75530  1.0000 0.1291614953
H   H71       1.0  0.22000  0.33840  0.88370  1.0000 0.119811489
H   H72       1.0  0.27910  0.28230  0.83660  1.0000 0.119811489
H   H73       1.0  0.46820  0.49080  0.65700  1.0000 0.119811489
H   H74       1.0  0.34930  0.44990  0.56920  1.0000 0.1108132321
H   H75       1.0  0.97020  0.26060  0.60240  1.0000 0.1108132321
H   H76       1.0  0.07670  0.28070  0.69420  1.0000 0.119811489
H   H77       1.0  0.32740  0.81960  0.87800  1.0000 0.1291614953
H   H78       1.0  0.56800  0.92080  0.02580  1.0000 0.139466747
H   H79       1.0  0.30170  0.67930  0.03210  1.0000 0.1291614953
H   H80       1.0  0.60260  0.08780  0.87930  1.0000 0.119811489
H   H81       1.0  0.70310  0.13210  0.93660  1.0000 0.1291614953
H   H82       1.0  0.71050  0.94990  0.95280  1.0000 0.0903818628
H   H83       1.0  0.54360  0.89960  0.84590  1.0000 0.119811489
H   H84       1.0  0.52330  0.77730  0.89720  1.0000 0.119811489
H   H85       1.0  0.73540  0.84920  0.89510  1.0000 0.1108132321
H   H86       1.0  0.66280  0.85660  0.83280  1.0000 0.119811489
H   H87       1.0  0.82410  0.11750  0.81780  1.0000 0.119811489
H   H88       1.0  0.93380  0.10160  0.86350  1.0000 0.1108132321
H   H89       1.0  0.48080  0.98960  0.38360  1.0000 0.119811489
H   H90       1.0  0.65970  0.01770  0.53800  1.0000 0.1291614953
H   H91       1.0  0.41780  0.76860  0.53310  1.0000 0.139466747
H   H92       1.0  0.22690  0.60990  0.45850  1.0000 0.1291614953
H   H93       1.0  0.19570  0.70110  0.40780  1.0000 0.1291614953
H   H94       1.0  0.31210  0.72850  0.35540  1.0000 0.0987119124
H   H95       1.0  0.10260  0.48100  0.36000  1.0000 0.1580616468
H   H96       1.0  0.16280  0.44000  0.42020  1.0000 0.139466747
H   H97       1.0  0.47800  0.58380  0.39260  1.0000 0.1108132321
H   H98       1.0  0.45870  0.68130  0.34010  1.0000 0.119811489
H   H99       1.0  0.22330  0.48010  0.32590  1.0000 0.119811489
H   H100      1.0  0.23830  0.39190  0.38370  1.0000 0.1291614953
H   H101      1.0  0.91390  0.15450  0.92040  1.0000 0.2889271908
H   H102      1.0  0.84000  0.19960  0.87540  1.0000 0.2762839132
H   H103      1.0  0.53050  0.79890  0.40580  1.0000 0.2631761962
H   H104      1.0  0.45820  0.66080  0.44680  1.0000 0.2732608848
C   C1        1.0  0.25970  0.99750  0.97823  1.0000 0.5357829862
C   C2        1.0  0.18800  0.98020  0.92114  1.0000 -0.0582073276
C   C3        1.0  0.26375  0.02765  0.88215  1.0000 -0.0912381425
C   C4        1.0  0.18795  0.00305  0.82955  1.0000 -0.2000644154
C   C5        1.0  0.04280  0.93700  0.81308  1.0000 0.1868038111
C   C6        1.0  0.96646  0.89214  0.85030  1.0000 -0.2087137318
C   C7        1.0  0.03913  0.91187  0.90430  1.0000 -0.0912381425
C   C8        1.0  0.85795  0.91765  0.73212  1.0000 0.1795396887
C   C9        1.0  0.74295  0.82645  0.69366  1.0000 -0.2087137318
C   C10       1.0  0.62295  0.81785  0.66732  1.0000 -0.1003495119
C   C11       1.0  0.62204  0.90936  0.68027  1.0000 -0.0582073276
C   C12       1.0  0.73766  0.99894  0.71791  1.0000 -0.0912381425
C   C13       1.0  0.85321  0.00499  0.74461  1.0000 -0.2000644154
C   C14       1.0  0.49725  0.90495  0.65340  1.0000 0.5497426126
C   C15       1.0  0.01257  0.88543  0.73061  1.0000 0.1795396887
C   C16       1.0  0.04953  0.96747  0.67803  1.0000 -0.2000644154
C   C17       1.0  0.09032  0.93748  0.65193  1.0000 -0.1093698012
C   C18       1.0  0.08527  0.81693  0.67539  1.0000 -0.038679367
C   C19       1.0  0.05199  0.73901  0.72600  1.0000 -0.07842452
C   C20       1.0  0.01349  0.77011  0.75436  1.0000 -0.1882521055
C   C21       1.0  0.12930  0.78410  0.64578  1.0000 0.5497426126
C   C22       1.0  0.41395  0.47365  0.23347  1.0000 0.1989600741
C   C23       1.0  0.50469  0.58891  0.19440  1.0000 -0.2000644154
C   C24       1.0  0.49746  0.69654  0.16733  1.0000 -0.0912381425
C   C25       1.0  0.40907  0.70073  0.17838  1.0000 -0.0582073276
C   C26       1.0  0.31670  0.58490  0.21868  1.0000 -0.1003495119
C   C27       1.0  0.31896  0.47224  0.24428  1.0000 -0.2199223741
C   C28       1.0  0.40611  0.82069  0.15013  1.0000 0.5497426126
C   C29       1.0  0.43966  0.31414  0.23049  1.0000 0.1671040886
C   C30       1.0  0.54320  0.30300  0.25441  1.0000 -0.1800065355
C   C31       1.0  0.57289  0.26271  0.22798  1.0000 -0.0698174602
C   C32       1.0  0.49164  0.22736  0.17433  1.0000 -0.038679367
C   C33       1.0  0.38949  0.23871  0.15152  1.0000 -0.1003495119
C   C34       1.0  0.35748  0.27772  0.17917  1.0000 -0.2000644154
C   C35       1.0  0.52832  0.18368  0.14700  1.0000 0.556589567
C   C36       1.0  0.39146  0.28834  0.31435  1.0000 0.1989600741
C   C37       1.0  0.44145  0.36715  0.35321  1.0000 -0.2087137318
C   C38       1.0  0.41807  0.29653  0.40578  1.0000 -0.1003495119
C   C39       1.0  0.34560  0.14360  0.42210  1.0000 -0.038679367
C   C40       1.0  0.30223  0.06857  0.38565  1.0000 -0.0912381425
C   C41       1.0  0.31711  0.13249  0.33057  1.0000 -0.2199223741
C   C42       1.0  0.32710  0.07130  0.48136  1.0000 0.556589567
C   C43       1.0  0.81523  0.35337  0.08449  1.0000 0.0625064083
C   C44       1.0  0.87443  0.48897  0.00280  1.0000 -0.1093698012
C   C45       1.0  0.73767  0.34053  0.00007  1.0000 -0.0020313655
C   C46       1.0  0.05018  0.62802  0.08378  1.0000 -0.1882521055
C   C47       1.0  0.99211  0.68969  0.08439  1.0000 0.0987119124
C   C48       1.0  0.87893  0.59647  0.12140  1.0000 -0.2199223741
C   C49       1.0  0.89728  0.70412  0.13480  1.0000 -0.1682320005
C   C50       1.0  0.07378  0.83882  0.14480  1.0000 -0.0582073276
C   C51       1.0  0.96465  0.49675  0.57869  1.0000 0.0903818628
C   C52       1.0  0.97976  0.59304  0.49371  1.0000 -0.038679367
C   C53       1.0  0.84363  0.46257  0.49650  1.0000 -0.1093698012
C   C54       1.0  0.69424  0.26976  0.57137  1.0000 -0.1800065355
C   C55       1.0  0.66719  0.30741  0.60847  1.0000 0.0903818628
C   C56       1.0  0.50529  0.19171  0.61463  1.0000 -0.2495399445
C   C57       1.0  0.61540  0.42380  0.62580  1.0000 -0.1003495119
C   C58       1.0  0.48441  0.26099  0.63552  1.0000 -0.1682320005
C   C59       1.0  0.99750  0.25970  0.02177  1.0000 0.5347688728
C   C60       1.0  0.98020  0.18800  0.07886  1.0000 -0.0582073276
C   C61       1.0  0.02765  0.26375  0.11785  1.0000 -0.0912381425
C   C62       1.0  0.00305  0.18795  0.17045  1.0000 -0.2000644154
C   C63       1.0  0.93700  0.04280  0.18692  1.0000 0.1868038111
C   C64       1.0  0.89214  0.96646  0.14970  1.0000 -0.2087137318
C   C65       1.0  0.91187  0.03913  0.09570  1.0000 -0.0912381425
C   C66       1.0  0.91765  0.85795  0.26788  1.0000 0.1795396887
C   C67       1.0  0.82645  0.74295  0.30634  1.0000 -0.2087137318
C   C68       1.0  0.81785  0.62295  0.33268  1.0000 -0.1003495119
C   C69       1.0  0.90936  0.62204  0.31973  1.0000 -0.0582073276
C   C70       1.0  0.99894  0.73766  0.28209  1.0000 -0.0912381425
C   C71       1.0  0.00499  0.85321  0.25539  1.0000 -0.2000644154
C   C72       1.0  0.90495  0.49725  0.34660  1.0000 0.5497426126
C   C73       1.0  0.88543  0.01257  0.26939  1.0000 0.1795396887
C   C74       1.0  0.96747  0.04953  0.32197  1.0000 -0.2000644154
C   C75       1.0  0.93748  0.09032  0.34807  1.0000 -0.1093698012
C   C76       1.0  0.81693  0.08527  0.32461  1.0000 -0.038679367
C   C77       1.0  0.73901  0.05199  0.27400  1.0000 -0.07842452
C   C78       1.0  0.77011  0.01349  0.24564  1.0000 -0.1882521055
C   C79       1.0  0.78410  0.12930  0.35422  1.0000 0.5497426126
C   C80       1.0  0.47365  0.41395  0.76653  1.0000 0.1989600741
C   C81       1.0  0.58891  0.50469  0.80560  1.0000 -0.2000644154
C   C82       1.0  0.69654  0.49746  0.83267  1.0000 -0.0912381425
C   C83       1.0  0.70073  0.40907  0.82162  1.0000 -0.0582073276
C   C84       1.0  0.58490  0.31670  0.78132  1.0000 -0.1003495119
C   C85       1.0  0.47224  0.31896  0.75572  1.0000 -0.2199223741
C   C86       1.0  0.82069  0.40611  0.84987  1.0000 0.5497426126
C   C87       1.0  0.31414  0.43966  0.76951  1.0000 0.1671040886
C   C88       1.0  0.30300  0.54320  0.74559  1.0000 -0.1800065355
C   C89       1.0  0.26271  0.57289  0.77202  1.0000 -0.0698174602
C   C90       1.0  0.22736  0.49164  0.82567  1.0000 -0.038679367
C   C91       1.0  0.23871  0.38949  0.84848  1.0000 -0.1003495119
C   C92       1.0  0.27772  0.35748  0.82083  1.0000 -0.2000644154
C   C93       1.0  0.18368  0.52832  0.85300  1.0000 0.556589567
C   C94       1.0  0.28834  0.39146  0.68565  1.0000 0.1989600741
C   C95       1.0  0.36715  0.44145  0.64679  1.0000 -0.2087137318
C   C96       1.0  0.29653  0.41807  0.59422  1.0000 -0.1003495119
C   C97       1.0  0.14360  0.34560  0.57790  1.0000 -0.038679367
C   C98       1.0  0.06857  0.30223  0.61435  1.0000 -0.0912381425
C   C99       1.0  0.13249  0.31711  0.66943  1.0000 -0.2199223741
C   C100      1.0  0.07130  0.32710  0.51864  1.0000 0.556589567
C   C101      1.0  0.35337  0.81523  0.91551  1.0000 0.0625064083
C   C102      1.0  0.48897  0.87443  0.99720  1.0000 -0.1093698012
C   C103      1.0  0.34053  0.73767  0.99993  1.0000 -0.0020313655
C   C104      1.0  0.62802  0.05018  0.91622  1.0000 -0.1882521055
C   C105      1.0  0.68969  0.99211  0.91561  1.0000 0.0987119124
C   C106      1.0  0.59647  0.87893  0.87860  1.0000 -0.2199223741
C   C107      1.0  0.70412  0.89728  0.86520  1.0000 -0.1682320005
C   C108      1.0  0.83882  0.07378  0.85520  1.0000 -0.0582073276
C   C109      1.0  0.49675  0.96465  0.42131  1.0000 0.0903818628
C   C110      1.0  0.59304  0.97976  0.50629  1.0000 -0.038679367
C   C111      1.0  0.46257  0.84363  0.50350  1.0000 -0.1093698012
C   C112      1.0  0.26976  0.69424  0.42863  1.0000 -0.1800065355
C   C113      1.0  0.30741  0.66719  0.39153  1.0000 0.0903818628
C   C114      1.0  0.19171  0.50529  0.38537  1.0000 -0.2495399445
C   C115      1.0  0.42380  0.61540  0.37420  1.0000 -0.1003495119
C   C116      1.0  0.26099  0.48441  0.36448  1.0000 -0.1682320005
N   N1        1.0  0.97352  0.91728  0.75929  1.0000 -0.1682320005
N   N2        1.0  0.41001  0.35679  0.25838  1.0000 -0.1800065355
N   N3        1.0  0.70055  0.26085  0.04916  1.0000 -0.2893560297
N   N4        1.0  0.92495  0.49105  0.05801  1.0000 0.0545898871
N   N5        1.0  0.12260  0.83460  0.10700  1.0000 -0.2495399445
N   N6        1.0  0.05937  0.61583  0.54673  1.0000 -0.2893560297
N   N7        1.0  0.82762  0.40038  0.55070  1.0000 0.0244744987
N   N8        1.0  0.69938  0.44902  0.58870  1.0000 -0.2199223741
N   N9        1.0  0.91728  0.97352  0.24071  1.0000 -0.1682320005
N   N10       1.0  0.35679  0.41001  0.74162  1.0000 -0.1800065355
N   N11       1.0  0.26085  0.70055  0.95084  1.0000 -0.2893560297
N   N12       1.0  0.49105  0.92495  0.94199  1.0000 0.0545898871
N   N13       1.0  0.83460  0.12260  0.89300  1.0000 -0.2495399445
N   N14       1.0  0.61583  0.05937  0.45327  1.0000 -0.2893560297
N   N15       1.0  0.40038  0.82762  0.44930  1.0000 0.0244744987
N   N16       1.0  0.44902  0.69938  0.41130  1.0000 -0.2199223741
O   O1        1.0  0.19270  0.96850  0.00898  1.0000 -0.5275728173
O   O2        1.0  0.38752  0.04888  0.99432  1.0000 -0.4957483179
O   O3        1.0  0.48399  0.96101  0.67358  1.0000 -0.5363980598
O   O4        1.0  0.41093  0.84107  0.61078  1.0000 -0.5831515259
O   O5        1.0  0.11307  0.67273  0.66416  1.0000 -0.5629986194
O   O6        1.0  0.18158  0.87162  0.60230  1.0000 -0.5505972571
O   O7        1.0  0.33677  0.82683  0.16698  1.0000 -0.5675763554
O   O8        1.0  0.47121  0.90679  0.10972  1.0000 -0.5505972571
O   O9        1.0  0.63356  0.18864  0.16787  1.0000 -0.5629986194
O   O10       1.0  0.44071  0.14449  0.10013  1.0000 -0.586210019
O   O11       1.0  0.35330  0.14230  0.51030  1.0000 -0.5675763554
O   O12       1.0  0.28041  0.94219  0.49491  1.0000 -0.5629986194
O   O13       1.0  0.96850  0.19270  0.99102  1.0000 -0.5275728173
O   O14       1.0  0.04888  0.38752  0.00568  1.0000 -0.4957483179
O   O15       1.0  0.96101  0.48399  0.32642  1.0000 -0.5363980598
O   O16       1.0  0.84107  0.41093  0.38922  1.0000 -0.5831515259
O   O17       1.0  0.67273  0.11307  0.33584  1.0000 -0.5629986194
O   O18       1.0  0.87162  0.18158  0.39770  1.0000 -0.5505972571
O   O19       1.0  0.82683  0.33677  0.83302  1.0000 -0.5675763554
O   O20       1.0  0.90679  0.47121  0.89028  1.0000 -0.5505972571
O   O21       1.0  0.18864  0.63356  0.83213  1.0000 -0.5629986194
O   O22       1.0  0.14449  0.44071  0.89987  1.0000 -0.586210019
O   O23       1.0  0.14230  0.35330  0.48970  1.0000 -0.5675763554
O   O24       1.0  0.94219  0.28041  0.50509  1.0000 -0.5629986194
