# DDEC6 charges by PACMAN v1.1 (https://github.com/mtap-research/PACMAN-charge/)
data_2017[Co][nan]2[FSR]3
_chemical_formula_sum              "Co4 H96 C96 N16 O20"
_cell_length_a       21.2663
_cell_length_b       21.2663
_cell_length_c       24.148
_cell_angle_alpha    59.8497
_cell_angle_beta     120.15
_cell_angle_gamma    154.638

_symmetry_space_group_name_H-M    "P 1"
_symmetry_Int_Tables_number       1

loop_
  _symmetry_equiv_pos_as_xyz
  'x, y, z'

loop_
  _atom_site_type_symbol
  _atom_site_label
  _atom_site_symmetry_multiplicity
  _atom_site_fract_x
  _atom_site_fract_y
  _atom_site_fract_z
  _atom_site_occupancy
  _atom_site_charge
Co  Co1       1.0  0.11312  0.20800  0.12989  1.0000 0.7653903315
Co  Co2       1.0  0.16153  0.58989  0.37688  1.0000 0.8893022189
Co  Co3       1.0  0.20800  0.11312  0.87011  1.0000 0.7653903315
Co  Co4       1.0  0.58989  0.16153  0.62312  1.0000 0.8893022189
H   H1        1.0  0.31470  0.59350  0.38420  1.0000 0.1006587744
H   H2        1.0  0.97140  0.40780  0.26650  1.0000 0.1094944508
H   H3        1.0  0.31030  0.52390  0.33440  1.0000 0.130328004
H   H4        1.0  0.96230  0.33630  0.21300  1.0000 0.130328004
H   H5        1.0  0.34330  0.52210  0.26360  1.0000 0.1191406262
H   H6        1.0  0.93160  0.23060  0.18310  1.0000 0.130328004
H   H7        1.0  0.33690  0.45410  0.20960  1.0000 0.0921321781
H   H8        1.0  0.93140  0.16060  0.13430  1.0000 0.1094944508
H   H9        1.0  0.58080  0.98680  0.72460  1.0000 0.1094944508
H   H10       1.0  0.81910  0.35090  0.73020  1.0000 0.1094944508
H   H11       1.0  0.68140  0.99300  0.82840  1.0000 0.130328004
H   H12       1.0  0.92670  0.36730  0.83340  1.0000 0.1362716654
H   H13       1.0  0.70110  0.96310  0.94050  1.0000 0.130328004
H   H14       1.0  0.07520  0.40360  0.90720  1.0000 0.130328004
H   H15       1.0  0.80930  0.98170  0.04350  1.0000 0.1094944508
H   H16       1.0  0.17710  0.41250  0.01180  1.0000 0.1006587744
H   H17       1.0  0.35580  0.29500  0.19040  1.0000 0.1094944508
H   H18       1.0  0.09340  0.12040  0.27410  1.0000 0.1006587744
H   H19       1.0  0.44140  0.27320  0.28510  1.0000 0.130328004
H   H20       1.0  0.19060  0.11380  0.37350  1.0000 0.130328004
H   H21       1.0  0.57140  0.32320  0.38110  1.0000 0.130328004
H   H22       1.0  0.22800  0.04320  0.45640  1.0000 0.130328004
H   H23       1.0  0.65600  0.30100  0.48220  1.0000 0.1191406262
H   H24       1.0  0.31720  0.02320  0.55300  1.0000 0.1006587744
H   H25       1.0  0.84600  0.05720  0.35260  1.0000 0.1094944508
H   H26       1.0  0.48570  0.84550  0.23520  1.0000 0.130328004
H   H27       1.0  0.59960  0.80960  0.42330  1.0000 0.1006587744
H   H28       1.0  0.76550  0.96050  0.45000  1.0000 0.0921321781
H   H29       1.0  0.50840  0.74680  0.49790  1.0000 0.1094944508
H   H30       1.0  0.65990  0.84090  0.53910  1.0000 0.1006587744
H   H31       1.0  0.77780  0.05560  0.51130  1.0000 0.0921321781
H   H32       1.0  0.61940  0.93300  0.52050  1.0000 0.1191406262
H   H33       1.0  0.71980  0.10380  0.41130  1.0000 0.1191406262
H   H34       1.0  0.85120  0.99120  0.30640  1.0000 0.1094944508
H   H35       1.0  0.48530  0.77730  0.18540  1.0000 0.1191406262
H   H36       1.0  0.80000  0.82480  0.33020  1.0000 0.1006587744
H   H37       1.0  0.63610  0.70250  0.32840  1.0000 0.0921321781
H   H38       1.0  0.53650  0.52250  0.31030  1.0000 0.1006587744
H   H39       1.0  0.68250  0.61170  0.35720  1.0000 0.1094944508
H   H40       1.0  0.80860  0.74840  0.27490  1.0000 0.1191406262
H   H41       1.0  0.65040  0.59460  0.24820  1.0000 0.1094944508
H   H42       1.0  0.60147  0.66667  0.18030  1.0000 0.0921321781
H   H43       1.0  0.07980  0.12100  0.05420  1.0000 0.2482160577
H   H44       1.0  0.01110  0.02610  0.10000  1.0000 0.2918320993
H   H45       1.0  0.39200  0.45320  0.10250  1.0000 0.3978031029
H   H46       1.0  0.32720  0.44880  0.11920  1.0000 0.3408959756
H   H47       1.0  0.12890  0.66410  0.40970  1.0000 0.3978031029
H   H48       1.0  0.88890  0.37090  0.33770  1.0000 0.3528858522
H   H49       1.0  0.59350  0.31470  0.61580  1.0000 0.1006587744
H   H50       1.0  0.40780  0.97140  0.73350  1.0000 0.1094944508
H   H51       1.0  0.52390  0.31030  0.66560  1.0000 0.130328004
H   H52       1.0  0.33630  0.96230  0.78700  1.0000 0.130328004
H   H53       1.0  0.52210  0.34330  0.73640  1.0000 0.1191406262
H   H54       1.0  0.23060  0.93160  0.81690  1.0000 0.130328004
H   H55       1.0  0.45410  0.33690  0.79040  1.0000 0.0921321781
H   H56       1.0  0.16060  0.93140  0.86570  1.0000 0.1094944508
H   H57       1.0  0.98680  0.58080  0.27540  1.0000 0.1006587744
H   H58       1.0  0.35090  0.81910  0.26980  1.0000 0.1094944508
H   H59       1.0  0.99300  0.68140  0.17160  1.0000 0.130328004
H   H60       1.0  0.36730  0.92670  0.16660  1.0000 0.1362716654
H   H61       1.0  0.96310  0.70110  0.05950  1.0000 0.130328004
H   H62       1.0  0.40360  0.07520  0.09280  1.0000 0.130328004
H   H63       1.0  0.98170  0.80930  0.95650  1.0000 0.1094944508
H   H64       1.0  0.41250  0.17710  0.98820  1.0000 0.1006587744
H   H65       1.0  0.29500  0.35580  0.80960  1.0000 0.1094944508
H   H66       1.0  0.12040  0.09340  0.72590  1.0000 0.1006587744
H   H67       1.0  0.27320  0.44140  0.71490  1.0000 0.130328004
H   H68       1.0  0.11380  0.19060  0.62650  1.0000 0.130328004
H   H69       1.0  0.32320  0.57140  0.61890  1.0000 0.130328004
H   H70       1.0  0.04320  0.22800  0.54360  1.0000 0.130328004
H   H71       1.0  0.30100  0.65600  0.51780  1.0000 0.1191406262
H   H72       1.0  0.02320  0.31720  0.44700  1.0000 0.1006587744
H   H73       1.0  0.05720  0.84600  0.64740  1.0000 0.1094944508
H   H74       1.0  0.84550  0.48570  0.76480  1.0000 0.130328004
H   H75       1.0  0.80960  0.59960  0.57670  1.0000 0.1006587744
H   H76       1.0  0.96050  0.76550  0.55000  1.0000 0.0921321781
H   H77       1.0  0.74680  0.50840  0.50210  1.0000 0.1094944508
H   H78       1.0  0.84090  0.65990  0.46090  1.0000 0.1006587744
H   H79       1.0  0.05560  0.77780  0.48870  1.0000 0.0921321781
H   H80       1.0  0.93300  0.61940  0.47950  1.0000 0.1191406262
H   H81       1.0  0.10380  0.71980  0.58870  1.0000 0.1191406262
H   H82       1.0  0.99120  0.85120  0.69360  1.0000 0.1094944508
H   H83       1.0  0.77730  0.48530  0.81460  1.0000 0.1191406262
H   H84       1.0  0.82480  0.80000  0.66980  1.0000 0.1006587744
H   H85       1.0  0.70250  0.63610  0.67160  1.0000 0.0921321781
H   H86       1.0  0.52250  0.53650  0.68970  1.0000 0.1006587744
H   H87       1.0  0.61170  0.68250  0.64280  1.0000 0.1094944508
H   H88       1.0  0.74840  0.80860  0.72510  1.0000 0.1191406262
H   H89       1.0  0.59460  0.65040  0.75180  1.0000 0.1094944508
H   H90       1.0  0.66667  0.60147  0.81970  1.0000 0.0921321781
H   H91       1.0  0.12100  0.07980  0.94580  1.0000 0.2482160577
H   H92       1.0  0.02610  0.01110  0.90000  1.0000 0.2918320993
H   H93       1.0  0.45320  0.39200  0.89750  1.0000 0.3978031029
H   H94       1.0  0.44880  0.32720  0.88080  1.0000 0.3408959756
H   H95       1.0  0.66410  0.12890  0.59030  1.0000 0.3978031029
H   H96       1.0  0.37090  0.88890  0.66230  1.0000 0.3528858522
C   C1        1.0  0.24176  0.54024  0.34944  1.0000 0.0713482002
C   C2        1.0  0.04076  0.43184  0.28040  1.0000 0.0713482002
C   C3        1.0  0.24061  0.49979  0.31942  1.0000 -0.2024525256
C   C4        1.0  0.03518  0.38882  0.24790  1.0000 -0.1886507606
C   C5        1.0  0.13680  0.42300  0.26672  1.0000 0.1006587744
C   C6        1.0  0.13698  0.38302  0.23065  1.0000 0.1006587744
C   C7        1.0  0.25737  0.44803  0.23706  1.0000 -0.2024525256
C   C8        1.0  0.01494  0.27606  0.19050  1.0000 -0.1786403289
C   C9        1.0  0.25229  0.40531  0.20498  1.0000 0.0627119566
C   C10       1.0  0.01613  0.23527  0.16059  1.0000 0.0921321781
C   C11       1.0  0.64982  0.06318  0.74714  1.0000 0.07895098
C   C12       1.0  0.79013  0.27707  0.75054  1.0000 0.1006587744
C   C13       1.0  0.70983  0.06637  0.80985  1.0000 -0.1886507606
C   C14       1.0  0.85442  0.28698  0.81286  1.0000 -0.1886507606
C   C15       1.0  0.81041  0.17619  0.84473  1.0000 0.1006587744
C   C16       1.0  0.87895  0.18585  0.91198  1.0000 0.1006587744
C   C17       1.0  0.79770  0.05570  0.95400  1.0000 -0.1886507606
C   C18       1.0  0.01859  0.31581  0.93418  1.0000 -0.1786403289
C   C19       1.0  0.86467  0.06853  0.01572  1.0000 0.0921321781
C   C20       1.0  0.08043  0.32097  0.99757  1.0000 0.07895098
C   C21       1.0  0.31873  0.25367  0.22757  1.0000 0.0403433392
C   C22       1.0  0.16594  0.15366  0.27641  1.0000 0.1006587744
C   C23       1.0  0.37282  0.24418  0.28416  1.0000 -0.1786403289
C   C24       1.0  0.22288  0.14752  0.33651  1.0000 -0.2105161796
C   C25       1.0  0.32711  0.19109  0.34195  1.0000 0.1094944508
C   C26       1.0  0.38533  0.18107  0.40601  1.0000 0.1006587744
C   C27       1.0  0.51733  0.26127  0.41537  1.0000 -0.2024525256
C   C28       1.0  0.31404  0.09516  0.45965  1.0000 -0.2158813527
C   C29       1.0  0.56836  0.24804  0.47672  1.0000 0.1094944508
C   C30       1.0  0.37027  0.08613  0.51815  1.0000 0.07895098
C   C31       1.0  0.77213  0.99867  0.31940  1.0000 -0.1476983292
C   C32       1.0  0.55836  0.87364  0.24980  1.0000 -0.1199796709
C   C33       1.0  0.66212  0.95428  0.29990  1.0000 -0.0046379826
C   C34       1.0  0.65906  0.99934  0.33010  1.0000 0.4107162604
C   C35       1.0  0.66634  0.89366  0.44010  1.0000 -0.1020907661
C   C36       1.0  0.61530  0.84350  0.49980  1.0000 -0.1786403289
C   C37       1.0  0.67298  0.96742  0.49540  1.0000 -0.1786403289
C   C38       1.0  0.64456  0.99984  0.42300  1.0000 -0.0872798761
C   C39       1.0  0.49438  0.90002  0.40550  1.0000 0.563136811
C   C40       1.0  0.77651  0.96029  0.29190  1.0000 -0.1476983292
C   C41       1.0  0.55774  0.83226  0.21980  1.0000 -0.1199796709
C   C42       1.0  0.66387  0.87173  0.24060  1.0000 -0.0177957214
C   C43       1.0  0.65976  0.82604  0.20580  1.0000 0.3978031029
C   C44       1.0  0.69891  0.74029  0.30960  1.0000 -0.1020907661
C   C45       1.0  0.64373  0.61847  0.31590  1.0000 -0.1886507606
C   C46       1.0  0.70621  0.67499  0.26180  1.0000 -0.2105161796
C   C47       1.0  0.69544  0.74256  0.20811  1.0000 -0.0289610786
C   C48       1.0  0.82109  0.87311  0.16683  1.0000 0.563136811
C   C49       1.0  0.54024  0.24176  0.65056  1.0000 0.0713482002
C   C50       1.0  0.43184  0.04076  0.71960  1.0000 0.0713482002
C   C51       1.0  0.49979  0.24061  0.68058  1.0000 -0.2024525256
C   C52       1.0  0.38882  0.03518  0.75210  1.0000 -0.1886507606
C   C53       1.0  0.42300  0.13680  0.73328  1.0000 0.1006587744
C   C54       1.0  0.38302  0.13698  0.76935  1.0000 0.1006587744
C   C55       1.0  0.44803  0.25737  0.76294  1.0000 -0.2024525256
C   C56       1.0  0.27606  0.01494  0.80950  1.0000 -0.1786403289
C   C57       1.0  0.40531  0.25229  0.79502  1.0000 0.0627119566
C   C58       1.0  0.23527  0.01613  0.83941  1.0000 0.0921321781
C   C59       1.0  0.06318  0.64982  0.25286  1.0000 0.07895098
C   C60       1.0  0.27707  0.79013  0.24946  1.0000 0.1006587744
C   C61       1.0  0.06637  0.70983  0.19015  1.0000 -0.1886507606
C   C62       1.0  0.28698  0.85442  0.18714  1.0000 -0.1886507606
C   C63       1.0  0.17619  0.81041  0.15527  1.0000 0.1006587744
C   C64       1.0  0.18585  0.87895  0.08802  1.0000 0.1006587744
C   C65       1.0  0.05570  0.79770  0.04600  1.0000 -0.1886507606
C   C66       1.0  0.31581  0.01859  0.06582  1.0000 -0.1786403289
C   C67       1.0  0.06853  0.86467  0.98428  1.0000 0.0921321781
C   C68       1.0  0.32097  0.08043  0.00243  1.0000 0.07895098
C   C69       1.0  0.25367  0.31873  0.77243  1.0000 0.0403433392
C   C70       1.0  0.15366  0.16594  0.72359  1.0000 0.1006587744
C   C71       1.0  0.24418  0.37282  0.71584  1.0000 -0.1786403289
C   C72       1.0  0.14752  0.22288  0.66349  1.0000 -0.2105161796
C   C73       1.0  0.19109  0.32711  0.65805  1.0000 0.1094944508
C   C74       1.0  0.18107  0.38533  0.59399  1.0000 0.1006587744
C   C75       1.0  0.26127  0.51733  0.58463  1.0000 -0.2024525256
C   C76       1.0  0.09516  0.31404  0.54035  1.0000 -0.2158813527
C   C77       1.0  0.24804  0.56836  0.52328  1.0000 0.1094944508
C   C78       1.0  0.08613  0.37027  0.48185  1.0000 0.07895098
C   C79       1.0  0.99867  0.77213  0.68060  1.0000 -0.1476983292
C   C80       1.0  0.87364  0.55836  0.75020  1.0000 -0.1199796709
C   C81       1.0  0.95428  0.66212  0.70010  1.0000 -0.0046379826
C   C82       1.0  0.99934  0.65906  0.66990  1.0000 0.4107162604
C   C83       1.0  0.89366  0.66634  0.55990  1.0000 -0.1020907661
C   C84       1.0  0.84350  0.61530  0.50020  1.0000 -0.1786403289
C   C85       1.0  0.96742  0.67298  0.50460  1.0000 -0.1786403289
C   C86       1.0  0.99984  0.64456  0.57700  1.0000 -0.0872798761
C   C87       1.0  0.90002  0.49438  0.59450  1.0000 0.563136811
C   C88       1.0  0.96029  0.77651  0.70810  1.0000 -0.1476983292
C   C89       1.0  0.83226  0.55774  0.78020  1.0000 -0.1199796709
C   C90       1.0  0.87173  0.66387  0.75940  1.0000 -0.0177957214
C   C91       1.0  0.82604  0.65976  0.79420  1.0000 0.3978031029
C   C92       1.0  0.74029  0.69891  0.69040  1.0000 -0.1020907661
C   C93       1.0  0.61847  0.64373  0.68410  1.0000 -0.1886507606
C   C94       1.0  0.67499  0.70621  0.73820  1.0000 -0.2105161796
C   C95       1.0  0.74256  0.69544  0.79189  1.0000 -0.0289610786
C   C96       1.0  0.87311  0.82109  0.83317  1.0000 0.563136811
N   N1        1.0  0.14364  0.50796  0.33198  1.0000 -0.2777827134
N   N2        1.0  0.13404  0.29896  0.16809  1.0000 -0.2593853524
N   N3        1.0  0.68913  0.16707  0.71870  1.0000 -0.2309494069
N   N4        1.0  0.00332  0.19668  0.03839  1.0000 -0.2703861421
N   N5        1.0  0.21049  0.20491  0.22197  1.0000 -0.2703861421
N   N6        1.0  0.49628  0.16292  0.52713  1.0000 -0.2105161796
N   N7        1.0  0.66370  0.96870  0.39459  1.0000 -0.1199796709
N   N8        1.0  0.68894  0.77946  0.23985  1.0000 -0.1375741562
N   N9        1.0  0.50796  0.14364  0.66802  1.0000 -0.2777827134
N   N10       1.0  0.29896  0.13404  0.83191  1.0000 -0.2593853524
N   N11       1.0  0.16707  0.68913  0.28130  1.0000 -0.2309494069
N   N12       1.0  0.19668  0.00332  0.96161  1.0000 -0.2703861421
N   N13       1.0  0.20491  0.21049  0.77803  1.0000 -0.2703861421
N   N14       1.0  0.16292  0.49628  0.47287  1.0000 -0.2105161796
N   N15       1.0  0.96870  0.66370  0.60541  1.0000 -0.1199796709
N   N16       1.0  0.77946  0.68894  0.76015  1.0000 -0.1375741562
O   O1        1.0  0.09587  0.11993  0.09448  1.0000 -0.6542539051
O   O2        1.0  0.32514  0.42206  0.10048  1.0000 -0.6880638053
O   O3        1.0  0.18729  0.68151  0.41700  1.0000 -0.8601026585
O   O4        1.0  0.93498  0.39482  0.37566  1.0000 -0.8542712977
O   O5        1.0  0.63837  0.04583  0.29537  1.0000 -0.4527225098
O   O6        1.0  0.48215  0.94565  0.40950  1.0000 -0.5099344602
O   O7        1.0  0.38748  0.77492  0.39022  1.0000 -0.5885335853
O   O8        1.0  0.63127  0.83353  0.14672  1.0000 -0.4812342724
O   O9        1.0  0.82091  0.84129  0.13540  1.0000 -0.5638535967
O   O10       1.0  0.91365  0.00015  0.16758  1.0000 -0.571197932
O   O11       1.0  0.11993  0.09587  0.90552  1.0000 -0.6542539051
O   O12       1.0  0.42206  0.32514  0.89952  1.0000 -0.6880638053
O   O13       1.0  0.68151  0.18729  0.58300  1.0000 -0.8601026585
O   O14       1.0  0.39482  0.93498  0.62434  1.0000 -0.8542712977
O   O15       1.0  0.04583  0.63837  0.70463  1.0000 -0.4527225098
O   O16       1.0  0.94565  0.48215  0.59050  1.0000 -0.5099344602
O   O17       1.0  0.77492  0.38748  0.60978  1.0000 -0.5885335853
O   O18       1.0  0.83353  0.63127  0.85328  1.0000 -0.4812342724
O   O19       1.0  0.84129  0.82091  0.86460  1.0000 -0.5638535967
O   O20       1.0  0.00015  0.91365  0.83242  1.0000 -0.571197932
