# DDEC6 charges by PACMAN v1.1 (https://github.com/mtap-research/PACMAN-charge/)
data_2017[Ag][sql]2[FSR]1
_chemical_formula_sum              "Ag2 H64 C64 N16 O8"
_cell_length_a       17.8468
_cell_length_b       17.8468
_cell_length_c       4.8765
_cell_angle_alpha    90
_cell_angle_beta     90
_cell_angle_gamma    90

_symmetry_space_group_name_H-M    "P 1"
_symmetry_Int_Tables_number       1

loop_
  _symmetry_equiv_pos_as_xyz
  'x, y, z'

loop_
  _atom_site_type_symbol
  _atom_site_label
  _atom_site_symmetry_multiplicity
  _atom_site_fract_x
  _atom_site_fract_y
  _atom_site_fract_z
  _atom_site_occupancy
  _atom_site_charge
Ag  Ag1       1.0  0.00000  0.00000  0.50000  1.0000 0.238355486
Ag  Ag2       1.0  0.50000  0.50000  0.50000  1.0000 0.238355486
H   H1        1.0  0.30280  0.09880  0.23870  1.0000 0.2758142038
H   H2        1.0  0.17260  0.03220  0.43490  1.0000 0.0978214253
H   H3        1.0  0.08550  0.89600  0.97360  1.0000 0.0978214253
H   H4        1.0  0.20250  0.86520  0.13510  1.0000 0.1237442328
H   H5        1.0  0.30820  0.91960  0.93890  1.0000 0.110202986
H   H6        1.0  0.33840  0.98730  0.38740  1.0000 0.110202986
H   H7        1.0  0.35810  0.02610  0.66690  1.0000 0.0978214253
H   H8        1.0  0.25770  0.21980  0.24100  1.0000 0.1237442328
H   H9        1.0  0.69720  0.90120  0.23870  1.0000 0.2758142038
H   H10       1.0  0.82740  0.96780  0.43490  1.0000 0.0978214253
H   H11       1.0  0.91450  0.10400  0.97360  1.0000 0.0978214253
H   H12       1.0  0.79750  0.13480  0.13510  1.0000 0.1237442328
H   H13       1.0  0.69180  0.08040  0.93890  1.0000 0.110202986
H   H14       1.0  0.66160  0.01270  0.38740  1.0000 0.110202986
H   H15       1.0  0.64190  0.97390  0.66690  1.0000 0.0978214253
H   H16       1.0  0.74230  0.78020  0.24100  1.0000 0.1237442328
H   H17       1.0  0.59880  0.19720  0.23870  1.0000 0.2758142038
H   H18       1.0  0.53220  0.32740  0.43490  1.0000 0.0978214253
H   H19       1.0  0.39600  0.41450  0.97360  1.0000 0.0978214253
H   H20       1.0  0.36520  0.29750  0.13510  1.0000 0.1237442328
H   H21       1.0  0.41960  0.19180  0.93890  1.0000 0.110202986
H   H22       1.0  0.48730  0.16160  0.38740  1.0000 0.110202986
H   H23       1.0  0.52610  0.14190  0.66690  1.0000 0.0978214253
H   H24       1.0  0.71980  0.24230  0.24100  1.0000 0.1237442328
H   H25       1.0  0.40120  0.80280  0.23870  1.0000 0.2758142038
H   H26       1.0  0.46780  0.67260  0.43490  1.0000 0.0978214253
H   H27       1.0  0.60400  0.58550  0.97360  1.0000 0.0978214253
H   H28       1.0  0.63480  0.70250  0.13510  1.0000 0.1237442328
H   H29       1.0  0.58040  0.80820  0.93890  1.0000 0.110202986
H   H30       1.0  0.51270  0.83840  0.38740  1.0000 0.110202986
H   H31       1.0  0.47390  0.85810  0.66690  1.0000 0.0978214253
H   H32       1.0  0.28020  0.75770  0.24100  1.0000 0.1237442328
H   H33       1.0  0.19720  0.40120  0.76130  1.0000 0.2758142038
H   H34       1.0  0.32740  0.46780  0.56510  1.0000 0.0978214253
H   H35       1.0  0.41450  0.60400  0.02640  1.0000 0.0978214253
H   H36       1.0  0.29750  0.63480  0.86490  1.0000 0.1237442328
H   H37       1.0  0.19180  0.58040  0.06110  1.0000 0.110202986
H   H38       1.0  0.16160  0.51270  0.61260  1.0000 0.110202986
H   H39       1.0  0.14190  0.47390  0.33310  1.0000 0.0978214253
H   H40       1.0  0.24230  0.28020  0.75900  1.0000 0.1237442328
H   H41       1.0  0.80280  0.59880  0.76130  1.0000 0.2758142038
H   H42       1.0  0.67260  0.53220  0.56510  1.0000 0.0978214253
H   H43       1.0  0.58550  0.39600  0.02640  1.0000 0.0978214253
H   H44       1.0  0.70250  0.36520  0.86490  1.0000 0.1237442328
H   H45       1.0  0.80820  0.41960  0.06110  1.0000 0.110202986
H   H46       1.0  0.83840  0.48730  0.61260  1.0000 0.110202986
H   H47       1.0  0.85810  0.52610  0.33310  1.0000 0.0978214253
H   H48       1.0  0.75770  0.71980  0.75900  1.0000 0.1237442328
H   H49       1.0  0.90120  0.30280  0.76130  1.0000 0.2758142038
H   H50       1.0  0.96780  0.17260  0.56510  1.0000 0.0978214253
H   H51       1.0  0.10400  0.08550  0.02640  1.0000 0.0978214253
H   H52       1.0  0.13480  0.20250  0.86490  1.0000 0.1237442328
H   H53       1.0  0.08040  0.30820  0.06110  1.0000 0.110202986
H   H54       1.0  0.01270  0.33840  0.61260  1.0000 0.110202986
H   H55       1.0  0.97390  0.35810  0.33310  1.0000 0.0978214253
H   H56       1.0  0.78020  0.25770  0.75900  1.0000 0.1237442328
H   H57       1.0  0.09880  0.69720  0.76130  1.0000 0.2758142038
H   H58       1.0  0.03220  0.82740  0.56510  1.0000 0.0978214253
H   H59       1.0  0.89600  0.91450  0.02640  1.0000 0.0978214253
H   H60       1.0  0.86520  0.79750  0.86490  1.0000 0.1237442328
H   H61       1.0  0.91960  0.69180  0.06110  1.0000 0.110202986
H   H62       1.0  0.98730  0.66160  0.61260  1.0000 0.110202986
H   H63       1.0  0.02610  0.64190  0.33310  1.0000 0.0978214253
H   H64       1.0  0.21980  0.74230  0.75900  1.0000 0.1237442328
C   C1        1.0  0.25147  0.98268  0.66330  1.0000 0.067456214
C   C2        1.0  0.17892  0.99824  0.57760  1.0000 -0.0089056289
C   C3        1.0  0.12737  0.91816  0.89390  1.0000 0.0272977131
C   C4        1.0  0.19758  0.89934  0.99210  1.0000 -0.1252872364
C   C5        1.0  0.26055  0.93176  0.87570  1.0000 -0.1226948769
C   C6        1.0  0.31904  0.01974  0.53050  1.0000 -0.1091235929
C   C7        1.0  0.28009  0.14889  0.57610  1.0000 0.4847337289
C   C8        1.0  0.25877  0.21915  0.43160  1.0000 -0.2116006573
C   C9        1.0  0.74853  0.01732  0.66330  1.0000 0.067456214
C   C10       1.0  0.82108  0.00176  0.57760  1.0000 -0.0089056289
C   C11       1.0  0.87263  0.08184  0.89390  1.0000 0.0272977131
C   C12       1.0  0.80242  0.10066  0.99210  1.0000 -0.1252872364
C   C13       1.0  0.73945  0.06824  0.87570  1.0000 -0.1226948769
C   C14       1.0  0.68096  0.98026  0.53050  1.0000 -0.1091235929
C   C15       1.0  0.71991  0.85111  0.57610  1.0000 0.4847337289
C   C16       1.0  0.74123  0.78085  0.43160  1.0000 -0.2116006573
C   C17       1.0  0.48268  0.24853  0.66330  1.0000 0.067456214
C   C18       1.0  0.49824  0.32108  0.57760  1.0000 -0.0089056289
C   C19       1.0  0.41816  0.37263  0.89390  1.0000 0.0272977131
C   C20       1.0  0.39934  0.30242  0.99210  1.0000 -0.1252872364
C   C21       1.0  0.43176  0.23945  0.87570  1.0000 -0.1226948769
C   C22       1.0  0.51974  0.18096  0.53050  1.0000 -0.1091235929
C   C23       1.0  0.64889  0.21991  0.57610  1.0000 0.4847337289
C   C24       1.0  0.71915  0.24123  0.43160  1.0000 -0.2116006573
C   C25       1.0  0.51732  0.75147  0.66330  1.0000 0.067456214
C   C26       1.0  0.50176  0.67892  0.57760  1.0000 -0.0089056289
C   C27       1.0  0.58184  0.62737  0.89390  1.0000 0.0272977131
C   C28       1.0  0.60066  0.69758  0.99210  1.0000 -0.1252872364
C   C29       1.0  0.56824  0.76055  0.87570  1.0000 -0.1226948769
C   C30       1.0  0.48026  0.81904  0.53050  1.0000 -0.1091235929
C   C31       1.0  0.35111  0.78009  0.57610  1.0000 0.4847337289
C   C32       1.0  0.28085  0.75877  0.43160  1.0000 -0.2116006573
C   C33       1.0  0.24853  0.51732  0.33670  1.0000 0.067456214
C   C34       1.0  0.32108  0.50176  0.42240  1.0000 -0.0089056289
C   C35       1.0  0.37263  0.58184  0.10610  1.0000 0.0272977131
C   C36       1.0  0.30242  0.60066  0.00790  1.0000 -0.1252872364
C   C37       1.0  0.23945  0.56824  0.12430  1.0000 -0.1226948769
C   C38       1.0  0.18096  0.48026  0.46950  1.0000 -0.1091235929
C   C39       1.0  0.21991  0.35111  0.42390  1.0000 0.4847337289
C   C40       1.0  0.24123  0.28085  0.56840  1.0000 -0.2116006573
C   C41       1.0  0.75147  0.48268  0.33670  1.0000 0.067456214
C   C42       1.0  0.67892  0.49824  0.42240  1.0000 -0.0089056289
C   C43       1.0  0.62737  0.41816  0.10610  1.0000 0.0272977131
C   C44       1.0  0.69758  0.39934  0.00790  1.0000 -0.1226948769
C   C45       1.0  0.76055  0.43176  0.12430  1.0000 -0.1226948769
C   C46       1.0  0.81904  0.51974  0.46950  1.0000 -0.1091235929
C   C47       1.0  0.78009  0.64889  0.42390  1.0000 0.4847337289
C   C48       1.0  0.75877  0.71915  0.56840  1.0000 -0.2116006573
C   C49       1.0  0.01732  0.25147  0.33670  1.0000 0.067456214
C   C50       1.0  0.00176  0.17892  0.42240  1.0000 -0.0089056289
C   C51       1.0  0.08184  0.12737  0.10610  1.0000 0.0272977131
C   C52       1.0  0.10066  0.19758  0.00790  1.0000 -0.1226948769
C   C53       1.0  0.06824  0.26055  0.12430  1.0000 -0.1226948769
C   C54       1.0  0.98026  0.31904  0.46950  1.0000 -0.1091235929
C   C55       1.0  0.85111  0.28009  0.42390  1.0000 0.4847337289
C   C56       1.0  0.78085  0.25877  0.56840  1.0000 -0.2116006573
C   C57       1.0  0.98268  0.74853  0.33670  1.0000 0.067456214
C   C58       1.0  0.99824  0.82108  0.42240  1.0000 -0.0089056289
C   C59       1.0  0.91816  0.87263  0.10610  1.0000 0.0272977131
C   C60       1.0  0.89934  0.80242  0.00790  1.0000 -0.1252872364
C   C61       1.0  0.93176  0.73945  0.12430  1.0000 -0.1226948769
C   C62       1.0  0.01974  0.68096  0.46950  1.0000 -0.1091235929
C   C63       1.0  0.14889  0.71991  0.42390  1.0000 0.4847337289
C   C64       1.0  0.21915  0.74123  0.56840  1.0000 -0.2116006573
N   N1        1.0  0.11713  0.96716  0.68810  1.0000 -0.2116006573
N   N2        1.0  0.30058  0.09230  0.41320  1.0000 -0.3454857783
N   N3        1.0  0.88287  0.03284  0.68810  1.0000 -0.2116006573
N   N4        1.0  0.69942  0.90770  0.41320  1.0000 -0.3454857783
N   N5        1.0  0.46716  0.38287  0.68810  1.0000 -0.2116006573
N   N6        1.0  0.59230  0.19942  0.41320  1.0000 -0.3454857783
N   N7        1.0  0.53284  0.61713  0.68810  1.0000 -0.2116006573
N   N8        1.0  0.40770  0.80058  0.41320  1.0000 -0.3454857783
N   N9        1.0  0.38287  0.53284  0.31190  1.0000 -0.2116006573
N   N10       1.0  0.19942  0.40770  0.58680  1.0000 -0.3454857783
N   N11       1.0  0.61713  0.46716  0.31190  1.0000 -0.2116006573
N   N12       1.0  0.80058  0.59230  0.58680  1.0000 -0.3454857783
N   N13       1.0  0.03284  0.11713  0.31190  1.0000 -0.2116006573
N   N14       1.0  0.90770  0.30058  0.58680  1.0000 -0.3454857783
N   N15       1.0  0.96716  0.88287  0.31190  1.0000 -0.2116006573
N   N16       1.0  0.09230  0.69942  0.58680  1.0000 -0.3454857783
O   O1        1.0  0.27725  0.14322  0.83000  1.0000 -0.5421991066
O   O2        1.0  0.72275  0.85678  0.83000  1.0000 -0.5421991066
O   O3        1.0  0.64322  0.22275  0.83000  1.0000 -0.5421991066
O   O4        1.0  0.35678  0.77725  0.83000  1.0000 -0.5421991066
O   O5        1.0  0.22275  0.35678  0.17000  1.0000 -0.5421991066
O   O6        1.0  0.77725  0.64322  0.17000  1.0000 -0.5421991066
O   O7        1.0  0.85678  0.27725  0.17000  1.0000 -0.5421991066
O   O8        1.0  0.14322  0.72275  0.17000  1.0000 -0.5421991066
