# DDEC6 charges by PACMAN v1.1 (https://github.com/mtap-research/PACMAN-charge/)
data_2017[Co][sql]2[FSR]14
_chemical_formula_sum              "Co2 H40 C54 N4 O16"
_cell_length_a       10.158
_cell_length_b       11.286
_cell_length_c       14.508
_cell_angle_alpha    99.848
_cell_angle_beta     105.923
_cell_angle_gamma    104.661

_symmetry_space_group_name_H-M    "P 1"
_symmetry_Int_Tables_number       1

loop_
  _symmetry_equiv_pos_as_xyz
  'x, y, z'

loop_
  _atom_site_type_symbol
  _atom_site_label
  _atom_site_symmetry_multiplicity
  _atom_site_fract_x
  _atom_site_fract_y
  _atom_site_fract_z
  _atom_site_occupancy
  _atom_site_charge
Co  Co1       1.0  0.35043  0.60803  0.94904  1.0000 0.8490413882
Co  Co2       1.0  0.64957  0.39197  0.05096  1.0000 0.8490413882
H   H1        1.0  0.25020  0.90810  0.17930  1.0000 0.3654715873
H   H2        1.0  0.09140  0.39640  0.03680  1.0000 0.1308914728
H   H3        1.0  0.90270  0.07960  0.58950  1.0000 0.1210022968
H   H4        1.0  0.08700  0.32690  0.32940  1.0000 0.1210022968
H   H5        1.0  0.08580  0.46740  0.35330  1.0000 0.1308914728
H   H6        1.0  0.94340  0.35790  0.28830  1.0000 0.1210022968
H   H7        1.0  0.08490  0.37340  0.85330  1.0000 0.1103167435
H   H8        1.0  0.31340  0.15930  0.10800  1.0000 0.1210022968
H   H9        1.0  0.91760  0.09720  0.12820  1.0000 0.1210022968
H   H10       1.0  0.55720  0.63120  0.15250  1.0000 0.1103167435
H   H11       1.0  0.82860  0.17050  0.28740  1.0000 0.1308914728
H   H12       1.0  0.45770  0.89900  0.04100  1.0000 0.1103167435
H   H13       1.0  0.94070  0.23760  0.70490  1.0000 0.1308914728
H   H14       1.0  0.71310  0.77300  0.29380  1.0000 0.1210022968
H   H15       1.0  0.33160  0.55660  0.72850  1.0000 0.1210022968
H   H16       1.0  0.19280  0.42850  0.57630  1.0000 0.1308914728
H   H17       1.0  0.61430  0.04910  0.17970  1.0000 0.1398903958
H   H18       1.0  0.87430  0.88420  0.57840  1.0000 0.1210022968
H   H19       1.0  0.73240  0.76800  0.53710  1.0000 0.1308914728
H   H20       1.0  0.72800  0.90300  0.58220  1.0000 0.1210022968
H   H21       1.0  0.74980  0.09190  0.82070  1.0000 0.3654715873
H   H22       1.0  0.90860  0.60360  0.96320  1.0000 0.1308914728
H   H23       1.0  0.09730  0.92040  0.41050  1.0000 0.1210022968
H   H24       1.0  0.91300  0.67310  0.67060  1.0000 0.1210022968
H   H25       1.0  0.91420  0.53260  0.64670  1.0000 0.1308914728
H   H26       1.0  0.05660  0.64210  0.71170  1.0000 0.1210022968
H   H27       1.0  0.91510  0.62660  0.14670  1.0000 0.1103167435
H   H28       1.0  0.68660  0.84070  0.89200  1.0000 0.1210022968
H   H29       1.0  0.08240  0.90280  0.87180  1.0000 0.1210022968
H   H30       1.0  0.44280  0.36880  0.84750  1.0000 0.1103167435
H   H31       1.0  0.17140  0.82950  0.71260  1.0000 0.1308914728
H   H32       1.0  0.54230  0.10100  0.95900  1.0000 0.1103167435
H   H33       1.0  0.05930  0.76240  0.29510  1.0000 0.1308914728
H   H34       1.0  0.28690  0.22700  0.70620  1.0000 0.1210022968
H   H35       1.0  0.66840  0.44340  0.27150  1.0000 0.1210022968
H   H36       1.0  0.80720  0.57150  0.42370  1.0000 0.1308914728
H   H37       1.0  0.38570  0.95090  0.82030  1.0000 0.1398903958
H   H38       1.0  0.12570  0.11580  0.42160  1.0000 0.1103167435
H   H39       1.0  0.26760  0.23200  0.46290  1.0000 0.1308914728
H   H40       1.0  0.27200  0.09700  0.41780  1.0000 0.1210022968
C   C1        1.0  0.35420  0.37650  0.05790  1.0000 0.5761428334
C   C2        1.0  0.85170  0.29330  0.06910  1.0000 0.5289487697
C   C3        1.0  0.09860  0.32510  0.05920  1.0000 -0.1101749048
C   C4        1.0  0.98360  0.25170  0.08000  1.0000 -0.0175099797
C   C5        1.0  0.22510  0.29230  0.07200  1.0000 -0.0175099797
C   C6        1.0  0.88920  0.09760  0.52810  1.0000 -0.2702303373
C   C7        1.0  0.03120  0.38050  0.34320  1.0000 -0.2317246042
C   C8        1.0  0.10770  0.38480  0.79690  1.0000 0.0894113413
C   C9        1.0  0.80510  0.00220  0.44490  1.0000 0.2025980212
C   C10       1.0  0.23090  0.18330  0.10140  1.0000 -0.1227658198
C   C11       1.0  0.99330  0.14510  0.11240  1.0000 -0.1227658198
C   C12       1.0  0.95550  0.22040  0.52530  1.0000 -0.0175099797
C   C13       1.0  0.11700  0.10940  0.12120  1.0000 -0.0347832434
C   C14       1.0  0.93190  0.24410  0.43240  1.0000 0.1821681417
C   C15       1.0  0.68160  0.93080  0.25760  1.0000 0.1308914728
C   C16       1.0  0.12610  0.99430  0.15860  1.0000 0.5289487697
C   C17       1.0  0.56740  0.71660  0.15830  1.0000 0.0894113413
C   C18       1.0  0.84440  0.15060  0.34830  1.0000 -0.2643982761
C   C19       1.0  0.50940  0.87320  0.09300  1.0000 0.0768439255
C   C20       1.0  0.77820  0.02720  0.35010  1.0000 -0.0175099797
C   C21       1.0  0.02010  0.30260  0.70740  1.0000 -0.1997643479
C   C22       1.0  0.66150  0.80170  0.24380  1.0000 -0.1901784756
C   C23       1.0  0.25070  0.49150  0.72370  1.0000 0.0641170151
C   C24       1.0  0.16830  0.41440  0.63160  1.0000 -0.1997643479
C   C25       1.0  0.04740  0.31460  0.62100  1.0000 0.1210022968
C   C26       1.0  0.60310  0.96400  0.17680  1.0000 -0.1901784756
C   C27       1.0  0.77210  0.85720  0.54450  1.0000 -0.2317246042
C   C28       1.0  0.64580  0.62350  0.94210  1.0000 0.5761428334
C   C29       1.0  0.14830  0.70670  0.93090  1.0000 0.5289487697
C   C30       1.0  0.90140  0.67490  0.94080  1.0000 -0.1101749048
C   C31       1.0  0.01640  0.74830  0.92000  1.0000 -0.0175099797
C   C32       1.0  0.77490  0.70770  0.92800  1.0000 -0.0175099797
C   C33       1.0  0.11080  0.90240  0.47190  1.0000 -0.2702303373
C   C34       1.0  0.96880  0.61950  0.65680  1.0000 -0.2317246042
C   C35       1.0  0.89230  0.61520  0.20310  1.0000 0.0894113413
C   C36       1.0  0.19490  0.99780  0.55510  1.0000 0.2025980212
C   C37       1.0  0.76910  0.81670  0.89860  1.0000 -0.1227658198
C   C38       1.0  0.00670  0.85490  0.88760  1.0000 -0.1227658198
C   C39       1.0  0.04450  0.77960  0.47470  1.0000 -0.0175099797
C   C40       1.0  0.88300  0.89060  0.87880  1.0000 -0.0347832434
C   C41       1.0  0.06810  0.75590  0.56760  1.0000 0.1821681417
C   C42       1.0  0.31840  0.06920  0.74240  1.0000 0.1308914728
C   C43       1.0  0.87390  0.00570  0.84140  1.0000 0.5289487697
C   C44       1.0  0.43260  0.28340  0.84170  1.0000 0.0894113413
C   C45       1.0  0.15560  0.84940  0.65170  1.0000 -0.2643982761
C   C46       1.0  0.49060  0.12680  0.90700  1.0000 0.0768439255
C   C47       1.0  0.22180  0.97280  0.64990  1.0000 -0.0175099797
C   C48       1.0  0.97990  0.69740  0.29260  1.0000 -0.1997643479
C   C49       1.0  0.33850  0.19830  0.75620  1.0000 -0.1901784756
C   C50       1.0  0.74930  0.50850  0.27630  1.0000 0.0641170151
C   C51       1.0  0.83170  0.58560  0.36840  1.0000 -0.1997643479
C   C52       1.0  0.95260  0.68540  0.37900  1.0000 0.1210022968
C   C53       1.0  0.39690  0.03600  0.82320  1.0000 -0.1901784756
C   C54       1.0  0.22790  0.14280  0.45550  1.0000 -0.2317246042
N   N1        1.0  0.48880  0.74880  0.08229  1.0000 -0.2447567277
N   N2        1.0  0.22340  0.48000  0.80746  1.0000 -0.2483883195
N   N3        1.0  0.51120  0.25120  0.91771  1.0000 -0.2447567277
N   N4        1.0  0.77660  0.52000  0.19254  1.0000 -0.2483883195
O   O1        1.0  0.99830  0.36500  0.42903  1.0000 -0.1490670584
O   O2        1.0  0.74490  0.88170  0.44918  1.0000 -0.143040187
O   O3        1.0  0.75930  0.24650  0.10682  1.0000 -0.5706157826
O   O4        1.0  0.83900  0.37780  0.02514  1.0000 -0.5220064365
O   O5        1.0  0.04660  0.94420  0.19650  1.0000 -0.4848444306
O   O6        1.0  0.23550  0.95840  0.14620  1.0000 -0.4350075864
O   O7        1.0  0.33560  0.45650  0.01073  1.0000 -0.552213236
O   O8        1.0  0.47380  0.36060  0.09620  1.0000 -0.5558458112
O   O9        1.0  0.00170  0.63500  0.57097  1.0000 -0.1490670584
O   O10       1.0  0.25510  0.11830  0.55082  1.0000 -0.143040187
O   O11       1.0  0.24070  0.75350  0.89318  1.0000 -0.5706157826
O   O12       1.0  0.16100  0.62220  0.97486  1.0000 -0.5220064365
O   O13       1.0  0.95340  0.05580  0.80350  1.0000 -0.4860154532
O   O14       1.0  0.76450  0.04160  0.85380  1.0000 -0.4350075864
O   O15       1.0  0.66440  0.54350  0.98927  1.0000 -0.552213236
O   O16       1.0  0.52620  0.63940  0.90380  1.0000 -0.5558458112
