# DDEC6 charges by PACMAN v1.1 (https://github.com/mtap-research/PACMAN-charge/)
data_2017[Co][afw]3[FSR]1
_chemical_formula_sum              "Co6 H60 C72 N24 O24"
_cell_length_a       16.8264
_cell_length_b       16.8264
_cell_length_c       16.8264
_cell_angle_alpha    115.422
_cell_angle_beta     115.422
_cell_angle_gamma    115.422

_symmetry_space_group_name_H-M    "P 1"
_symmetry_Int_Tables_number       1

loop_
  _symmetry_equiv_pos_as_xyz
  'x, y, z'

loop_
  _atom_site_type_symbol
  _atom_site_label
  _atom_site_symmetry_multiplicity
  _atom_site_fract_x
  _atom_site_fract_y
  _atom_site_fract_z
  _atom_site_occupancy
  _atom_site_charge
Co  Co1       1.0  0.99839  0.25000  0.50161  1.0000 0.7982194946
Co  Co2       1.0  0.50161  0.99839  0.25000  1.0000 0.7982194946
Co  Co3       1.0  0.25000  0.50161  0.99839  1.0000 0.7982194946
Co  Co4       1.0  0.00161  0.75000  0.49839  1.0000 0.7982194946
Co  Co5       1.0  0.49839  0.00161  0.75000  1.0000 0.7982194946
Co  Co6       1.0  0.75000  0.49839  0.00161  1.0000 0.7982194946
H   H1        1.0  0.89390  0.98690  0.35550  1.0000 0.110974595
H   H2        1.0  0.95970  0.89230  0.33060  1.0000 0.1403864399
H   H3        1.0  0.31460  0.24530  0.55090  1.0000 0.1403864399
H   H4        1.0  0.23720  0.32830  0.56690  1.0000 0.1046302841
H   H5        1.0  0.13660  0.92500  0.40570  1.0000 0.2684623824
H   H6        1.0  0.35550  0.89390  0.98690  1.0000 0.110974595
H   H7        1.0  0.33060  0.95970  0.89230  1.0000 0.1403864399
H   H8        1.0  0.55090  0.31460  0.24530  1.0000 0.1403864399
H   H9        1.0  0.56690  0.23720  0.32830  1.0000 0.1046302841
H   H10       1.0  0.40570  0.13660  0.92500  1.0000 0.2684623824
H   H11       1.0  0.98690  0.35550  0.89390  1.0000 0.110974595
H   H12       1.0  0.89230  0.33060  0.95970  1.0000 0.1403864399
H   H13       1.0  0.24530  0.55090  0.31460  1.0000 0.1403864399
H   H14       1.0  0.32830  0.56690  0.23720  1.0000 0.1046302841
H   H15       1.0  0.92500  0.40570  0.13660  1.0000 0.2684623824
H   H16       1.0  0.60610  0.14450  0.51310  1.0000 0.110974595
H   H17       1.0  0.54030  0.16940  0.60770  1.0000 0.1403864399
H   H18       1.0  0.18540  0.94910  0.25470  1.0000 0.1403864399
H   H19       1.0  0.26280  0.93310  0.17170  1.0000 0.1046302841
H   H20       1.0  0.36340  0.09430  0.57500  1.0000 0.2684623824
H   H21       1.0  0.14450  0.51310  0.60610  1.0000 0.110974595
H   H22       1.0  0.16940  0.60770  0.54030  1.0000 0.1403864399
H   H23       1.0  0.94910  0.25470  0.18540  1.0000 0.1403864399
H   H24       1.0  0.93310  0.17170  0.26280  1.0000 0.1046302841
H   H25       1.0  0.09430  0.57500  0.36340  1.0000 0.2684623824
H   H26       1.0  0.51310  0.60610  0.14450  1.0000 0.110974595
H   H27       1.0  0.60770  0.54030  0.16940  1.0000 0.1403864399
H   H28       1.0  0.25470  0.18540  0.94910  1.0000 0.1403864399
H   H29       1.0  0.17170  0.26280  0.93310  1.0000 0.1046302841
H   H30       1.0  0.57500  0.36340  0.09430  1.0000 0.2684623824
H   H31       1.0  0.10610  0.01310  0.64450  1.0000 0.110974595
H   H32       1.0  0.04030  0.10770  0.66940  1.0000 0.1403864399
H   H33       1.0  0.68540  0.75470  0.44910  1.0000 0.1403864399
H   H34       1.0  0.76280  0.67170  0.43310  1.0000 0.1046302841
H   H35       1.0  0.86340  0.07500  0.59430  1.0000 0.2684623824
H   H36       1.0  0.64450  0.10610  0.01310  1.0000 0.110974595
H   H37       1.0  0.66940  0.04030  0.10770  1.0000 0.1403864399
H   H38       1.0  0.44910  0.68540  0.75470  1.0000 0.1403864399
H   H39       1.0  0.43310  0.76280  0.67170  1.0000 0.1046302841
H   H40       1.0  0.59430  0.86340  0.07500  1.0000 0.2684623824
H   H41       1.0  0.01310  0.64450  0.10610  1.0000 0.110974595
H   H42       1.0  0.10770  0.66940  0.04030  1.0000 0.1403864399
H   H43       1.0  0.75470  0.44910  0.68540  1.0000 0.1403864399
H   H44       1.0  0.67170  0.43310  0.76280  1.0000 0.1046302841
H   H45       1.0  0.07500  0.59430  0.86340  1.0000 0.2684623824
H   H46       1.0  0.39390  0.85550  0.48690  1.0000 0.110974595
H   H47       1.0  0.45970  0.83060  0.39230  1.0000 0.1403864399
H   H48       1.0  0.81460  0.05090  0.74530  1.0000 0.1403864399
H   H49       1.0  0.73720  0.06690  0.82830  1.0000 0.1046302841
H   H50       1.0  0.63660  0.90570  0.42500  1.0000 0.2684623824
H   H51       1.0  0.85550  0.48690  0.39390  1.0000 0.110974595
H   H52       1.0  0.83060  0.39230  0.45970  1.0000 0.1403864399
H   H53       1.0  0.05090  0.74530  0.81460  1.0000 0.1403864399
H   H54       1.0  0.06690  0.82830  0.73720  1.0000 0.1046302841
H   H55       1.0  0.90570  0.42500  0.63660  1.0000 0.2684623824
H   H56       1.0  0.48690  0.39390  0.85550  1.0000 0.110974595
H   H57       1.0  0.39230  0.45970  0.83060  1.0000 0.1403864399
H   H58       1.0  0.74530  0.81460  0.05090  1.0000 0.1403864399
H   H59       1.0  0.82830  0.73720  0.06690  1.0000 0.1046302841
H   H60       1.0  0.42500  0.63660  0.90570  1.0000 0.2684623824
C   C1        1.0  0.14639  0.05822  0.43879  1.0000 0.2423758582
C   C2        1.0  0.98063  0.04024  0.39573  1.0000 0.0755373364
C   C3        1.0  0.01934  0.98303  0.38063  1.0000 -0.2539456262
C   C4        1.0  0.22707  0.18942  0.50921  1.0000 -0.2323008911
C   C5        1.0  0.18010  0.23830  0.51870  1.0000 0.0608601794
C   C6        1.0  0.19487  0.43042  0.78101  1.0000 0.4590814487
C   C7        1.0  0.43879  0.14639  0.05822  1.0000 0.2423758582
C   C8        1.0  0.39573  0.98063  0.04024  1.0000 0.0755373364
C   C9        1.0  0.38063  0.01934  0.98303  1.0000 -0.2539456262
C   C10       1.0  0.50921  0.22707  0.18942  1.0000 -0.2323008911
C   C11       1.0  0.51870  0.18010  0.23830  1.0000 0.0608601794
C   C12       1.0  0.78101  0.19487  0.43042  1.0000 0.4590814487
C   C13       1.0  0.05822  0.43879  0.14639  1.0000 0.2423758582
C   C14       1.0  0.04024  0.39573  0.98063  1.0000 0.0755373364
C   C15       1.0  0.98303  0.38063  0.01934  1.0000 -0.2539456262
C   C16       1.0  0.18942  0.50921  0.22707  1.0000 -0.2323008911
C   C17       1.0  0.23830  0.51870  0.18010  1.0000 0.0608601794
C   C18       1.0  0.43042  0.78101  0.19487  1.0000 0.4590814487
C   C19       1.0  0.35361  0.06121  0.44178  1.0000 0.2423758582
C   C20       1.0  0.51937  0.10427  0.45976  1.0000 0.0755373364
C   C21       1.0  0.48066  0.11937  0.51697  1.0000 -0.2539456262
C   C22       1.0  0.27293  0.99079  0.31058  1.0000 -0.2323008911
C   C23       1.0  0.31990  0.98130  0.26170  1.0000 0.0608601794
C   C24       1.0  0.30513  0.71899  0.06958  1.0000 0.4590814487
C   C25       1.0  0.06121  0.44178  0.35361  1.0000 0.2423758582
C   C26       1.0  0.10427  0.45976  0.51937  1.0000 0.0755373364
C   C27       1.0  0.11937  0.51697  0.48066  1.0000 -0.2539456262
C   C28       1.0  0.99079  0.31058  0.27293  1.0000 -0.2323008911
C   C29       1.0  0.98130  0.26170  0.31990  1.0000 0.0608601794
C   C30       1.0  0.71899  0.06958  0.30513  1.0000 0.4590814487
C   C31       1.0  0.44178  0.35361  0.06121  1.0000 0.2423758582
C   C32       1.0  0.45976  0.51937  0.10427  1.0000 0.0755373364
C   C33       1.0  0.51697  0.48066  0.11937  1.0000 -0.2539456262
C   C34       1.0  0.31058  0.27293  0.99079  1.0000 -0.2323008911
C   C35       1.0  0.26170  0.31990  0.98130  1.0000 0.0608601794
C   C36       1.0  0.06958  0.30513  0.71899  1.0000 0.4590814487
C   C37       1.0  0.85361  0.94178  0.56121  1.0000 0.2423758582
C   C38       1.0  0.01937  0.95976  0.60427  1.0000 0.0755373364
C   C39       1.0  0.98066  0.01697  0.61937  1.0000 -0.2539456262
C   C40       1.0  0.77293  0.81058  0.49079  1.0000 -0.2323008911
C   C41       1.0  0.81990  0.76170  0.48130  1.0000 0.0608601794
C   C42       1.0  0.80513  0.56958  0.21899  1.0000 0.4590814487
C   C43       1.0  0.56121  0.85361  0.94178  1.0000 0.2423758582
C   C44       1.0  0.60427  0.01937  0.95976  1.0000 0.0755373364
C   C45       1.0  0.61937  0.98066  0.01697  1.0000 -0.2539456262
C   C46       1.0  0.49079  0.77293  0.81058  1.0000 -0.2323008911
C   C47       1.0  0.48130  0.81990  0.76170  1.0000 0.0608601794
C   C48       1.0  0.21899  0.80513  0.56958  1.0000 0.4590814487
C   C49       1.0  0.94178  0.56121  0.85361  1.0000 0.2423758582
C   C50       1.0  0.95976  0.60427  0.01937  1.0000 0.0755373364
C   C51       1.0  0.01697  0.61937  0.98066  1.0000 -0.2539456262
C   C52       1.0  0.81058  0.49079  0.77293  1.0000 -0.2323008911
C   C53       1.0  0.76170  0.48130  0.81990  1.0000 0.0608601794
C   C54       1.0  0.56958  0.21899  0.80513  1.0000 0.4590814487
C   C55       1.0  0.64639  0.93879  0.55822  1.0000 0.2423758582
C   C56       1.0  0.48063  0.89573  0.54024  1.0000 0.0755373364
C   C57       1.0  0.51934  0.88063  0.48303  1.0000 -0.2539456262
C   C58       1.0  0.72707  0.00921  0.68942  1.0000 -0.2323008911
C   C59       1.0  0.68010  0.01870  0.73830  1.0000 0.0608601794
C   C60       1.0  0.69487  0.28101  0.93042  1.0000 0.4590814487
C   C61       1.0  0.93879  0.55822  0.64639  1.0000 0.2423758582
C   C62       1.0  0.89573  0.54024  0.48063  1.0000 0.0755373364
C   C63       1.0  0.88063  0.48303  0.51934  1.0000 -0.2539456262
C   C64       1.0  0.00921  0.68942  0.72707  1.0000 -0.2323008911
C   C65       1.0  0.01870  0.73830  0.68010  1.0000 0.0608601794
C   C66       1.0  0.28101  0.93042  0.69487  1.0000 0.4590814487
C   C67       1.0  0.55822  0.64639  0.93879  1.0000 0.2423758582
C   C68       1.0  0.54024  0.48063  0.89573  1.0000 0.0755373364
C   C69       1.0  0.48303  0.51934  0.88063  1.0000 -0.2539456262
C   C70       1.0  0.68942  0.72707  0.00921  1.0000 -0.2323008911
C   C71       1.0  0.73830  0.68010  0.01870  1.0000 0.0608601794
C   C72       1.0  0.93042  0.69487  0.28101  1.0000 0.4590814487
N   N1        1.0  0.05812  0.16653  0.46375  1.0000 -0.2664343242
N   N2        1.0  0.18281  0.99931  0.41988  1.0000 -0.2323008911
N   N3        1.0  0.46375  0.05812  0.16653  1.0000 -0.2664343242
N   N4        1.0  0.41988  0.18281  0.99931  1.0000 -0.2323008911
N   N5        1.0  0.16653  0.46375  0.05812  1.0000 -0.2664343242
N   N6        1.0  0.99931  0.41988  0.18281  1.0000 -0.2323008911
N   N7        1.0  0.44188  0.03625  0.33347  1.0000 -0.2664343242
N   N8        1.0  0.31719  0.08012  0.50069  1.0000 -0.2323008911
N   N9        1.0  0.03625  0.33347  0.44188  1.0000 -0.2664343242
N   N10       1.0  0.08012  0.50069  0.31719  1.0000 -0.2323008911
N   N11       1.0  0.33347  0.44188  0.03625  1.0000 -0.2664343242
N   N12       1.0  0.50069  0.31719  0.08012  1.0000 -0.2323008911
N   N13       1.0  0.94188  0.83347  0.53625  1.0000 -0.2664343242
N   N14       1.0  0.81719  0.00069  0.58012  1.0000 -0.2323008911
N   N15       1.0  0.53625  0.94188  0.83347  1.0000 -0.2664343242
N   N16       1.0  0.58012  0.81719  0.00069  1.0000 -0.2323008911
N   N17       1.0  0.83347  0.53625  0.94188  1.0000 -0.2664343242
N   N18       1.0  0.00069  0.58012  0.81719  1.0000 -0.2323008911
N   N19       1.0  0.55812  0.96375  0.66653  1.0000 -0.2664343242
N   N20       1.0  0.68281  0.91988  0.49931  1.0000 -0.2323008911
N   N21       1.0  0.96375  0.66653  0.55812  1.0000 -0.2664343242
N   N22       1.0  0.91988  0.49931  0.68281  1.0000 -0.2323008911
N   N23       1.0  0.66653  0.55812  0.96375  1.0000 -0.2664343242
N   N24       1.0  0.49931  0.68281  0.91988  1.0000 -0.2323008911
O   O1        1.0  0.18589  0.42805  0.70146  1.0000 -0.518645741
O   O2        1.0  0.29779  0.52313  0.90488  1.0000 -0.4981772377
O   O3        1.0  0.70146  0.18589  0.42805  1.0000 -0.518645741
O   O4        1.0  0.90488  0.29779  0.52313  1.0000 -0.4981772377
O   O5        1.0  0.42805  0.70146  0.18589  1.0000 -0.518645741
O   O6        1.0  0.52313  0.90488  0.29779  1.0000 -0.4981772377
O   O7        1.0  0.31411  0.79854  0.07195  1.0000 -0.518645741
O   O8        1.0  0.20221  0.59512  0.97687  1.0000 -0.4981772377
O   O9        1.0  0.79854  0.07195  0.31411  1.0000 -0.518645741
O   O10       1.0  0.59512  0.97687  0.20221  1.0000 -0.4981772377
O   O11       1.0  0.07195  0.31411  0.79854  1.0000 -0.518645741
O   O12       1.0  0.97687  0.20221  0.59512  1.0000 -0.4981772377
O   O13       1.0  0.81411  0.57195  0.29854  1.0000 -0.518645741
O   O14       1.0  0.70221  0.47687  0.09512  1.0000 -0.4981772377
O   O15       1.0  0.29854  0.81411  0.57195  1.0000 -0.518645741
O   O16       1.0  0.09512  0.70221  0.47687  1.0000 -0.4981772377
O   O17       1.0  0.57195  0.29854  0.81411  1.0000 -0.518645741
O   O18       1.0  0.47687  0.09512  0.70221  1.0000 -0.4981772377
O   O19       1.0  0.68589  0.20146  0.92805  1.0000 -0.518645741
O   O20       1.0  0.79779  0.40488  0.02313  1.0000 -0.4981772377
O   O21       1.0  0.20146  0.92805  0.68589  1.0000 -0.518645741
O   O22       1.0  0.40488  0.02313  0.79779  1.0000 -0.4981772377
O   O23       1.0  0.92805  0.68589  0.20146  1.0000 -0.518645741
O   O24       1.0  0.02313  0.79779  0.40488  1.0000 -0.4981772377
