# DDEC6 charges by PACMAN v1.1 (https://github.com/mtap-research/PACMAN-charge/)
data_2017[Co][pcu]2[FSR]10
_chemical_formula_sum              "Co8 H88 C144 N56 O48"
_cell_length_a       10.093
_cell_length_b       19.313
_cell_length_c       20.787
_cell_angle_alpha    90
_cell_angle_beta     90
_cell_angle_gamma    90

_symmetry_space_group_name_H-M    "P 1"
_symmetry_Int_Tables_number       1

loop_
  _symmetry_equiv_pos_as_xyz
  'x, y, z'

loop_
  _atom_site_type_symbol
  _atom_site_label
  _atom_site_symmetry_multiplicity
  _atom_site_fract_x
  _atom_site_fract_y
  _atom_site_fract_z
  _atom_site_occupancy
  _atom_site_charge
Co  Co1       1.0  0.57813  0.05233  0.56203  1.0000 0.8396974159
Co  Co2       1.0  0.57813  0.44767  0.06203  1.0000 0.8396974159
Co  Co3       1.0  0.92187  0.94767  0.06203  1.0000 0.8396974159
Co  Co4       1.0  0.92187  0.55233  0.56203  1.0000 0.8396974159
Co  Co5       1.0  0.42187  0.55233  0.93797  1.0000 0.8396974159
Co  Co6       1.0  0.42187  0.94767  0.43797  1.0000 0.8396974159
Co  Co7       1.0  0.07813  0.44767  0.43797  1.0000 0.8396974159
Co  Co8       1.0  0.07813  0.05233  0.93797  1.0000 0.8396974159
H   H1        1.0  0.04500  0.06210  0.56680  1.0000 0.1211639211
H   H2        1.0  0.27870  0.89830  0.59890  1.0000 0.1316489023
H   H3        1.0  0.88280  0.87790  0.60780  1.0000 0.1316489023
H   H4        1.0  0.42020  0.13100  0.45090  1.0000 0.1316489023
H   H5        1.0  0.42760  0.35260  0.16670  1.0000 0.1149214906
H   H6        1.0  0.60860  0.31950  0.36250  1.0000 0.1600198103
H   H7        1.0  0.22000  0.22810  0.29790  1.0000 0.0922135888
H   H8        1.0  0.71790  0.20250  0.55060  1.0000 0.1211639211
H   H9        1.0  0.66850  0.28990  0.46950  1.0000 0.1379295318
H   H10       1.0  0.67680  0.41780  0.30230  1.0000 0.1316489023
H   H11       1.0  0.72430  0.47700  0.20170  1.0000 0.1211639211
H   H12       1.0  0.04500  0.43790  0.06680  1.0000 0.1211639211
H   H13       1.0  0.27870  0.60170  0.09890  1.0000 0.1316489023
H   H14       1.0  0.88280  0.62210  0.10780  1.0000 0.1316489023
H   H15       1.0  0.42020  0.36900  0.95090  1.0000 0.1316489023
H   H16       1.0  0.42760  0.14740  0.66667  1.0000 0.1149214906
H   H17       1.0  0.60860  0.18050  0.86250  1.0000 0.1600198103
H   H18       1.0  0.22000  0.27190  0.79790  1.0000 0.0922135888
H   H19       1.0  0.71790  0.29750  0.05060  1.0000 0.1211639211
H   H20       1.0  0.66850  0.21010  0.96950  1.0000 0.1379295318
H   H21       1.0  0.67680  0.08220  0.80230  1.0000 0.1316489023
H   H22       1.0  0.72430  0.02300  0.70170  1.0000 0.1211639211
H   H23       1.0  0.45500  0.93790  0.06680  1.0000 0.1211639211
H   H24       1.0  0.22130  0.10170  0.09890  1.0000 0.1316489023
H   H25       1.0  0.61720  0.12210  0.10780  1.0000 0.1316489023
H   H26       1.0  0.07980  0.86900  0.95090  1.0000 0.1316489023
H   H27       1.0  0.07240  0.64740  0.66667  1.0000 0.1149214906
H   H28       1.0  0.89140  0.68050  0.86250  1.0000 0.1600198103
H   H29       1.0  0.28000  0.77190  0.79790  1.0000 0.0922135888
H   H30       1.0  0.78210  0.79750  0.05060  1.0000 0.1211639211
H   H31       1.0  0.83150  0.71010  0.96950  1.0000 0.1379295318
H   H32       1.0  0.82320  0.58220  0.80230  1.0000 0.1316489023
H   H33       1.0  0.77570  0.52300  0.70170  1.0000 0.1211639211
H   H34       1.0  0.45500  0.56210  0.56680  1.0000 0.1211639211
H   H35       1.0  0.22130  0.39830  0.59890  1.0000 0.1316489023
H   H36       1.0  0.61720  0.37790  0.60780  1.0000 0.1316489023
H   H37       1.0  0.07980  0.63100  0.45090  1.0000 0.1316489023
H   H38       1.0  0.07240  0.85260  0.16670  1.0000 0.1149214906
H   H39       1.0  0.89140  0.81950  0.36250  1.0000 0.1600198103
H   H40       1.0  0.28000  0.72810  0.29790  1.0000 0.0922135888
H   H41       1.0  0.78210  0.70250  0.55060  1.0000 0.1211639211
H   H42       1.0  0.83150  0.78990  0.46950  1.0000 0.1379295318
H   H43       1.0  0.82320  0.91780  0.30230  1.0000 0.1316489023
H   H44       1.0  0.77570  0.97700  0.20170  1.0000 0.1211639211
H   H45       1.0  0.95500  0.56210  0.93320  1.0000 0.1211639211
H   H46       1.0  0.72130  0.39830  0.90110  1.0000 0.1316489023
H   H47       1.0  0.11720  0.37790  0.89220  1.0000 0.1316489023
H   H48       1.0  0.57980  0.63100  0.04910  1.0000 0.1316489023
H   H49       1.0  0.57240  0.85260  0.33333  1.0000 0.1149214906
H   H50       1.0  0.39140  0.81950  0.13750  1.0000 0.1600198103
H   H51       1.0  0.78000  0.72810  0.20210  1.0000 0.0922135888
H   H52       1.0  0.28210  0.70250  0.94940  1.0000 0.1211639211
H   H53       1.0  0.33150  0.78990  0.03050  1.0000 0.1379295318
H   H54       1.0  0.32320  0.91780  0.19770  1.0000 0.1316489023
H   H55       1.0  0.27570  0.97700  0.29830  1.0000 0.1211639211
H   H56       1.0  0.95500  0.93790  0.43320  1.0000 0.1211639211
H   H57       1.0  0.72130  0.10170  0.40110  1.0000 0.1316489023
H   H58       1.0  0.11720  0.12210  0.39220  1.0000 0.1316489023
H   H59       1.0  0.57980  0.86900  0.54910  1.0000 0.1316489023
H   H60       1.0  0.57240  0.64740  0.83330  1.0000 0.1149214906
H   H61       1.0  0.39140  0.68050  0.63750  1.0000 0.1600198103
H   H62       1.0  0.78000  0.77190  0.70210  1.0000 0.0922135888
H   H63       1.0  0.28210  0.79750  0.44940  1.0000 0.1211639211
H   H64       1.0  0.33150  0.71010  0.53050  1.0000 0.1379295318
H   H65       1.0  0.32320  0.58220  0.69770  1.0000 0.1316489023
H   H66       1.0  0.27570  0.52300  0.79830  1.0000 0.1211639211
H   H67       1.0  0.54500  0.43790  0.43320  1.0000 0.1211639211
H   H68       1.0  0.77870  0.60170  0.40110  1.0000 0.1316489023
H   H69       1.0  0.38280  0.62210  0.39220  1.0000 0.1316489023
H   H70       1.0  0.92020  0.36900  0.54910  1.0000 0.1316489023
H   H71       1.0  0.92760  0.14740  0.83330  1.0000 0.1149214906
H   H72       1.0  0.10860  0.18050  0.63750  1.0000 0.1600198103
H   H73       1.0  0.72000  0.27190  0.70210  1.0000 0.0922135888
H   H74       1.0  0.21790  0.29750  0.44940  1.0000 0.1211639211
H   H75       1.0  0.16850  0.21010  0.53050  1.0000 0.1379295318
H   H76       1.0  0.17680  0.08220  0.69770  1.0000 0.1316489023
H   H77       1.0  0.22430  0.02300  0.79830  1.0000 0.1211639211
H   H78       1.0  0.54500  0.06210  0.93320  1.0000 0.1211639211
H   H79       1.0  0.77870  0.89830  0.90110  1.0000 0.1316489023
H   H80       1.0  0.38280  0.87790  0.89220  1.0000 0.1316489023
H   H81       1.0  0.92020  0.13100  0.04910  1.0000 0.1316489023
H   H82       1.0  0.92760  0.35260  0.33333  1.0000 0.1149214906
H   H83       1.0  0.10860  0.31950  0.13750  1.0000 0.1600198103
H   H84       1.0  0.72000  0.22810  0.20210  1.0000 0.0922135888
H   H85       1.0  0.21790  0.20250  0.94940  1.0000 0.1211639211
H   H86       1.0  0.16850  0.28990  0.03050  1.0000 0.1379295318
H   H87       1.0  0.17680  0.41780  0.19770  1.0000 0.1316489023
H   H88       1.0  0.22430  0.47700  0.29830  1.0000 0.1211639211
C   C1        1.0  0.05470  0.01534  0.57640  1.0000 -0.1102110436
C   C2        1.0  0.94250  0.97560  0.58578  1.0000 -0.0037188908
C   C3        1.0  0.29960  0.03350  0.57070  1.0000 0.5582429571
C   C4        1.0  0.80890  0.00650  0.57712  1.0000 0.5230285926
C   C5        1.0  0.18080  0.98788  0.58078  1.0000 -0.0080423837
C   C6        1.0  0.08300  0.88006  0.60801  1.0000 0.064841765
C   C7        1.0  0.19520  0.91840  0.59639  1.0000 -0.1371466415
C   C8        1.0  0.95650  0.90600  0.60168  1.0000 -0.1510717319
C   C9        1.0  0.48780  0.15943  0.46594  1.0000 0.1487885499
C   C10       1.0  0.49550  0.37631  0.18747  1.0000 0.1379295318
C   C11       1.0  0.46450  0.25017  0.38357  1.0000 0.3385532675
C   C12       1.0  0.52910  0.30006  0.34888  1.0000 -0.312219535
C   C13       1.0  0.30070  0.24660  0.31110  1.0000 0.2379382281
C   C14       1.0  0.46840  0.31950  0.29252  1.0000 0.3385532675
C   C15       1.0  0.65110  0.19940  0.51990  1.0000 -0.0227284622
C   C16       1.0  0.62460  0.24800  0.47550  1.0000 -0.0974628776
C   C17       1.0  0.63290  0.41200  0.26334  1.0000 -0.0942735346
C   C18       1.0  0.65820  0.44410  0.20759  1.0000 -0.0227284622
C   C19       1.0  0.05470  0.48466  0.07640  1.0000 -0.1102110436
C   C20       1.0  0.94250  0.52440  0.08578  1.0000 -0.0037188908
C   C21       1.0  0.29960  0.46650  0.07070  1.0000 0.5582429571
C   C22       1.0  0.80890  0.49350  0.07712  1.0000 0.5230285926
C   C23       1.0  0.18080  0.51212  0.08078  1.0000 -0.0080423837
C   C24       1.0  0.08300  0.61994  0.10801  1.0000 0.064841765
C   C25       1.0  0.19520  0.58160  0.09639  1.0000 -0.1371466415
C   C26       1.0  0.95650  0.59400  0.10168  1.0000 -0.1510717319
C   C27       1.0  0.48780  0.34057  0.96594  1.0000 0.1487885499
C   C28       1.0  0.49550  0.12369  0.68747  1.0000 0.1379295318
C   C29       1.0  0.46450  0.24983  0.88357  1.0000 0.3385532675
C   C30       1.0  0.52910  0.19994  0.84888  1.0000 -0.312219535
C   C31       1.0  0.30070  0.25340  0.81110  1.0000 0.2379382281
C   C32       1.0  0.46840  0.18050  0.79252  1.0000 0.3385532675
C   C33       1.0  0.65110  0.30060  0.01990  1.0000 -0.0254043425
C   C34       1.0  0.62460  0.25200  0.97550  1.0000 -0.0974628776
C   C35       1.0  0.63290  0.08800  0.76334  1.0000 -0.0942735346
C   C36       1.0  0.65820  0.05590  0.70759  1.0000 -0.0227284622
C   C37       1.0  0.44530  0.98466  0.07640  1.0000 -0.1102110436
C   C38       1.0  0.55750  0.02440  0.08578  1.0000 -0.0037188908
C   C39       1.0  0.20040  0.96650  0.07070  1.0000 0.5582429571
C   C40       1.0  0.69110  0.99350  0.07712  1.0000 0.5230285926
C   C41       1.0  0.31920  0.01212  0.08078  1.0000 -0.0080423837
C   C42       1.0  0.41700  0.11994  0.10801  1.0000 0.0652127592
C   C43       1.0  0.30480  0.08160  0.09639  1.0000 -0.1371466415
C   C44       1.0  0.54350  0.09400  0.10168  1.0000 -0.1510717319
C   C45       1.0  0.01220  0.84057  0.96594  1.0000 0.1487885499
C   C46       1.0  0.00450  0.62369  0.68747  1.0000 0.1379295318
C   C47       1.0  0.03550  0.74983  0.88357  1.0000 0.3385532675
C   C48       1.0  0.97090  0.69994  0.84888  1.0000 -0.312219535
C   C49       1.0  0.19930  0.75340  0.81110  1.0000 0.2379382281
C   C50       1.0  0.03160  0.68050  0.79252  1.0000 0.3385532675
C   C51       1.0  0.84890  0.80060  0.01990  1.0000 -0.0254043425
C   C52       1.0  0.87540  0.75200  0.97550  1.0000 -0.0974628776
C   C53       1.0  0.86710  0.58800  0.76334  1.0000 -0.0942735346
C   C54       1.0  0.84180  0.55590  0.70759  1.0000 -0.0227284622
C   C55       1.0  0.44530  0.51534  0.57640  1.0000 -0.1102110436
C   C56       1.0  0.55750  0.47560  0.58578  1.0000 -0.0037188908
C   C57       1.0  0.20040  0.53350  0.57070  1.0000 0.5582429571
C   C58       1.0  0.69110  0.50650  0.57712  1.0000 0.5230285926
C   C59       1.0  0.31920  0.48788  0.58078  1.0000 -0.0080423837
C   C60       1.0  0.41700  0.38006  0.60801  1.0000 0.0652127592
C   C61       1.0  0.30480  0.41840  0.59639  1.0000 -0.1371466415
C   C62       1.0  0.54350  0.40600  0.60168  1.0000 -0.1510717319
C   C63       1.0  0.01220  0.65943  0.46594  1.0000 0.1487885499
C   C64       1.0  0.00450  0.87631  0.18747  1.0000 0.1379295318
C   C65       1.0  0.03550  0.75017  0.38357  1.0000 0.3385532675
C   C66       1.0  0.97090  0.80006  0.34888  1.0000 -0.312219535
C   C67       1.0  0.19930  0.74660  0.31110  1.0000 0.2379382281
C   C68       1.0  0.03160  0.81950  0.29252  1.0000 0.3385532675
C   C69       1.0  0.84890  0.69940  0.51990  1.0000 -0.0227284622
C   C70       1.0  0.87540  0.74800  0.47550  1.0000 -0.0974628776
C   C71       1.0  0.86710  0.91200  0.26334  1.0000 -0.0942735346
C   C72       1.0  0.84180  0.94410  0.20759  1.0000 -0.0227284622
C   C73       1.0  0.94530  0.51534  0.92360  1.0000 -0.1102110436
C   C74       1.0  0.05750  0.47560  0.91422  1.0000 -0.0037188908
C   C75       1.0  0.70040  0.53350  0.92930  1.0000 0.5582429571
C   C76       1.0  0.19110  0.50650  0.92288  1.0000 0.5230285926
C   C77       1.0  0.81920  0.48788  0.91922  1.0000 -0.0080423837
C   C78       1.0  0.91700  0.38006  0.89199  1.0000 0.0652127592
C   C79       1.0  0.80480  0.41840  0.90361  1.0000 -0.1371466415
C   C80       1.0  0.04350  0.40600  0.89832  1.0000 -0.1510717319
C   C81       1.0  0.51220  0.65943  0.03406  1.0000 0.1487885499
C   C82       1.0  0.50450  0.87631  0.31253  1.0000 0.1379295318
C   C83       1.0  0.53550  0.75017  0.11643  1.0000 0.3385532675
C   C84       1.0  0.47090  0.80006  0.15112  1.0000 -0.312219535
C   C85       1.0  0.69930  0.74660  0.18890  1.0000 0.2379382281
C   C86       1.0  0.53160  0.81950  0.20748  1.0000 0.3385532675
C   C87       1.0  0.34890  0.69940  0.98010  1.0000 -0.0227284622
C   C88       1.0  0.37540  0.74800  0.02450  1.0000 -0.0974628776
C   C89       1.0  0.36710  0.91200  0.23666  1.0000 -0.0942735346
C   C90       1.0  0.34180  0.94410  0.29241  1.0000 -0.0227284622
C   C91       1.0  0.94530  0.98466  0.42360  1.0000 -0.1102110436
C   C92       1.0  0.05750  0.02440  0.41422  1.0000 -0.0037188908
C   C93       1.0  0.70040  0.96650  0.42930  1.0000 0.5582429571
C   C94       1.0  0.19110  0.99350  0.42288  1.0000 0.5230285926
C   C95       1.0  0.81920  0.01212  0.41922  1.0000 -0.0080423837
C   C96       1.0  0.91700  0.11994  0.39199  1.0000 0.0652127592
C   C97       1.0  0.80480  0.08160  0.40361  1.0000 -0.1371466415
C   C98       1.0  0.04350  0.09400  0.39832  1.0000 -0.1510717319
C   C99       1.0  0.51220  0.84057  0.53406  1.0000 0.1487885499
C   C100      1.0  0.50450  0.62369  0.81253  1.0000 0.1379295318
C   C101      1.0  0.53550  0.74983  0.61643  1.0000 0.3385532675
C   C102      1.0  0.47090  0.69994  0.65112  1.0000 -0.312219535
C   C103      1.0  0.69930  0.75340  0.68890  1.0000 0.2379382281
C   C104      1.0  0.53160  0.68050  0.70748  1.0000 0.3385532675
C   C105      1.0  0.34890  0.80060  0.48010  1.0000 -0.0227284622
C   C106      1.0  0.37540  0.75200  0.52450  1.0000 -0.0974628776
C   C107      1.0  0.36710  0.58800  0.73666  1.0000 -0.0942735346
C   C108      1.0  0.34180  0.55590  0.79241  1.0000 -0.0227284622
C   C109      1.0  0.55470  0.48466  0.42360  1.0000 -0.1102110436
C   C110      1.0  0.44250  0.52440  0.41422  1.0000 -0.0037188908
C   C111      1.0  0.79960  0.46650  0.42930  1.0000 0.5582429571
C   C112      1.0  0.30890  0.49350  0.42288  1.0000 0.5230285926
C   C113      1.0  0.68080  0.51212  0.41922  1.0000 -0.0080423837
C   C114      1.0  0.58300  0.61994  0.39199  1.0000 0.0652127592
C   C115      1.0  0.69520  0.58160  0.40361  1.0000 -0.1371466415
C   C116      1.0  0.45650  0.59400  0.39832  1.0000 -0.1510717319
C   C117      1.0  0.98780  0.34057  0.53406  1.0000 0.1487885499
C   C118      1.0  0.99550  0.12369  0.81253  1.0000 0.1379295318
C   C119      1.0  0.96450  0.24983  0.61643  1.0000 0.3385532675
C   C120      1.0  0.02910  0.19994  0.65112  1.0000 -0.312219535
C   C121      1.0  0.80070  0.25340  0.68890  1.0000 0.2379382281
C   C122      1.0  0.96840  0.18050  0.70748  1.0000 0.3385532675
C   C123      1.0  0.15110  0.30060  0.48010  1.0000 -0.0227284622
C   C124      1.0  0.12460  0.25200  0.52450  1.0000 -0.0974628776
C   C125      1.0  0.13290  0.08800  0.73666  1.0000 -0.0942735346
C   C126      1.0  0.15820  0.05590  0.79241  1.0000 -0.0227284622
C   C127      1.0  0.55470  0.01534  0.92360  1.0000 -0.1102110436
C   C128      1.0  0.44250  0.97560  0.91422  1.0000 -0.0037188908
C   C129      1.0  0.79960  0.03350  0.92930  1.0000 0.5582429571
C   C130      1.0  0.30890  0.00650  0.92288  1.0000 0.5230285926
C   C131      1.0  0.68080  0.98788  0.91922  1.0000 -0.0080423837
C   C132      1.0  0.58300  0.88006  0.89199  1.0000 0.064841765
C   C133      1.0  0.69520  0.91840  0.90361  1.0000 -0.1371466415
C   C134      1.0  0.45650  0.90600  0.89832  1.0000 -0.1510717319
C   C135      1.0  0.98780  0.15943  0.03406  1.0000 0.1487885499
C   C136      1.0  0.99550  0.37631  0.31253  1.0000 0.1379295318
C   C137      1.0  0.96450  0.25017  0.11643  1.0000 0.3385532675
C   C138      1.0  0.02910  0.30006  0.15112  1.0000 -0.312219535
C   C139      1.0  0.80070  0.24660  0.18890  1.0000 0.2379382281
C   C140      1.0  0.96840  0.31950  0.20748  1.0000 0.3385532675
C   C141      1.0  0.15110  0.19940  0.98010  1.0000 -0.0227284622
C   C142      1.0  0.12460  0.24800  0.02450  1.0000 -0.0974628776
C   C143      1.0  0.13290  0.41200  0.23666  1.0000 -0.0942735346
C   C144      1.0  0.15820  0.44410  0.29241  1.0000 -0.0227284622
N   N1        1.0  0.51870  0.22269  0.44071  1.0000 -0.0227284622
N   N2        1.0  0.57210  0.42145  0.15983  1.0000 -0.2889756942
N   N3        1.0  0.56540  0.14436  0.51366  1.0000 -0.2889756942
N   N4        1.0  0.34910  0.22254  0.36612  1.0000 -0.3623666829
N   N5        1.0  0.52740  0.36804  0.25068  1.0000 -0.0227284622
N   N6        1.0  0.09810  0.80780  0.62880  1.0000 0.5074642105
N   N7        1.0  0.35370  0.29379  0.27263  1.0000 -0.3623666829
N   N8        1.0  0.51870  0.27731  0.94071  1.0000 -0.0227284622
N   N9        1.0  0.57210  0.07855  0.65983  1.0000 -0.2889756942
N   N10       1.0  0.56540  0.35564  0.01366  1.0000 -0.2889756942
N   N11       1.0  0.34910  0.27746  0.86612  1.0000 -0.3623666829
N   N12       1.0  0.52740  0.13196  0.75068  1.0000 -0.0227284622
N   N13       1.0  0.09810  0.69220  0.12880  1.0000 0.5074642105
N   N14       1.0  0.35370  0.20621  0.77263  1.0000 -0.3623666829
N   N15       1.0  0.98130  0.77731  0.94071  1.0000 -0.0227284622
N   N16       1.0  0.92790  0.57855  0.65983  1.0000 -0.2889756942
N   N17       1.0  0.93460  0.85564  0.01366  1.0000 -0.2889756942
N   N18       1.0  0.15090  0.77746  0.86612  1.0000 -0.3623666829
N   N19       1.0  0.97260  0.63196  0.75068  1.0000 -0.0227284622
N   N20       1.0  0.40190  0.19220  0.12880  1.0000 0.5074642105
N   N21       1.0  0.14630  0.70621  0.77263  1.0000 -0.3623666829
N   N22       1.0  0.98130  0.72269  0.44071  1.0000 -0.0227284622
N   N23       1.0  0.92790  0.92145  0.15983  1.0000 -0.2889756942
N   N24       1.0  0.93460  0.64436  0.51366  1.0000 -0.2889756942
N   N25       1.0  0.15090  0.72254  0.36612  1.0000 -0.3623666829
N   N26       1.0  0.97260  0.86804  0.25068  1.0000 -0.0227284622
N   N27       1.0  0.40190  0.30780  0.62880  1.0000 0.5074642105
N   N28       1.0  0.14630  0.79379  0.27263  1.0000 -0.3623666829
N   N29       1.0  0.48130  0.72269  0.05929  1.0000 -0.0227284622
N   N30       1.0  0.42790  0.92145  0.34017  1.0000 -0.2889756942
N   N31       1.0  0.43460  0.64436  0.98634  1.0000 -0.2889756942
N   N32       1.0  0.65090  0.72254  0.13388  1.0000 -0.3623666829
N   N33       1.0  0.47260  0.86804  0.24932  1.0000 -0.0227284622
N   N34       1.0  0.90190  0.30780  0.87120  1.0000 0.5074642105
N   N35       1.0  0.64630  0.79379  0.22737  1.0000 -0.3623666829
N   N36       1.0  0.48130  0.77731  0.55929  1.0000 -0.0227284622
N   N37       1.0  0.42790  0.57855  0.84017  1.0000 -0.2889756942
N   N38       1.0  0.43460  0.85564  0.48634  1.0000 -0.2889756942
N   N39       1.0  0.65090  0.77746  0.63388  1.0000 -0.3623666829
N   N40       1.0  0.47260  0.63196  0.74932  1.0000 -0.0227284622
N   N41       1.0  0.90190  0.19220  0.37120  1.0000 0.5074642105
N   N42       1.0  0.64630  0.70621  0.72737  1.0000 -0.3623666829
N   N43       1.0  0.01870  0.27731  0.55929  1.0000 -0.0227284622
N   N44       1.0  0.07210  0.07855  0.84017  1.0000 -0.2889756942
N   N45       1.0  0.06540  0.35564  0.48634  1.0000 -0.2889756942
N   N46       1.0  0.84910  0.27746  0.63388  1.0000 -0.3623666829
N   N47       1.0  0.02740  0.13196  0.74932  1.0000 -0.0227284622
N   N48       1.0  0.59810  0.69220  0.37120  1.0000 0.5074642105
N   N49       1.0  0.85370  0.20621  0.72737  1.0000 -0.3623666829
N   N50       1.0  0.01870  0.22269  0.05929  1.0000 -0.0227284622
N   N51       1.0  0.07210  0.42145  0.34017  1.0000 -0.2889756942
N   N52       1.0  0.06540  0.14436  0.98634  1.0000 -0.2889756942
N   N53       1.0  0.84910  0.22254  0.13388  1.0000 -0.3623666829
N   N54       1.0  0.02740  0.36804  0.24932  1.0000 -0.0227284622
N   N55       1.0  0.59810  0.80780  0.87120  1.0000 0.5074642105
N   N56       1.0  0.85370  0.29379  0.22737  1.0000 -0.3623666829
O   O1        1.0  0.40670  0.00219  0.55243  1.0000 -0.581359108
O   O2        1.0  0.70740  0.96854  0.57852  1.0000 -0.5167749124
O   O3        1.0  0.79850  0.07060  0.56891  1.0000 -0.5321019041
O   O4        1.0  0.28940  0.09606  0.58096  1.0000 -0.5501076775
O   O5        1.0  0.20880  0.78654  0.64000  1.0000 -0.3008418186
O   O6        1.0  0.00020  0.77355  0.63730  1.0000 -0.3008418186
O   O7        1.0  0.40670  0.49781  0.05243  1.0000 -0.581359108
O   O8        1.0  0.70740  0.53146  0.07852  1.0000 -0.5167749124
O   O9        1.0  0.79850  0.42940  0.06891  1.0000 -0.5321019041
O   O10       1.0  0.28940  0.40394  0.08096  1.0000 -0.5501076775
O   O11       1.0  0.20880  0.71346  0.14000  1.0000 -0.3008418186
O   O12       1.0  0.00020  0.72645  0.13730  1.0000 -0.3008418186
O   O13       1.0  0.09330  0.99781  0.05243  1.0000 -0.581359108
O   O14       1.0  0.79260  0.03146  0.07852  1.0000 -0.5167749124
O   O15       1.0  0.70150  0.92940  0.06891  1.0000 -0.5321019041
O   O16       1.0  0.21060  0.90394  0.08096  1.0000 -0.5501076775
O   O17       1.0  0.29120  0.21346  0.14000  1.0000 -0.3008418186
O   O18       1.0  0.49980  0.22645  0.13730  1.0000 -0.3008418186
O   O19       1.0  0.09330  0.50219  0.55243  1.0000 -0.581359108
O   O20       1.0  0.79260  0.46854  0.57852  1.0000 -0.5167749124
O   O21       1.0  0.70150  0.57060  0.56891  1.0000 -0.5321019041
O   O22       1.0  0.21060  0.59606  0.58096  1.0000 -0.5501076775
O   O23       1.0  0.29120  0.28654  0.64000  1.0000 -0.3008418186
O   O24       1.0  0.49980  0.27355  0.63730  1.0000 -0.3008418186
O   O25       1.0  0.59330  0.50219  0.94757  1.0000 -0.581359108
O   O26       1.0  0.29260  0.46854  0.92148  1.0000 -0.5167749124
O   O27       1.0  0.20150  0.57060  0.93109  1.0000 -0.5321019041
O   O28       1.0  0.71060  0.59606  0.91904  1.0000 -0.5501076775
O   O29       1.0  0.79120  0.28654  0.86000  1.0000 -0.3008418186
O   O30       1.0  0.99980  0.27355  0.86270  1.0000 -0.3008418186
O   O31       1.0  0.59330  0.99781  0.44757  1.0000 -0.581359108
O   O32       1.0  0.29260  0.03146  0.42148  1.0000 -0.5167749124
O   O33       1.0  0.20150  0.92940  0.43109  1.0000 -0.5321019041
O   O34       1.0  0.71060  0.90394  0.41904  1.0000 -0.5501076775
O   O35       1.0  0.79120  0.21346  0.36000  1.0000 -0.3008418186
O   O36       1.0  0.99980  0.22645  0.36270  1.0000 -0.3008418186
O   O37       1.0  0.90670  0.49781  0.44757  1.0000 -0.581359108
O   O38       1.0  0.20740  0.53146  0.42148  1.0000 -0.5167749124
O   O39       1.0  0.29850  0.42940  0.43109  1.0000 -0.5321019041
O   O40       1.0  0.78940  0.40394  0.41904  1.0000 -0.5501076775
O   O41       1.0  0.70880  0.71346  0.36000  1.0000 -0.3008418186
O   O42       1.0  0.50020  0.72645  0.36270  1.0000 -0.3008418186
O   O43       1.0  0.90670  0.00219  0.94757  1.0000 -0.581359108
O   O44       1.0  0.20740  0.96854  0.92148  1.0000 -0.5167749124
O   O45       1.0  0.29850  0.07060  0.93109  1.0000 -0.5321019041
O   O46       1.0  0.78940  0.09606  0.91904  1.0000 -0.5501076775
O   O47       1.0  0.70880  0.78654  0.86000  1.0000 -0.3008418186
O   O48       1.0  0.50020  0.77355  0.86270  1.0000 -0.3008418186
