# DDEC6 charges by PACMAN v1.1 (https://github.com/mtap-research/PACMAN-charge/)
data_2017[Mn][sql]2[FSR]2
_chemical_formula_sum              "Mn2 H42 C62 N10 O8"
_cell_length_a       10.129
_cell_length_b       13.293
_cell_length_c       13.295
_cell_angle_alpha    101.373
_cell_angle_beta     101.661
_cell_angle_gamma    109.825

_symmetry_space_group_name_H-M    "P 1"
_symmetry_Int_Tables_number       1

loop_
  _symmetry_equiv_pos_as_xyz
  'x, y, z'

loop_
  _atom_site_type_symbol
  _atom_site_label
  _atom_site_symmetry_multiplicity
  _atom_site_fract_x
  _atom_site_fract_y
  _atom_site_fract_z
  _atom_site_occupancy
  _atom_site_charge
Mn  Mn1       1.0  0.35773  0.61171  0.99205  1.0000 0.8845003067
Mn  Mn2       1.0  0.64227  0.38829  0.00795  1.0000 0.8845003067
H   H1        1.0  0.07400  0.38190  0.96890  1.0000 0.1200751877
H   H2        1.0  0.11920  0.54660  0.14540  1.0000 0.1200751877
H   H3        1.0  0.51820  0.54240  0.80720  1.0000 0.1200751877
H   H4        1.0  0.54160  0.72720  0.25240  1.0000 0.1271974861
H   H5        1.0  0.76710  0.60870  0.76620  1.0000 0.1200751877
H   H6        1.0  0.48360  0.78170  0.68020  1.0000 0.1271974861
H   H7        1.0  0.34950  0.76800  0.81430  1.0000 0.1200751877
H   H8        1.0  0.44080  0.76310  0.40150  1.0000 0.1200751877
H   H9        1.0  0.28080  0.18000  0.02470  1.0000 0.1111845617
H   H10       1.0  0.10140  0.08670  0.09470  1.0000 0.1111845617
H   H11       1.0  0.95360  0.56140  0.22890  1.0000 0.1384773298
H   H12       1.0  0.53350  0.92870  0.07940  1.0000 0.1384773298
H   H13       1.0  0.78740  0.54910  0.32670  1.0000 0.1111845617
H   H14       1.0  0.68130  0.03290  0.99120  1.0000 0.1200751877
H   H15       1.0  0.92770  0.59860  0.66730  1.0000 0.1200751877
H   H16       1.0  0.67470  0.64340  0.42310  1.0000 0.1111845617
H   H17       1.0  0.51190  0.65010  0.52070  1.0000 0.1200751877
H   H18       1.0  0.11470  0.70880  0.59740  1.0000 0.1111845617
H   H19       1.0  0.28170  0.72200  0.50000  1.0000 0.1200751877
H   H20       1.0  0.00930  0.15210  0.26310  1.0000 0.1033178351
H   H21       1.0  0.62750  0.94610  0.25370  1.0000 0.1111845617
H   H22       1.0  0.92600  0.61810  0.03110  1.0000 0.1200751877
H   H23       1.0  0.88080  0.45340  0.85460  1.0000 0.1200751877
H   H24       1.0  0.48180  0.45760  0.19280  1.0000 0.1200751877
H   H25       1.0  0.45840  0.27280  0.74760  1.0000 0.1271974861
H   H26       1.0  0.23290  0.39130  0.23380  1.0000 0.1200751877
H   H27       1.0  0.51640  0.21830  0.31980  1.0000 0.1271974861
H   H28       1.0  0.65050  0.23200  0.18570  1.0000 0.1200751877
H   H29       1.0  0.55920  0.23690  0.59850  1.0000 0.1200751877
H   H30       1.0  0.71920  0.82000  0.97530  1.0000 0.1111845617
H   H31       1.0  0.89860  0.91330  0.90530  1.0000 0.1111845617
H   H32       1.0  0.04640  0.43860  0.77110  1.0000 0.1384773298
H   H33       1.0  0.46650  0.07130  0.92060  1.0000 0.1384773298
H   H34       1.0  0.21260  0.45090  0.67330  1.0000 0.1111845617
H   H35       1.0  0.31870  0.96710  0.00880  1.0000 0.1200751877
H   H36       1.0  0.07230  0.40140  0.33270  1.0000 0.1200751877
H   H37       1.0  0.32530  0.35660  0.57690  1.0000 0.1111845617
H   H38       1.0  0.48810  0.34990  0.47930  1.0000 0.1200751877
H   H39       1.0  0.88530  0.29120  0.40260  1.0000 0.1111845617
H   H40       1.0  0.71830  0.27800  0.50000  1.0000 0.1200751877
H   H41       1.0  0.99070  0.84790  0.73690  1.0000 0.1033178351
H   H42       1.0  0.37250  0.05390  0.74630  1.0000 0.1111845617
C   C1        1.0  0.31700  0.35400  0.94600  1.0000 0.5746552168
C   C2        1.0  0.07780  0.32110  0.99210  1.0000 -0.1384165169
C   C3        1.0  0.84280  0.30430  0.02960  1.0000 0.5483335673
C   C4        1.0  0.19530  0.28990  0.98730  1.0000 -0.03016323
C   C5        1.0  0.21180  0.59580  0.19000  1.0000 0.1033178351
C   C6        1.0  0.49260  0.60010  0.79280  1.0000 0.0930080681
C   C7        1.0  0.96520  0.26260  0.03110  1.0000 -0.0611995862
C   C8        1.0  0.13470  0.64270  0.35440  1.0000 0.151672688
C   C9        1.0  0.62780  0.63650  0.65570  1.0000 0.151672688
C   C10       1.0  0.97260  0.17290  0.06960  1.0000 0.0506266772
C   C11       1.0  0.93150  0.62740  0.47310  1.0000 0.0635802193
C   C12       1.0  0.44320  0.69520  0.24930  1.0000 -0.03016323
C   C13       1.0  0.74920  0.61750  0.69780  1.0000 -0.1712506221
C   C14       1.0  0.82280  0.62410  0.53470  1.0000 0.0689083531
C   C15       1.0  0.47450  0.73220  0.72150  1.0000 -0.1117555828
C   C16       1.0  0.40060  0.72410  0.79620  1.0000 -0.03016323
C   C17       1.0  0.86390  0.10780  0.11920  1.0000 0.0328272327
C   C18       1.0  0.38870  0.71560  0.33270  1.0000 -0.1316792996
C   C19       1.0  0.20260  0.20130  0.02640  1.0000 -0.0988028229
C   C20       1.0  0.09380  0.14460  0.06770  1.0000 -0.1627766968
C   C21       1.0  0.98710  0.59140  0.30310  1.0000 -0.1712506221
C   C22       1.0  0.63060  0.97620  0.11540  1.0000 -0.1316792996
C   C23       1.0  0.88730  0.58420  0.36260  1.0000 -0.1220380173
C   C24       1.0  0.71880  0.03810  0.06280  1.0000 -0.0926127017
C   C25       1.0  0.84570  0.61150  0.63780  1.0000 -0.1384165169
C   C26       1.0  0.69550  0.63760  0.49260  1.0000 -0.1384165169
C   C27       1.0  0.59770  0.64260  0.55150  1.0000 -0.1886802297
C   C28       1.0  0.08080  0.67890  0.52320  1.0000 -0.1220380173
C   C29       1.0  0.18170  0.68670  0.46450  1.0000 -0.1886802297
C   C30       1.0  0.91160  0.10820  0.22530  1.0000 0.012626881
C   C31       1.0  0.68880  0.98650  0.21960  1.0000 0.0689083531
C   C32       1.0  0.68300  0.64600  0.05400  1.0000 0.5746552168
C   C33       1.0  0.92220  0.67890  0.00790  1.0000 -0.1384165169
C   C34       1.0  0.15720  0.69570  0.97040  1.0000 0.5483335673
C   C35       1.0  0.80470  0.71010  0.01270  1.0000 -0.03016323
C   C36       1.0  0.78820  0.40420  0.81000  1.0000 0.1033178351
C   C37       1.0  0.50740  0.39990  0.20720  1.0000 0.0930080681
C   C38       1.0  0.03480  0.73740  0.96890  1.0000 -0.0611995862
C   C39       1.0  0.86530  0.35730  0.64560  1.0000 0.151672688
C   C40       1.0  0.37220  0.36350  0.34430  1.0000 0.151672688
C   C41       1.0  0.02740  0.82710  0.93040  1.0000 0.0506266772
C   C42       1.0  0.06850  0.37260  0.52690  1.0000 0.0635802193
C   C43       1.0  0.55680  0.30480  0.75070  1.0000 -0.03016323
C   C44       1.0  0.25080  0.38250  0.30220  1.0000 -0.1712506221
C   C45       1.0  0.17720  0.37590  0.46530  1.0000 0.0689083531
C   C46       1.0  0.52550  0.26780  0.27850  1.0000 -0.1117555828
C   C47       1.0  0.59940  0.27590  0.20380  1.0000 -0.03016323
C   C48       1.0  0.13610  0.89220  0.88080  1.0000 0.0328272327
C   C49       1.0  0.61130  0.28440  0.66730  1.0000 -0.1316792996
C   C50       1.0  0.79740  0.79870  0.97360  1.0000 -0.0988028229
C   C51       1.0  0.90620  0.85540  0.93230  1.0000 -0.1627766968
C   C52       1.0  0.01290  0.40860  0.69690  1.0000 -0.1712506221
C   C53       1.0  0.36940  0.02380  0.88460  1.0000 -0.1316792996
C   C54       1.0  0.11270  0.41580  0.63740  1.0000 -0.1220380173
C   C55       1.0  0.28120  0.96190  0.93720  1.0000 -0.0926127017
C   C56       1.0  0.15430  0.38850  0.36220  1.0000 -0.1384165169
C   C57       1.0  0.30450  0.36240  0.50740  1.0000 -0.1384165169
C   C58       1.0  0.40230  0.35740  0.44850  1.0000 -0.1844715954
C   C59       1.0  0.91920  0.32110  0.47680  1.0000 -0.1220380173
C   C60       1.0  0.81830  0.31330  0.53550  1.0000 -0.1886802297
C   C61       1.0  0.08840  0.89180  0.77470  1.0000 0.012626881
C   C62       1.0  0.31120  0.01350  0.78040  1.0000 0.0689083531
N   N1        1.0  0.33310  0.62050  0.15930  1.0000 -0.30209561
N   N2        1.0  0.41240  0.64140  0.84130  1.0000 -0.288921404
N   N3        1.0  0.23940  0.65100  0.29433  1.0000 0.0043911645
N   N4        1.0  0.53300  0.65280  0.71890  1.0000 -0.0008961156
N   N5        1.0  0.82730  0.05020  0.27710  1.0000 -0.2517547787
N   N6        1.0  0.66690  0.37950  0.84070  1.0000 -0.30209561
N   N7        1.0  0.58760  0.35860  0.15870  1.0000 -0.288921404
N   N8        1.0  0.76060  0.34900  0.70567  1.0000 0.0043911645
N   N9        1.0  0.46700  0.34720  0.28110  1.0000 -0.0008961156
N   N10       1.0  0.17270  0.94980  0.72290  1.0000 -0.2517547787
O   O1        1.0  0.87890  0.40865  0.05971  1.0000 -0.5506783407
O   O2        1.0  0.41080  0.31353  0.93403  1.0000 -0.5506783407
O   O3        1.0  0.71080  0.23634  0.99525  1.0000 -0.5506783407
O   O4        1.0  0.31920  0.44340  0.92797  1.0000 -0.5577743829
O   O5        1.0  0.12110  0.59135  0.94029  1.0000 -0.5506783407
O   O6        1.0  0.58920  0.68647  0.06597  1.0000 -0.5506783407
O   O7        1.0  0.28920  0.76366  0.00475  1.0000 -0.5506783407
O   O8        1.0  0.68080  0.55660  0.07203  1.0000 -0.5577743829
