# DDEC6 charges by PACMAN v1.1 (https://github.com/mtap-research/PACMAN-charge/)
data_2017[Zn][nan]2[FSR]4
_chemical_formula_sum              "Zn4 H116 C164 N8 O32"
_cell_length_a       19.2327
_cell_length_b       19.2327
_cell_length_c       15.4366
_cell_angle_alpha    74.3906
_cell_angle_beta     105.609
_cell_angle_gamma    137.137

_symmetry_space_group_name_H-M    "P 1"
_symmetry_Int_Tables_number       1

loop_
  _symmetry_equiv_pos_as_xyz
  'x, y, z'

loop_
  _atom_site_type_symbol
  _atom_site_label
  _atom_site_symmetry_multiplicity
  _atom_site_fract_x
  _atom_site_fract_y
  _atom_site_fract_z
  _atom_site_occupancy
  _atom_site_charge
Zn  Zn1       1.0  0.41352  0.17654  0.73975  1.0000 0.926980252
Zn  Zn2       1.0  0.17654  0.41352  0.76025  1.0000 0.926980252
Zn  Zn3       1.0  0.58648  0.82346  0.26025  1.0000 0.926980252
Zn  Zn4       1.0  0.82346  0.58648  0.23975  1.0000 0.926980252
H   H1        1.0  0.96430  0.52290  0.68530  1.0000 0.1289318042
H   H2        1.0  0.09380  0.65920  0.62020  1.0000 0.1378174672
H   H3        1.0  0.59050  0.16290  0.42400  1.0000 0.120327544
H   H4        1.0  0.85350  0.21130  0.73900  1.0000 0.1086411494
H   H5        1.0  0.41900  0.06820  0.37600  1.0000 0.1289318042
H   H6        1.0  0.81630  0.37030  0.74180  1.0000 0.120327544
H   H7        1.0  0.09260  0.95280  0.20600  1.0000 0.1086411494
H   H8        1.0  0.23100  0.80660  0.54680  1.0000 0.1378174672
H   H9        1.0  0.67810  0.10710  0.69460  1.0000 0.1086411494
H   H10       1.0  0.04310  0.02830  0.12120  1.0000 0.1086411494
H   H11       1.0  0.74310  0.32190  0.49130  1.0000 0.1378174672
H   H12       1.0  0.91640  0.42680  0.53510  1.0000 0.1289318042
H   H13       1.0  0.85490  0.64450  0.64340  1.0000 0.1086411494
H   H14       1.0  0.53140  0.08300  0.68240  1.0000 0.1289318042
H   H15       1.0  0.34580  0.28460  0.14020  1.0000 0.1289318042
H   H16       1.0  0.33290  0.23170  0.29150  1.0000 0.120327544
H   H17       1.0  0.36330  0.15970  0.42190  1.0000 0.1289318042
H   H18       1.0  0.02180  0.09800  0.98380  1.0000 0.1038318433
H   H19       1.0  0.36070  0.99210  0.63310  1.0000 0.1289318042
H   H20       1.0  0.11560  0.91980  0.50860  1.0000 0.1086411494
H   H21       1.0  0.12360  0.88160  0.33780  1.0000 0.1289318042
H   H22       1.0  0.98160  0.77660  0.58770  1.0000 0.1038318433
H   H23       1.0  0.70520  0.49100  0.69760  1.0000 0.120327544
H   H24       1.0  0.32330  0.36010  0.00880  1.0000 0.1289318042
H   H25       1.0  0.33870  0.13610  0.95470  1.0000 0.120327544
H   H26       1.0  0.23560  0.13260  0.78590  1.0000 0.2431117768
H   H27       1.0  0.10550  0.07270  0.83800  1.0000 0.1289318042
H   H28       1.0  0.12960  0.02360  0.92240  1.0000 0.120327544
H   H29       1.0  0.18230  0.13570  0.92030  1.0000 0.120327544
H   H30       1.0  0.52290  0.96430  0.81470  1.0000 0.1289318042
H   H31       1.0  0.65920  0.09380  0.87980  1.0000 0.1378174672
H   H32       1.0  0.16290  0.59050  0.07600  1.0000 0.120327544
H   H33       1.0  0.21130  0.85350  0.76100  1.0000 0.1086411494
H   H34       1.0  0.06820  0.41900  0.12400  1.0000 0.1289318042
H   H35       1.0  0.37030  0.81630  0.75820  1.0000 0.120327544
H   H36       1.0  0.95280  0.09260  0.29400  1.0000 0.1086411494
H   H37       1.0  0.80660  0.23100  0.95320  1.0000 0.1378174672
H   H38       1.0  0.10710  0.67810  0.80540  1.0000 0.1086411494
H   H39       1.0  0.02830  0.04310  0.37880  1.0000 0.1086411494
H   H40       1.0  0.32190  0.74310  0.00870  1.0000 0.1378174672
H   H41       1.0  0.42680  0.91640  0.96490  1.0000 0.1289318042
H   H42       1.0  0.64450  0.85490  0.85660  1.0000 0.1086411494
H   H43       1.0  0.08300  0.53140  0.81760  1.0000 0.1289318042
H   H44       1.0  0.28460  0.34580  0.35980  1.0000 0.1289318042
H   H45       1.0  0.23170  0.33290  0.20850  1.0000 0.120327544
H   H46       1.0  0.15970  0.36330  0.07810  1.0000 0.1289318042
H   H47       1.0  0.09800  0.02180  0.51620  1.0000 0.1038318433
H   H48       1.0  0.99210  0.36070  0.86690  1.0000 0.1289318042
H   H49       1.0  0.91980  0.11560  0.99140  1.0000 0.1086411494
H   H50       1.0  0.88160  0.12360  0.16220  1.0000 0.1289318042
H   H51       1.0  0.77660  0.98160  0.91230  1.0000 0.1038318433
H   H52       1.0  0.49100  0.70520  0.80240  1.0000 0.120327544
H   H53       1.0  0.36010  0.32330  0.49120  1.0000 0.1289318042
H   H54       1.0  0.13610  0.33870  0.54530  1.0000 0.120327544
H   H55       1.0  0.13260  0.23560  0.71410  1.0000 0.2431117768
H   H56       1.0  0.07270  0.10550  0.66200  1.0000 0.1289318042
H   H57       1.0  0.02360  0.12960  0.57760  1.0000 0.120327544
H   H58       1.0  0.13570  0.18230  0.57970  1.0000 0.120327544
H   H59       1.0  0.03570  0.47710  0.31470  1.0000 0.1289318042
H   H60       1.0  0.90620  0.34080  0.37980  1.0000 0.1378174672
H   H61       1.0  0.40950  0.83710  0.57600  1.0000 0.120327544
H   H62       1.0  0.14650  0.78870  0.26100  1.0000 0.1086411494
H   H63       1.0  0.58100  0.93180  0.62400  1.0000 0.1289318042
H   H64       1.0  0.18370  0.62970  0.25820  1.0000 0.120327544
H   H65       1.0  0.90740  0.04720  0.79400  1.0000 0.1086411494
H   H66       1.0  0.76900  0.19340  0.45320  1.0000 0.1378174672
H   H67       1.0  0.32190  0.89290  0.30540  1.0000 0.1086411494
H   H68       1.0  0.95690  0.97170  0.87880  1.0000 0.1086411494
H   H69       1.0  0.25690  0.67810  0.50870  1.0000 0.1378174672
H   H70       1.0  0.08360  0.57320  0.46490  1.0000 0.1289318042
H   H71       1.0  0.14510  0.35550  0.35660  1.0000 0.1086411494
H   H72       1.0  0.46860  0.91700  0.31760  1.0000 0.1289318042
H   H73       1.0  0.65420  0.71540  0.85980  1.0000 0.1289318042
H   H74       1.0  0.66710  0.76830  0.70850  1.0000 0.120327544
H   H75       1.0  0.63670  0.84030  0.57810  1.0000 0.1289318042
H   H76       1.0  0.97820  0.90200  0.01620  1.0000 0.1038318433
H   H77       1.0  0.63930  0.00790  0.36690  1.0000 0.1289318042
H   H78       1.0  0.88440  0.08020  0.49140  1.0000 0.1086411494
H   H79       1.0  0.87640  0.11840  0.66220  1.0000 0.1289318042
H   H80       1.0  0.01840  0.22340  0.41230  1.0000 0.1038318433
H   H81       1.0  0.29480  0.50900  0.30240  1.0000 0.120327544
H   H82       1.0  0.67670  0.63990  0.99120  1.0000 0.1289318042
H   H83       1.0  0.66130  0.86390  0.04530  1.0000 0.120327544
H   H84       1.0  0.76440  0.86740  0.21410  1.0000 0.2431117768
H   H85       1.0  0.89450  0.92730  0.16200  1.0000 0.1289318042
H   H86       1.0  0.87040  0.97640  0.07760  1.0000 0.120327544
H   H87       1.0  0.81770  0.86430  0.07970  1.0000 0.120327544
H   H88       1.0  0.47710  0.03570  0.18530  1.0000 0.1289318042
H   H89       1.0  0.34080  0.90620  0.12020  1.0000 0.1378174672
H   H90       1.0  0.83710  0.40950  0.92400  1.0000 0.120327544
H   H91       1.0  0.78870  0.14650  0.23900  1.0000 0.1086411494
H   H92       1.0  0.93180  0.58100  0.87600  1.0000 0.1289318042
H   H93       1.0  0.62970  0.18370  0.24180  1.0000 0.120327544
H   H94       1.0  0.04720  0.90740  0.70600  1.0000 0.1086411494
H   H95       1.0  0.19340  0.76900  0.04680  1.0000 0.1378174672
H   H96       1.0  0.89290  0.32190  0.19460  1.0000 0.1086411494
H   H97       1.0  0.97170  0.95690  0.62120  1.0000 0.1086411494
H   H98       1.0  0.67810  0.25690  0.99130  1.0000 0.1378174672
H   H99       1.0  0.57320  0.08360  0.03510  1.0000 0.1289318042
H   H100      1.0  0.35550  0.14510  0.14340  1.0000 0.1038318433
H   H101      1.0  0.91700  0.46860  0.18240  1.0000 0.1289318042
H   H102      1.0  0.71540  0.65420  0.64020  1.0000 0.1289318042
H   H103      1.0  0.76830  0.66710  0.79150  1.0000 0.120327544
H   H104      1.0  0.84030  0.63670  0.92190  1.0000 0.1289318042
H   H105      1.0  0.90200  0.97820  0.48380  1.0000 0.1038318433
H   H106      1.0  0.00790  0.63930  0.13310  1.0000 0.1289318042
H   H107      1.0  0.08020  0.88440  0.00860  1.0000 0.1086411494
H   H108      1.0  0.11840  0.87640  0.83780  1.0000 0.1289318042
H   H109      1.0  0.22340  0.01840  0.08770  1.0000 0.1038318433
H   H110      1.0  0.50900  0.29480  0.19760  1.0000 0.120327544
H   H111      1.0  0.63990  0.67670  0.50880  1.0000 0.1289318042
H   H112      1.0  0.86390  0.66130  0.45470  1.0000 0.120327544
H   H113      1.0  0.86740  0.76440  0.28590  1.0000 0.2431117768
H   H114      1.0  0.92730  0.89450  0.33800  1.0000 0.1289318042
H   H115      1.0  0.97640  0.87040  0.42240  1.0000 0.120327544
H   H116      1.0  0.86430  0.81770  0.42030  1.0000 0.120327544
C   C1        1.0  0.90217  0.32923  0.64240  1.0000 -0.0429379804
C   C2        1.0  0.91181  0.51659  0.68680  1.0000 -0.1404490372
C   C3        1.0  0.09715  0.71145  0.59760  1.0000 -0.1005575632
C   C4        1.0  0.92515  0.59985  0.65350  1.0000 0.0701249328
C   C5        1.0  0.64704  0.31356  0.76170  1.0000 0.5834719787
C   C6        1.0  0.54497  0.12923  0.46650  1.0000 -0.1183937896
C   C7        1.0  0.83157  0.23383  0.68960  1.0000 -0.113452529
C   C8        1.0  0.18844  0.87976  0.51890  1.0000 0.1780503976
C   C9        1.0  0.44173  0.07207  0.43750  1.0000 -0.1698744629
C   C10       1.0  0.69195  0.20185  0.58880  1.0000 0.0701249328
C   C11       1.0  0.82319  0.42501  0.72200  1.0000 -0.079545108
C   C12       1.0  0.14804  0.99496  0.24840  1.0000 -0.1304721031
C   C13       1.0  0.01794  0.69726  0.60960  1.0000 0.0612173924
C   C14       1.0  0.01441  0.39719  0.66970  1.0000 0.5710268864
C   C15       1.0  0.17985  0.80015  0.55350  1.0000 -0.1505339214
C   C16       1.0  0.21312  0.10168  0.23350  1.0000 0.0516601155
C   C17       1.0  0.72575  0.17085  0.66220  1.0000 -0.1505339214
C   C18       1.0  0.58142  0.13698  0.55830  1.0000 0.0701249328
C   C19       1.0  0.74462  0.41218  0.72860  1.0000 -0.0496359788
C   C20       1.0  0.09977  0.09403  0.09770  1.0000 -0.1505339214
C   C21       1.0  0.76521  0.29979  0.54100  1.0000 -0.1304721031
C   C22       1.0  0.86868  0.36252  0.56710  1.0000 -0.0886837773
C   C23       1.0  0.37376  0.02164  0.49900  1.0000 0.1701295214
C   C24       1.0  0.84653  0.58867  0.66160  1.0000 -0.1632477366
C   C25       1.0  0.50978  0.08202  0.62070  1.0000 -0.1005575632
C   C26       1.0  0.28015  0.24765  0.11000  1.0000 -0.1505339214
C   C27       1.0  0.29151  0.16129  0.29940  1.0000 -0.1183937896
C   C28       1.0  0.31009  0.11831  0.37790  1.0000 -0.1632477366
C   C29       1.0  0.19801  0.14899  0.14650  1.0000 0.0795519749
C   C30       1.0  0.08664  0.13616  0.01620  1.0000 -0.1505339214
C   C31       1.0  0.40700  0.02620  0.59130  1.0000 -0.1698744629
C   C32       1.0  0.24884  0.01376  0.38980  1.0000 0.1701295214
C   C33       1.0  0.17126  0.23714  0.98150  1.0000 -0.0496359788
C   C34       1.0  0.11189  0.86731  0.53180  1.0000 -0.1803418448
C   C35       1.0  0.16714  0.95246  0.32750  1.0000 -0.1803418448
C   C36       1.0  0.02987  0.78033  0.57780  1.0000 -0.1505339214
C   C37       1.0  0.75776  0.49744  0.69580  1.0000 -0.1005575632
C   C38       1.0  0.26727  0.29253  0.03000  1.0000 -0.1005575632
C   C39       1.0  0.15344  0.28196  0.89370  1.0000 0.4519751766
C   C40       1.0  0.33230  0.15430  0.89300  1.0000 0.2926712433
C   C41       1.0  0.15780  0.08620  0.88440  1.0000 -0.2841323962
C   C42       1.0  0.32923  0.90217  0.85760  1.0000 -0.0429379804
C   C43       1.0  0.51659  0.91181  0.81320  1.0000 -0.1404490372
C   C44       1.0  0.71145  0.09715  0.90240  1.0000 -0.1005575632
C   C45       1.0  0.59985  0.92515  0.84650  1.0000 0.0701249328
C   C46       1.0  0.31356  0.64704  0.73830  1.0000 0.5834719787
C   C47       1.0  0.12923  0.54497  0.03350  1.0000 -0.1183937896
C   C48       1.0  0.23383  0.83157  0.81040  1.0000 -0.113452529
C   C49       1.0  0.87976  0.18844  0.98110  1.0000 0.1780503976
C   C50       1.0  0.07207  0.44173  0.06250  1.0000 -0.1698744629
C   C51       1.0  0.20185  0.69195  0.91120  1.0000 0.0701249328
C   C52       1.0  0.42501  0.82319  0.77800  1.0000 -0.079545108
C   C53       1.0  0.99496  0.14804  0.25160  1.0000 -0.1304721031
C   C54       1.0  0.69726  0.01794  0.89040  1.0000 0.0612173924
C   C55       1.0  0.39719  0.01441  0.83030  1.0000 0.5710268864
C   C56       1.0  0.80015  0.17985  0.94650  1.0000 -0.1505339214
C   C57       1.0  0.10168  0.21312  0.26650  1.0000 0.0516601155
C   C58       1.0  0.17085  0.72575  0.83780  1.0000 -0.1505339214
C   C59       1.0  0.13698  0.58142  0.94170  1.0000 0.0701249328
C   C60       1.0  0.41218  0.74462  0.77140  1.0000 -0.0496359788
C   C61       1.0  0.09403  0.09977  0.40230  1.0000 -0.1505339214
C   C62       1.0  0.29979  0.76521  0.95900  1.0000 -0.1304721031
C   C63       1.0  0.36252  0.86868  0.93290  1.0000 -0.0886837773
C   C64       1.0  0.02164  0.37376  0.00100  1.0000 0.1701295214
C   C65       1.0  0.58867  0.84653  0.83840  1.0000 -0.1632477366
C   C66       1.0  0.08202  0.50978  0.87930  1.0000 -0.1005575632
C   C67       1.0  0.24765  0.28015  0.39000  1.0000 -0.1505339214
C   C68       1.0  0.16129  0.29151  0.20060  1.0000 -0.1183937896
C   C69       1.0  0.11831  0.31009  0.12210  1.0000 -0.1632477366
C   C70       1.0  0.14899  0.19801  0.35350  1.0000 0.0795519749
C   C71       1.0  0.13616  0.08664  0.48380  1.0000 -0.1505339214
C   C72       1.0  0.02620  0.40700  0.90870  1.0000 -0.1698744629
C   C73       1.0  0.01376  0.24884  0.11020  1.0000 0.1701295214
C   C74       1.0  0.23714  0.17126  0.51850  1.0000 -0.0496359788
C   C75       1.0  0.86731  0.11189  0.96820  1.0000 -0.1803418448
C   C76       1.0  0.95246  0.16714  0.17250  1.0000 -0.1803418448
C   C77       1.0  0.78033  0.02987  0.92220  1.0000 -0.1505339214
C   C78       1.0  0.49744  0.75776  0.80420  1.0000 -0.1005575632
C   C79       1.0  0.29253  0.26727  0.47000  1.0000 -0.1005575632
C   C80       1.0  0.28196  0.15344  0.60630  1.0000 0.4519751766
C   C81       1.0  0.15430  0.33230  0.60700  1.0000 0.2926712433
C   C82       1.0  0.08620  0.15780  0.61560  1.0000 -0.2841323962
C   C83       1.0  0.09783  0.67077  0.35760  1.0000 -0.0429379804
C   C84       1.0  0.08819  0.48341  0.31320  1.0000 -0.1404490372
C   C85       1.0  0.90285  0.28855  0.40240  1.0000 -0.1005575632
C   C86       1.0  0.07485  0.40015  0.34650  1.0000 0.0701249328
C   C87       1.0  0.35296  0.68644  0.23830  1.0000 0.5834719787
C   C88       1.0  0.45503  0.87077  0.53350  1.0000 -0.1183937896
C   C89       1.0  0.16843  0.76617  0.31040  1.0000 -0.113452529
C   C90       1.0  0.81156  0.12024  0.48110  1.0000 0.1780503976
C   C91       1.0  0.55827  0.92793  0.56250  1.0000 -0.1698744629
C   C92       1.0  0.30805  0.79815  0.41120  1.0000 0.0701249328
C   C93       1.0  0.17681  0.57499  0.27800  1.0000 -0.079545108
C   C94       1.0  0.85196  0.00504  0.75160  1.0000 -0.1304721031
C   C95       1.0  0.98206  0.30274  0.39040  1.0000 0.0612173924
C   C96       1.0  0.98559  0.60281  0.33030  1.0000 0.5710268864
C   C97       1.0  0.82015  0.19985  0.44650  1.0000 -0.1505339214
C   C98       1.0  0.78688  0.89832  0.76650  1.0000 0.0516601155
C   C99       1.0  0.27425  0.82915  0.33780  1.0000 -0.1505339214
C   C100      1.0  0.41858  0.86302  0.44170  1.0000 0.0701249328
C   C101      1.0  0.25538  0.58782  0.27140  1.0000 -0.0496359788
C   C102      1.0  0.90023  0.90597  0.90230  1.0000 -0.1505339214
C   C103      1.0  0.23479  0.70021  0.45900  1.0000 -0.1304721031
C   C104      1.0  0.13132  0.63748  0.43290  1.0000 -0.0886837773
C   C105      1.0  0.62624  0.97836  0.50100  1.0000 0.1701295214
C   C106      1.0  0.15347  0.41133  0.33840  1.0000 -0.1632477366
C   C107      1.0  0.49022  0.91798  0.37930  1.0000 -0.1005575632
C   C108      1.0  0.71985  0.75235  0.89000  1.0000 -0.1505339214
C   C109      1.0  0.70849  0.83871  0.70060  1.0000 -0.1183937896
C   C110      1.0  0.68991  0.88169  0.62210  1.0000 -0.1632477366
C   C111      1.0  0.80199  0.85101  0.85350  1.0000 0.0795519749
C   C112      1.0  0.91336  0.86384  0.98380  1.0000 -0.1505339214
C   C113      1.0  0.59300  0.97380  0.40870  1.0000 -0.1698744629
C   C114      1.0  0.75116  0.98624  0.61020  1.0000 0.1701295214
C   C115      1.0  0.82874  0.76286  0.01850  1.0000 -0.0496359788
C   C116      1.0  0.88811  0.13269  0.46820  1.0000 -0.1803418448
C   C117      1.0  0.83286  0.04754  0.67250  1.0000 -0.1803418448
C   C118      1.0  0.97013  0.21967  0.42220  1.0000 -0.1505339214
C   C119      1.0  0.24224  0.50256  0.30420  1.0000 -0.1005575632
C   C120      1.0  0.73273  0.70747  0.97000  1.0000 -0.1005575632
C   C121      1.0  0.84656  0.71804  0.10630  1.0000 0.4519751766
C   C122      1.0  0.66770  0.84570  0.10700  1.0000 0.2926712433
C   C123      1.0  0.84220  0.91380  0.11560  1.0000 -0.2841323962
C   C124      1.0  0.67077  0.09783  0.14240  1.0000 -0.0429379804
C   C125      1.0  0.48341  0.08819  0.18680  1.0000 -0.1404490372
C   C126      1.0  0.28855  0.90285  0.09760  1.0000 -0.1005575632
C   C127      1.0  0.40015  0.07485  0.15350  1.0000 0.0701249328
C   C128      1.0  0.68644  0.35296  0.26170  1.0000 0.5834719787
C   C129      1.0  0.87077  0.45503  0.96650  1.0000 -0.1183937896
C   C130      1.0  0.76617  0.16843  0.18960  1.0000 -0.113452529
C   C131      1.0  0.12024  0.81156  0.01890  1.0000 0.1780503976
C   C132      1.0  0.92793  0.55827  0.93750  1.0000 -0.1698744629
C   C133      1.0  0.79815  0.30805  0.08880  1.0000 0.0701249328
C   C134      1.0  0.57499  0.17681  0.22200  1.0000 -0.079545108
C   C135      1.0  0.00504  0.85196  0.74840  1.0000 -0.1304721031
C   C136      1.0  0.30274  0.98206  0.10960  1.0000 0.0612173924
C   C137      1.0  0.60281  0.98559  0.16970  1.0000 0.5710268864
C   C138      1.0  0.19985  0.82015  0.05350  1.0000 -0.1505339214
C   C139      1.0  0.89832  0.78688  0.73350  1.0000 0.0516601155
C   C140      1.0  0.82915  0.27425  0.16220  1.0000 -0.1505339214
C   C141      1.0  0.86302  0.41858  0.05830  1.0000 0.0701249328
C   C142      1.0  0.58782  0.25538  0.22860  1.0000 -0.0496359788
C   C143      1.0  0.90597  0.90023  0.59770  1.0000 -0.1505339214
C   C144      1.0  0.70021  0.23479  0.04100  1.0000 -0.1183937896
C   C145      1.0  0.63748  0.13132  0.06710  1.0000 -0.0886837773
C   C146      1.0  0.97836  0.62624  0.99900  1.0000 0.1701295214
C   C147      1.0  0.41133  0.15347  0.16160  1.0000 -0.1632477366
C   C148      1.0  0.91798  0.49022  0.12070  1.0000 -0.1005575632
C   C149      1.0  0.75235  0.71985  0.61000  1.0000 -0.1505339214
C   C150      1.0  0.83871  0.70849  0.79940  1.0000 -0.1183937896
C   C151      1.0  0.88169  0.68991  0.87790  1.0000 -0.1632477366
C   C152      1.0  0.85101  0.80199  0.64650  1.0000 0.0795519749
C   C153      1.0  0.86384  0.91336  0.51620  1.0000 -0.1505339214
C   C154      1.0  0.97380  0.59300  0.09130  1.0000 -0.1698744629
C   C155      1.0  0.98624  0.75116  0.88980  1.0000 0.1701295214
C   C156      1.0  0.76286  0.82874  0.48150  1.0000 -0.0496359788
C   C157      1.0  0.13269  0.88811  0.03180  1.0000 -0.1803418448
C   C158      1.0  0.04754  0.83286  0.82750  1.0000 -0.1803418448
C   C159      1.0  0.21967  0.97013  0.07780  1.0000 -0.1505339214
C   C160      1.0  0.50256  0.24224  0.19580  1.0000 -0.1005575632
C   C161      1.0  0.70747  0.73273  0.53000  1.0000 -0.1005575632
C   C162      1.0  0.71804  0.84656  0.39370  1.0000 0.4519751766
C   C163      1.0  0.84570  0.66770  0.39300  1.0000 0.2926712433
C   C164      1.0  0.91380  0.84220  0.38440  1.0000 -0.2841323962
N   N1        1.0  0.26957  0.96963  0.46960  1.0000 -0.1632477366
N   N2        1.0  0.24060  0.12540  0.84400  1.0000 -0.2602901733
N   N3        1.0  0.96963  0.26957  0.03040  1.0000 -0.1698744629
N   N4        1.0  0.12540  0.24060  0.65600  1.0000 -0.2602901733
N   N5        1.0  0.73043  0.03037  0.53040  1.0000 -0.1632477366
N   N6        1.0  0.75940  0.87460  0.15600  1.0000 -0.2602901733
N   N7        1.0  0.03037  0.73043  0.96960  1.0000 -0.1632477366
N   N8        1.0  0.87460  0.75940  0.34400  1.0000 -0.2602901733
O   O1        1.0  0.64555  0.24725  0.80360  1.0000 -0.5156395783
O   O2        1.0  0.56518  0.29362  0.73550  1.0000 -0.5674425265
O   O3        1.0  0.07448  0.49012  0.63520  1.0000 -0.5093921771
O   O4        1.0  0.04201  0.35939  0.72780  1.0000 -0.5823322287
O   O5        1.0  0.40370  0.20710  0.84300  1.0000 -0.4530567726
O   O6        1.0  0.21987  0.37973  0.87750  1.0000 -0.5093921771
O   O7        1.0  0.07940  0.22320  0.83860  1.0000 -0.0639223954
O   O8        1.0  0.05550  0.24050  0.86450  1.0000 -0.0886837773
O   O9        1.0  0.24725  0.64555  0.69640  1.0000 -0.5156395783
O   O10       1.0  0.29362  0.56518  0.76450  1.0000 -0.5674425265
O   O11       1.0  0.49012  0.07448  0.86480  1.0000 -0.5093921771
O   O12       1.0  0.35939  0.04201  0.77220  1.0000 -0.5823322287
O   O13       1.0  0.20710  0.40370  0.65700  1.0000 -0.4530567726
O   O14       1.0  0.37973  0.21987  0.62250  1.0000 -0.5093921771
O   O15       1.0  0.22320  0.07940  0.66140  1.0000 -0.0662062094
O   O16       1.0  0.24050  0.05550  0.63550  1.0000 -0.0886837773
O   O17       1.0  0.35445  0.75275  0.19640  1.0000 -0.5093921771
O   O18       1.0  0.43482  0.70638  0.26450  1.0000 -0.5674425265
O   O19       1.0  0.92552  0.50988  0.36480  1.0000 -0.5093921771
O   O20       1.0  0.95799  0.64061  0.27220  1.0000 -0.5823322287
O   O21       1.0  0.59630  0.79290  0.15700  1.0000 -0.4530567726
O   O22       1.0  0.78013  0.62027  0.12250  1.0000 -0.5093921771
O   O23       1.0  0.92060  0.77680  0.16140  1.0000 -0.0662062094
O   O24       1.0  0.94450  0.75950  0.13550  1.0000 -0.0886837773
O   O25       1.0  0.75275  0.35445  0.30360  1.0000 -0.5156395783
O   O26       1.0  0.70638  0.43482  0.23550  1.0000 -0.5674425265
O   O27       1.0  0.50988  0.92552  0.13520  1.0000 -0.5093921771
O   O28       1.0  0.64061  0.95799  0.22780  1.0000 -0.5823322287
O   O29       1.0  0.79290  0.59630  0.34300  1.0000 -0.4530567726
O   O30       1.0  0.62027  0.78013  0.37750  1.0000 -0.5093921771
O   O31       1.0  0.77680  0.92060  0.33860  1.0000 -0.0662062094
O   O32       1.0  0.75950  0.94450  0.36450  1.0000 -0.1005575632
