# DDEC6 charges by PACMAN v1.1 (https://github.com/mtap-research/PACMAN-charge/)
data_2017[Co][nan]2[FSR]8
_chemical_formula_sum              "Co3 H76 C108 N12 O14"
_cell_length_a       12.362
_cell_length_b       15.86
_cell_length_c       16.129
_cell_angle_alpha    101.72
_cell_angle_beta     108.09
_cell_angle_gamma    112.68

_symmetry_space_group_name_H-M    "P 1"
_symmetry_Int_Tables_number       1

loop_
  _symmetry_equiv_pos_as_xyz
  'x, y, z'

loop_
  _atom_site_type_symbol
  _atom_site_label
  _atom_site_symmetry_multiplicity
  _atom_site_fract_x
  _atom_site_fract_y
  _atom_site_fract_z
  _atom_site_occupancy
  _atom_site_charge
Co  Co1       1.0  0.20332  0.83500  0.65314  1.0000 0.8443268216
Co  Co2       1.0  0.79668  0.16500  0.34686  1.0000 0.8443268216
Co  Co3       1.0  0.50000  0.00000  0.50000  1.0000 0.7795727528
H   H1        1.0  0.90090  0.73720  0.61490  1.0000 0.1295064698
H   H2        1.0  0.81410  0.63100  0.69740  1.0000 0.1295064698
H   H3        1.0  0.19320  0.74940  0.80620  1.0000 0.1191626961
H   H4        1.0  0.18460  0.70850  0.92920  1.0000 0.1295064698
H   H5        1.0  0.18500  0.63380  0.03780  1.0000 0.1103108021
H   H6        1.0  0.81460  0.43540  0.86730  1.0000 0.1191626961
H   H7        1.0  0.82250  0.51600  0.76730  1.0000 0.1295064698
H   H8        1.0  0.41370  0.15120  0.70640  1.0000 0.1191626961
H   H9        1.0  0.52480  0.32080  0.77030  1.0000 0.1191626961
H   H10       1.0  0.56510  0.30560  0.02420  1.0000 0.1103108021
H   H11       1.0  0.46700  0.13920  0.96060  1.0000 0.1191626961
H   H12       1.0  0.50740  0.45690  0.82790  1.0000 0.1103108021
H   H13       1.0  0.73020  0.71050  0.04600  1.0000 0.1103108021
H   H14       1.0  0.72260  0.46520  0.07920  1.0000 0.1103108021
H   H15       1.0  0.37900  0.52590  0.78950  1.0000 0.1103108021
H   H16       1.0  0.30440  0.61730  0.71240  1.0000 0.1295064698
H   H17       1.0  0.64750  0.84970  0.84620  1.0000 0.1191626961
H   H18       1.0  0.71800  0.76860  0.93510  1.0000 0.1103108021
H   H19       1.0  0.73790  0.73350  0.19890  1.0000 0.1103108021
H   H20       1.0  0.86670  0.81970  0.35530  1.0000 0.1191626961
H   H21       1.0  0.04840  0.65830  0.35390  1.0000 0.1191626961
H   H22       1.0  0.92660  0.57810  0.19570  1.0000 0.1103108021
H   H23       1.0  0.09910  0.26280  0.38510  1.0000 0.1295064698
H   H24       1.0  0.18590  0.36900  0.30260  1.0000 0.1295064698
H   H25       1.0  0.80680  0.25060  0.19380  1.0000 0.1191626961
H   H26       1.0  0.81540  0.29150  0.07080  1.0000 0.1295064698
H   H27       1.0  0.81500  0.36620  0.96220  1.0000 0.1103108021
H   H28       1.0  0.18540  0.56460  0.13270  1.0000 0.1191626961
H   H29       1.0  0.17750  0.48400  0.23270  1.0000 0.1295064698
H   H30       1.0  0.58630  0.84880  0.29360  1.0000 0.1191626961
H   H31       1.0  0.47520  0.67920  0.22970  1.0000 0.1191626961
H   H32       1.0  0.43490  0.69440  0.97580  1.0000 0.1103108021
H   H33       1.0  0.53300  0.86080  0.03940  1.0000 0.1191626961
H   H34       1.0  0.49260  0.54310  0.17210  1.0000 0.1103108021
H   H35       1.0  0.26980  0.28950  0.95400  1.0000 0.1103108021
H   H36       1.0  0.27740  0.53480  0.92080  1.0000 0.1103108021
H   H37       1.0  0.62100  0.47410  0.21050  1.0000 0.1103108021
H   H38       1.0  0.69560  0.38270  0.28760  1.0000 0.1295064698
H   H39       1.0  0.35250  0.15030  0.15380  1.0000 0.1191626961
H   H40       1.0  0.28200  0.23140  0.06490  1.0000 0.1103108021
H   H41       1.0  0.26210  0.26650  0.80110  1.0000 0.1103108021
H   H42       1.0  0.13330  0.18030  0.64470  1.0000 0.1191626961
H   H43       1.0  0.95160  0.34170  0.64610  1.0000 0.1191626961
H   H44       1.0  0.07340  0.42190  0.80430  1.0000 0.1103108021
H   H45       1.0  0.54720  0.01030  0.71880  1.0000 0.1191626961
H   H46       1.0  0.71190  0.22600  0.64370  1.0000 0.1191626961
H   H47       1.0  0.85580  0.26770  0.80680  1.0000 0.1191626961
H   H48       1.0  0.94940  0.16850  0.87440  1.0000 0.1295064698
H   H49       1.0  0.05160  0.14210  0.00720  1.0000 0.1103108021
H   H50       1.0  0.72370  0.03720  0.03630  1.0000 0.1191626961
H   H51       1.0  0.61940  0.06150  0.89970  1.0000 0.1383049912
H   H52       1.0  0.14490  0.17250  0.14890  1.0000 0.1103108021
H   H53       1.0  0.25740  0.15210  0.27680  1.0000 0.1295064698
H   H54       1.0  0.92860  0.96550  0.26960  1.0000 0.1295064698
H   H55       1.0  0.81420  0.98210  0.13310  1.0000 0.1191626961
H   H56       1.0  0.07340  0.02190  0.44480  1.0000 0.1383049912
H   H57       1.0  0.25190  0.00560  0.55050  1.0000 0.1295064698
H   H58       1.0  0.32900  0.05000  0.34060  1.0000 0.1027202583
H   H59       1.0  0.55260  0.10480  0.41300  1.0000 0.3247534162
H   H60       1.0  0.67000  0.17380  0.48470  1.0000 0.3500460065
H   H61       1.0  0.45280  0.98970  0.28120  1.0000 0.1191626961
H   H62       1.0  0.28810  0.77400  0.35630  1.0000 0.1191626961
H   H63       1.0  0.14420  0.73230  0.19320  1.0000 0.1191626961
H   H64       1.0  0.05060  0.83150  0.12560  1.0000 0.1295064698
H   H65       1.0  0.94840  0.85790  0.99280  1.0000 0.1103108021
H   H66       1.0  0.27630  0.96280  0.96370  1.0000 0.1191626961
H   H67       1.0  0.38060  0.93850  0.10030  1.0000 0.1383049912
H   H68       1.0  0.85510  0.82750  0.85110  1.0000 0.1103108021
H   H69       1.0  0.74260  0.84790  0.72320  1.0000 0.1295064698
H   H70       1.0  0.07140  0.03450  0.73040  1.0000 0.1295064698
H   H71       1.0  0.18580  0.01790  0.86690  1.0000 0.1191626961
H   H72       1.0  0.92660  0.97810  0.55520  1.0000 0.1383049912
H   H73       1.0  0.74810  0.99440  0.44950  1.0000 0.1295064698
H   H74       1.0  0.67100  0.95000  0.65940  1.0000 0.1027202583
H   H75       1.0  0.44740  0.89520  0.58700  1.0000 0.3247534162
H   H76       1.0  0.33000  0.82620  0.51530  1.0000 0.3500460065
C   C1        1.0  0.95000  0.72510  0.66300  1.0000 0.009775066
C   C2        1.0  0.90080  0.66680  0.70950  1.0000 -0.1013512691
C   C3        1.0  0.10820  0.73130  0.76720  1.0000 0.1191626961
C   C4        1.0  0.99920  0.62350  0.84030  1.0000 0.1383049912
C   C5        1.0  0.10840  0.65470  0.91860  1.0000 -0.1845048838
C   C6        1.0  0.11030  0.60940  0.98280  1.0000 -0.1214951772
C   C7        1.0  0.99480  0.52450  0.96270  1.0000 0.0688366457
C   C8        1.0  0.89070  0.49190  0.88250  1.0000 -0.1214951772
C   C9        1.0  0.89600  0.54130  0.82340  1.0000 -0.1900570143
C   C10       1.0  0.35640  0.01700  0.78300  1.0000 0.5254678107
C   C11       1.0  0.42490  0.12490  0.82560  1.0000 -0.0500849881
C   C12       1.0  0.44500  0.18270  0.77070  1.0000 -0.1013512691
C   C13       1.0  0.50940  0.28460  0.80800  1.0000 -0.1700816475
C   C14       1.0  0.55090  0.33170  0.90470  1.0000 0.0610270263
C   C15       1.0  0.53450  0.27470  0.95990  1.0000 -0.1576515351
C   C16       1.0  0.47480  0.17490  0.92170  1.0000 -0.1013512691
C   C17       1.0  0.60440  0.43710  0.94360  1.0000 0.0688366457
C   C18       1.0  0.56690  0.49130  0.89060  1.0000 -0.1900570143
C   C19       1.0  0.61250  0.58920  0.92560  1.0000 0.0779827475
C   C20       1.0  0.69950  0.64310  0.02120  1.0000 -0.1900570143
C   C21       1.0  0.73980  0.59630  0.07890  1.0000 0.0779827475
C   C22       1.0  0.69410  0.49590  0.04070  1.0000 -0.1966771953
C   C23       1.0  0.56340  0.63790  0.86910  1.0000 0.0688366457
C   C24       1.0  0.43500  0.59120  0.80230  1.0000 -0.1576515351
C   C25       1.0  0.39160  0.64620  0.75370  1.0000 -0.1214951772
C   C26       1.0  0.47210  0.73810  0.76540  1.0000 -0.0158994372
C   C27       1.0  0.59230  0.78430  0.83350  1.0000 -0.1097958335
C   C28       1.0  0.63520  0.73390  0.88590  1.0000 -0.1576515351
C   C29       1.0  0.41650  0.79080  0.71180  1.0000 0.5721082962
C   C30       1.0  0.82020  0.64700  0.17750  1.0000 0.0610270263
C   C31       1.0  0.80240  0.71940  0.22960  1.0000 -0.1576515351
C   C32       1.0  0.87750  0.76960  0.32390  1.0000 -0.1097958335
C   C33       1.0  0.97020  0.74690  0.37420  1.0000 -0.0158994372
C   C34       1.0  0.98660  0.67450  0.32300  1.0000 -0.1097958335
C   C35       1.0  0.91310  0.62620  0.22750  1.0000 -0.1576515351
C   C36       1.0  0.04200  0.79590  0.47950  1.0000 0.5371226347
C   C37       1.0  0.05000  0.27490  0.33700  1.0000 0.009775066
C   C38       1.0  0.09920  0.33320  0.29050  1.0000 -0.1013512691
C   C39       1.0  0.89180  0.26870  0.23280  1.0000 0.1191626961
C   C40       1.0  0.00080  0.37650  0.15970  1.0000 0.1383049912
C   C41       1.0  0.89160  0.34530  0.08140  1.0000 -0.1845048838
C   C42       1.0  0.88970  0.39060  0.01720  1.0000 -0.1214951772
C   C43       1.0  0.00520  0.47550  0.03730  1.0000 0.0688366457
C   C44       1.0  0.10930  0.50810  0.11750  1.0000 -0.1214951772
C   C45       1.0  0.10400  0.45870  0.17660  1.0000 -0.1900570143
C   C46       1.0  0.64360  0.98300  0.21700  1.0000 0.5254678107
C   C47       1.0  0.57510  0.87510  0.17440  1.0000 -0.0500849881
C   C48       1.0  0.55500  0.81730  0.22930  1.0000 -0.1013512691
C   C49       1.0  0.49060  0.71540  0.19200  1.0000 -0.1700816475
C   C50       1.0  0.44910  0.66830  0.09530  1.0000 0.0610270263
C   C51       1.0  0.46550  0.72530  0.04010  1.0000 -0.1492052072
C   C52       1.0  0.52520  0.82510  0.07830  1.0000 -0.1013512691
C   C53       1.0  0.39560  0.56290  0.05640  1.0000 0.0688366457
C   C54       1.0  0.43310  0.50870  0.10940  1.0000 -0.1900570143
C   C55       1.0  0.38750  0.41080  0.07440  1.0000 0.0779827475
C   C56       1.0  0.30050  0.35690  0.97880  1.0000 -0.1900570143
C   C57       1.0  0.26020  0.40370  0.92110  1.0000 0.0779827475
C   C58       1.0  0.30590  0.50410  0.95930  1.0000 -0.1966771953
C   C59       1.0  0.43660  0.36210  0.13090  1.0000 0.0688366457
C   C60       1.0  0.56500  0.40880  0.19770  1.0000 -0.1576515351
C   C61       1.0  0.60840  0.35380  0.24630  1.0000 -0.1214951772
C   C62       1.0  0.52790  0.26190  0.23460  1.0000 -0.0158994372
C   C63       1.0  0.40770  0.21570  0.16650  1.0000 -0.1097958335
C   C64       1.0  0.36480  0.26610  0.11410  1.0000 -0.1576515351
C   C65       1.0  0.58350  0.20920  0.28820  1.0000 0.5721082962
C   C66       1.0  0.17980  0.35300  0.82250  1.0000 0.0610270263
C   C67       1.0  0.19760  0.28060  0.77040  1.0000 -0.1576515351
C   C68       1.0  0.12250  0.23040  0.67610  1.0000 -0.1097958335
C   C69       1.0  0.02980  0.25310  0.62580  1.0000 -0.0158994372
C   C70       1.0  0.01340  0.32550  0.67700  1.0000 -0.1097958335
C   C71       1.0  0.08690  0.37380  0.77250  1.0000 -0.1576515351
C   C72       1.0  0.95800  0.20410  0.52050  1.0000 0.5371226347
C   C73       1.0  0.60640  0.06910  0.71990  1.0000 0.0688366457
C   C74       1.0  0.69610  0.18680  0.67880  1.0000 -0.013951371
C   C75       1.0  0.77680  0.21070  0.76970  1.0000 -0.1013512691
C   C76       1.0  0.77740  0.11960  0.87800  1.0000 0.1383049912
C   C77       1.0  0.90330  0.14230  0.90700  1.0000 -0.1700816475
C   C78       1.0  0.96460  0.12590  0.98710  1.0000 -0.1492052072
C   C79       1.0  0.89730  0.08580  0.03730  1.0000 0.0610270263
C   C80       1.0  0.77110  0.06350  0.00460  1.0000 -0.1321628229
C   C81       1.0  0.70710  0.07910  0.92190  1.0000 -0.1576515351
C   C82       1.0  0.96650  0.07490  0.12310  1.0000 0.0610270263
C   C83       1.0  0.09920  0.12770  0.17080  1.0000 -0.1492052072
C   C84       1.0  0.16710  0.11720  0.24920  1.0000 -0.1700816475
C   C85       1.0  0.10710  0.05790  0.28750  1.0000 0.1473307288
C   C86       1.0  0.97360  0.00660  0.24460  1.0000 -0.1700816475
C   C87       1.0  0.90450  0.01670  0.16140  1.0000 -0.1321628229
C   C88       1.0  0.14690  0.02670  0.43720  1.0000 -0.0783461095
C   C89       1.0  0.24630  0.01720  0.49550  1.0000 -0.0158994372
C   C90       1.0  0.28940  0.04220  0.38100  1.0000 0.0936136409
C   C91       1.0  0.39360  0.93090  0.28010  1.0000 0.0688366457
C   C92       1.0  0.30390  0.81320  0.32120  1.0000 -0.013951371
C   C93       1.0  0.22320  0.78930  0.23030  1.0000 -0.1013512691
C   C94       1.0  0.22260  0.88040  0.12200  1.0000 0.1383049912
C   C95       1.0  0.09670  0.85770  0.09300  1.0000 -0.1700816475
C   C96       1.0  0.03540  0.87410  0.01290  1.0000 -0.1492052072
C   C97       1.0  0.10270  0.91420  0.96270  1.0000 0.0610270263
C   C98       1.0  0.22890  0.93650  0.99540  1.0000 -0.1321628229
C   C99       1.0  0.29290  0.92090  0.07810  1.0000 -0.1576515351
C   C100      1.0  0.03350  0.92510  0.87690  1.0000 0.0610270263
C   C101      1.0  0.90080  0.87230  0.82920  1.0000 -0.1492052072
C   C102      1.0  0.83290  0.88280  0.75080  1.0000 -0.1700816475
C   C103      1.0  0.89290  0.94210  0.71250  1.0000 0.1473307288
C   C104      1.0  0.02640  0.99340  0.75540  1.0000 -0.1700816475
C   C105      1.0  0.09550  0.98330  0.83860  1.0000 -0.1321628229
C   C106      1.0  0.85310  0.97330  0.56280  1.0000 -0.0783461095
C   C107      1.0  0.75370  0.98280  0.50450  1.0000 -0.0158994372
C   C108      1.0  0.71060  0.95780  0.61900  1.0000 0.0936136409
N   N1        1.0  0.07670  0.76070  0.69720  1.0000 -0.289642843
N   N2        1.0  0.00500  0.67260  0.77630  1.0000 0.009775066
N   N3        1.0  0.92330  0.23930  0.30280  1.0000 -0.289642843
N   N4        1.0  0.99500  0.32740  0.22370  1.0000 0.009775066
N   N5        1.0  0.59120  0.09930  0.64740  1.0000 -0.2836607718
N   N6        1.0  0.72000  0.13600  0.79510  1.0000 0.009775066
N   N7        1.0  0.33640  0.02790  0.45920  1.0000 -0.2966284477
N   N8        1.0  0.17750  0.04420  0.36700  1.0000 0.009775066
N   N9        1.0  0.40880  0.90070  0.35260  1.0000 -0.2836607718
N   N10       1.0  0.28000  0.86400  0.20490  1.0000 0.009775066
N   N11       1.0  0.66360  0.97210  0.54080  1.0000 -0.2966284477
N   N12       1.0  0.82250  0.95580  0.63300  1.0000 0.009775066
O   O1        1.0  0.00150  0.83730  0.52540  1.0000 -0.5521011872
O   O2        1.0  0.14100  0.78600  0.51570  1.0000 -0.5415462875
O   O3        1.0  0.30300  0.76700  0.68670  1.0000 -0.4983857595
O   O4        1.0  0.49400  0.85310  0.69210  1.0000 -0.5521011872
O   O5        1.0  0.35910  0.96830  0.83410  1.0000 -0.5521011872
O   O6        1.0  0.29510  0.97760  0.69500  1.0000 -0.5277115428
O   O7        1.0  0.99850  0.16270  0.47460  1.0000 -0.5521011872
O   O8        1.0  0.85900  0.21400  0.48430  1.0000 -0.5415462875
O   O9        1.0  0.69700  0.23300  0.31330  1.0000 -0.4983857595
O   O10       1.0  0.50600  0.14690  0.30790  1.0000 -0.5521011872
O   O11       1.0  0.64090  0.03170  0.16590  1.0000 -0.5521011872
O   O12       1.0  0.70490  0.02240  0.30500  1.0000 -0.5277115428
O   O13       1.0  0.60540  0.11730  0.46800  1.0000 -0.6829312765
O   O14       1.0  0.39460  0.88270  0.53200  1.0000 -0.6829312765
