# DDEC6 charges by PACMAN v1.1 (https://github.com/mtap-research/PACMAN-charge/)
data_2017[Dy][tsi]3[FSR]1
_chemical_formula_sum              "Dy4 H36 C48 N24 O24"
_cell_length_a       10.516
_cell_length_b       11.4129
_cell_length_c       16.3637
_cell_angle_alpha    100.038
_cell_angle_beta     104.852
_cell_angle_gamma    107.2

_symmetry_space_group_name_H-M    "P 1"
_symmetry_Int_Tables_number       1

loop_
  _symmetry_equiv_pos_as_xyz
  'x, y, z'

loop_
  _atom_site_type_symbol
  _atom_site_label
  _atom_site_symmetry_multiplicity
  _atom_site_fract_x
  _atom_site_fract_y
  _atom_site_fract_z
  _atom_site_occupancy
  _atom_site_charge
Dy  Dy1       1.0  0.75941  0.54072  0.25841  1.0000 2.1270160573
Dy  Dy2       1.0  0.48544  0.21579  0.24036  1.0000 2.1355640786
Dy  Dy3       1.0  0.24059  0.45928  0.74159  1.0000 2.1248447793
Dy  Dy4       1.0  0.51456  0.78421  0.75964  1.0000 2.1355640786
H   H1        1.0  0.45610  0.26520  0.01960  1.0000 0.2784464555
H   H2        1.0  0.75190  0.45200  0.48210  1.0000 0.269962159
H   H3        1.0  0.68640  0.60350  0.58880  1.0000 0.269962159
H   H4        1.0  0.60700  0.78610  0.15120  1.0000 0.269962159
H   H5        1.0  0.15340  0.48110  0.35120  1.0000 0.2784464555
H   H6        1.0  0.43640  0.86290  0.09560  1.0000 0.269962159
H   H7        1.0  0.41340  0.54870  0.17360  1.0000 0.1622321305
H   H8        1.0  0.28900  0.58990  0.05420  1.0000 0.1407089728
H   H9        1.0  0.87370  0.24730  0.32100  1.0000 0.1622321305
H   H10       1.0  0.03520  0.23090  0.43360  1.0000 0.1502915355
H   H11       1.0  0.45400  0.72910  0.36510  1.0000 0.1502915355
H   H12       1.0  0.44490  0.79130  0.50270  1.0000 0.1622321305
H   H13       1.0  0.84510  0.88040  0.39800  1.0000 0.1622321305
H   H14       1.0  0.75270  0.03120  0.43150  1.0000 0.1502915355
H   H15       1.0  0.91920  0.36970  0.10200  1.0000 0.1622321305
H   H16       1.0  0.05880  0.26390  0.06930  1.0000 0.1502915355
H   H17       1.0  0.20380  0.05060  0.99590  1.0000 0.1622321305
H   H18       1.0  0.20610  0.96900  0.85800  1.0000 0.1502915355
H   H19       1.0  0.54390  0.73480  0.98040  1.0000 0.2784464555
H   H20       1.0  0.24810  0.54800  0.51790  1.0000 0.269962159
H   H21       1.0  0.31360  0.39650  0.41120  1.0000 0.269962159
H   H22       1.0  0.39300  0.21390  0.84880  1.0000 0.269962159
H   H23       1.0  0.84660  0.51890  0.64880  1.0000 0.2784464555
H   H24       1.0  0.56360  0.13710  0.90440  1.0000 0.269962159
H   H25       1.0  0.58660  0.45130  0.82640  1.0000 0.1622321305
H   H26       1.0  0.71100  0.41010  0.94580  1.0000 0.1407089728
H   H27       1.0  0.12630  0.75270  0.67900  1.0000 0.1622321305
H   H28       1.0  0.96480  0.76910  0.56640  1.0000 0.1502915355
H   H29       1.0  0.54600  0.27090  0.63490  1.0000 0.1502915355
H   H30       1.0  0.55510  0.20870  0.49730  1.0000 0.1622321305
H   H31       1.0  0.15490  0.11960  0.60200  1.0000 0.1622321305
H   H32       1.0  0.24730  0.96880  0.56850  1.0000 0.1502915355
H   H33       1.0  0.08080  0.63030  0.89800  1.0000 0.1622321305
H   H34       1.0  0.94120  0.73610  0.93070  1.0000 0.1502915355
H   H35       1.0  0.79620  0.94940  0.00410  1.0000 0.1622321305
H   H36       1.0  0.79390  0.03100  0.14200  1.0000 0.1502915355
C   C1        1.0  0.45470  0.40160  0.10500  1.0000 0.4428008395
C   C2        1.0  0.39870  0.50150  0.11740  1.0000 -0.1804682466
C   C3        1.0  0.32510  0.52510  0.04670  1.0000 -0.1713785989
C   C4        1.0  0.30040  0.45240  0.95910  1.0000 0.4817429769
C   C5        1.0  0.79850  0.35760  0.39350  1.0000 0.3985516327
C   C6        1.0  0.88450  0.28720  0.37830  1.0000 -0.1713785989
C   C7        1.0  0.97910  0.27750  0.44400  1.0000 -0.1713785989
C   C8        1.0  0.99540  0.33930  0.53200  1.0000 0.4817429769
C   C9        1.0  0.58240  0.62630  0.39480  1.0000 0.4675561982
C   C10       1.0  0.50210  0.70380  0.41070  1.0000 -0.1713785989
C   C11       1.0  0.49640  0.74010  0.49190  1.0000 -0.2005794001
C   C12       1.0  0.56820  0.70060  0.56060  1.0000 0.4611429843
C   C13       1.0  0.73340  0.82020  0.26600  1.0000 0.4468414682
C   C14       1.0  0.77840  0.89350  0.35440  1.0000 -0.1853520525
C   C15       1.0  0.72290  0.98200  0.37380  1.0000 -0.1804682466
C   C16       1.0  0.61960  0.00290  0.30850  1.0000 0.4817429769
C   C17       1.0  0.02730  0.43860  0.23730  1.0000 0.4817429769
C   C18       1.0  0.99550  0.37000  0.14610  1.0000 -0.1713785989
C   C19       1.0  0.07820  0.30770  0.12720  1.0000 -0.1804682466
C   C20       1.0  0.19490  0.30690  0.19350  1.0000 0.4817429769
C   C21       1.0  0.33360  0.97160  0.06320  1.0000 0.4675561982
C   C22       1.0  0.25540  0.99830  0.98850  1.0000 -0.2005794001
C   C23       1.0  0.25490  0.94880  0.90630  1.0000 -0.1804682466
C   C24       1.0  0.33030  0.86590  0.89580  1.0000 0.4611429843
C   C25       1.0  0.54530  0.59840  0.89500  1.0000 0.4428008395
C   C26       1.0  0.60130  0.49850  0.88260  1.0000 -0.1804682466
C   C27       1.0  0.67490  0.47490  0.95330  1.0000 -0.1713785989
C   C28       1.0  0.69960  0.54760  0.04090  1.0000 0.4817429769
C   C29       1.0  0.20150  0.64240  0.60650  1.0000 0.3985516327
C   C30       1.0  0.11550  0.71280  0.62170  1.0000 -0.1713785989
C   C31       1.0  0.02090  0.72250  0.55600  1.0000 -0.1713785989
C   C32       1.0  0.00460  0.66070  0.46800  1.0000 0.4817429769
C   C33       1.0  0.41760  0.37370  0.60520  1.0000 0.4675561982
C   C34       1.0  0.49790  0.29620  0.58930  1.0000 -0.1713785989
C   C35       1.0  0.50360  0.25990  0.50810  1.0000 -0.2005794001
C   C36       1.0  0.43180  0.29940  0.43940  1.0000 0.4611429843
C   C37       1.0  0.26660  0.17980  0.73400  1.0000 0.4468414682
C   C38       1.0  0.22160  0.10650  0.64560  1.0000 -0.1853520525
C   C39       1.0  0.27710  0.01800  0.62620  1.0000 -0.1804682466
C   C40       1.0  0.38040  0.99710  0.69150  1.0000 0.4817429769
C   C41       1.0  0.97270  0.56140  0.76270  1.0000 0.4817429769
C   C42       1.0  0.00450  0.63000  0.85390  1.0000 -0.1713785989
C   C43       1.0  0.92180  0.69230  0.87280  1.0000 -0.1853520525
C   C44       1.0  0.80510  0.69310  0.80650  1.0000 0.4817429769
C   C45       1.0  0.66640  0.02840  0.93680  1.0000 0.4675561982
C   C46       1.0  0.74460  0.00170  0.01150  1.0000 -0.2005794001
C   C47       1.0  0.74510  0.05120  0.09370  1.0000 -0.1804682466
C   C48       1.0  0.66970  0.13410  0.10420  1.0000 0.4611429843
N   N1        1.0  0.42600  0.32740  0.02640  1.0000 -0.1593060335
N   N2        1.0  0.34570  0.35280  0.95520  1.0000 -0.3287732107
N   N3        1.0  0.80550  0.41080  0.47260  1.0000 -0.1327282292
N   N4        1.0  0.90370  0.39670  0.53970  1.0000 -0.337392549
N   N5        1.0  0.64400  0.59280  0.46440  1.0000 -0.3088925781
N   N6        1.0  0.64190  0.62760  0.54700  1.0000 -0.1593060335
N   N7        1.0  0.63550  0.83270  0.20430  1.0000 -0.1593060335
N   N8        1.0  0.58070  0.92170  0.22730  1.0000 -0.2861648602
N   N9        1.0  0.13340  0.44000  0.29750  1.0000 -0.1804682466
N   N10       1.0  0.21440  0.37430  0.27400  1.0000 -0.3088925781
N   N11       1.0  0.39550  0.88620  0.05210  1.0000 -0.1593060335
N   N12       1.0  0.39100  0.83750  0.96890  1.0000 -0.3185489577
N   N13       1.0  0.57400  0.67260  0.97360  1.0000 -0.1593060335
N   N14       1.0  0.65430  0.64720  0.04480  1.0000 -0.3287732107
N   N15       1.0  0.19450  0.58920  0.52740  1.0000 -0.1327282292
N   N16       1.0  0.09630  0.60330  0.46030  1.0000 -0.337392549
N   N17       1.0  0.35600  0.40720  0.53560  1.0000 -0.3088925781
N   N18       1.0  0.35810  0.37240  0.45300  1.0000 -0.1593060335
N   N19       1.0  0.36450  0.16730  0.79570  1.0000 -0.1593060335
N   N20       1.0  0.41930  0.07830  0.77270  1.0000 -0.2861648602
N   N21       1.0  0.86660  0.56000  0.70250  1.0000 -0.1804682466
N   N22       1.0  0.78560  0.62570  0.72600  1.0000 -0.3185489577
N   N23       1.0  0.60450  0.11380  0.94790  1.0000 -0.1593060335
N   N24       1.0  0.60900  0.16250  0.03110  1.0000 -0.3185489577
O   O1        1.0  0.53800  0.38200  0.17300  1.0000 -0.8285027844
O   O2        1.0  0.24340  0.47860  0.89080  1.0000 -0.6216203076
O   O3        1.0  0.70500  0.37470  0.32650  1.0000 -0.8467258317
O   O4        1.0  0.09050  0.34210  0.59860  1.0000 -0.6393061978
O   O5        1.0  0.59920  0.59340  0.32060  1.0000 -0.6692989372
O   O6        1.0  0.56950  0.73500  0.64040  1.0000 -0.7123770071
O   O7        1.0  0.78360  0.73290  0.24130  1.0000 -0.7123770071
O   O8        1.0  0.57030  0.08860  0.32130  1.0000 -0.6082989676
O   O9        1.0  0.95160  0.49860  0.26020  1.0000 -0.6692989372
O   O10       1.0  0.27330  0.24580  0.18020  1.0000 -0.6319393618
O   O11       1.0  0.34630  0.02670  0.14210  1.0000 -0.7033252818
O   O12       1.0  0.35080  0.82880  0.82430  1.0000 -0.6600600583
O   O13       1.0  0.46200  0.61800  0.82700  1.0000 -0.8285027844
O   O14       1.0  0.75660  0.52140  0.10920  1.0000 -0.6216203076
O   O15       1.0  0.29500  0.62530  0.67350  1.0000 -0.8467258317
O   O16       1.0  0.90950  0.65790  0.40140  1.0000 -0.6393061978
O   O17       1.0  0.40080  0.40660  0.67940  1.0000 -0.6692989372
O   O18       1.0  0.43050  0.26500  0.35960  1.0000 -0.7123770071
O   O19       1.0  0.21640  0.26710  0.75870  1.0000 -0.7123770071
O   O20       1.0  0.42970  0.91140  0.67870  1.0000 -0.6082989676
O   O21       1.0  0.04840  0.50140  0.73980  1.0000 -0.6759783728
O   O22       1.0  0.72670  0.75420  0.81980  1.0000 -0.6319393618
O   O23       1.0  0.65370  0.97330  0.85790  1.0000 -0.7033252818
O   O24       1.0  0.64920  0.17120  0.17570  1.0000 -0.6600600583
