# DDEC6 charges by PACMAN v1.1 (https://github.com/mtap-research/PACMAN-charge/)
data_2017[Zn][pcu]3[FSR]7
_chemical_formula_sum              "Zn16 H120 C180 N24 O64"
_cell_length_a       18.628
_cell_length_b       26.2694
_cell_length_c       19.2096
_cell_angle_alpha    90
_cell_angle_beta     98.03
_cell_angle_gamma    90

_symmetry_space_group_name_H-M    "P 1"
_symmetry_Int_Tables_number       1

loop_
  _symmetry_equiv_pos_as_xyz
  'x, y, z'

loop_
  _atom_site_type_symbol
  _atom_site_label
  _atom_site_symmetry_multiplicity
  _atom_site_fract_x
  _atom_site_fract_y
  _atom_site_fract_z
  _atom_site_occupancy
  _atom_site_charge
Zn  Zn1       1.0  0.72756  0.73577  0.37743  1.0000 0.9402433183
Zn  Zn2       1.0  0.62589  0.78204  0.48247  1.0000 0.9402433183
Zn  Zn3       1.0  0.76707  0.83602  0.46440  1.0000 0.9402433183
Zn  Zn4       1.0  0.77539  0.72931  0.54534  1.0000 0.9402433183
Zn  Zn5       1.0  0.27244  0.23577  0.12257  1.0000 0.9402433183
Zn  Zn6       1.0  0.37411  0.28204  0.01753  1.0000 0.9453140515
Zn  Zn7       1.0  0.23293  0.33602  0.03560  1.0000 0.9402433183
Zn  Zn8       1.0  0.22461  0.22931  0.95466  1.0000 0.9402433183
Zn  Zn9       1.0  0.27244  0.26423  0.62257  1.0000 0.9402433183
Zn  Zn10      1.0  0.37411  0.21796  0.51753  1.0000 0.9402433183
Zn  Zn11      1.0  0.23293  0.16398  0.53560  1.0000 0.9402433183
Zn  Zn12      1.0  0.22461  0.27069  0.45466  1.0000 0.9402433183
Zn  Zn13      1.0  0.72756  0.76423  0.87743  1.0000 0.9402433183
Zn  Zn14      1.0  0.62589  0.71796  0.98247  1.0000 0.9453140515
Zn  Zn15      1.0  0.76707  0.66398  0.96440  1.0000 0.9402433183
Zn  Zn16      1.0  0.77539  0.77069  0.04534  1.0000 0.9402433183
H   H1        1.0  0.93938  0.43511  0.44145  1.0000 0.2776152341
H   H2        1.0  0.00950  0.38556  0.39856  1.0000 0.2776152341
H   H3        1.0  0.81016  0.59731  0.33205  1.0000 0.1217547228
H   H4        1.0  0.86334  0.52008  0.31159  1.0000 0.1374250767
H   H5        1.0  0.91621  0.49902  0.52327  1.0000 0.1217547228
H   H6        1.0  0.86734  0.57855  0.54246  1.0000 0.1045682001
H   H7        1.0  0.04387  0.44040  0.24098  1.0000 0.1296835815
H   H8        1.0  0.11627  0.40293  0.16470  1.0000 0.1217547228
H   H9        1.0  0.14754  0.28009  0.29330  1.0000 0.1217547228
H   H10       1.0  0.07532  0.31808  0.36728  1.0000 0.1217547228
H   H11       1.0  0.21200  0.63718  0.11024  1.0000 0.2776152341
H   H12       1.0  0.31837  0.64384  0.14694  1.0000 0.2608705436
H   H13       1.0  0.98490  0.73786  0.16411  1.0000 0.1137214777
H   H14       1.0  0.10992  0.72282  0.19707  1.0000 0.1296835815
H   H15       1.0  0.10513  0.61821  0.04116  1.0000 0.1217547228
H   H16       1.0  0.98103  0.63055  0.01493  1.0000 0.1296835815
H   H17       1.0  0.32949  0.72160  0.29675  1.0000 0.1374250767
H   H18       1.0  0.43550  0.74662  0.36507  1.0000 0.1217547228
H   H19       1.0  0.55251  0.67599  0.23131  1.0000 0.1296835815
H   H20       1.0  0.44393  0.65057  0.16285  1.0000 0.1296835815
H   H21       1.0  0.55746  0.13681  0.70253  1.0000 0.2741534429
H   H22       1.0  0.59212  0.10097  0.61668  1.0000 0.2776152341
H   H23       1.0  0.30489  0.16563  0.77238  1.0000 0.1137214777
H   H24       1.0  0.36710  0.13022  0.68763  1.0000 0.1374250767
H   H25       1.0  0.55549  0.18687  0.79376  1.0000 0.1296835815
H   H26       1.0  0.49180  0.22154  0.87589  1.0000 0.1137214777
H   H27       1.0  0.48452  0.98821  0.60044  1.0000 0.1296835815
H   H28       1.0  0.52297  0.91289  0.55948  1.0000 0.1137214777
H   H29       1.0  0.70759  0.97901  0.51792  1.0000 0.1217547228
H   H30       1.0  0.66996  0.05563  0.56265  1.0000 0.1296835815
H   H31       1.0  0.06062  0.93511  0.05855  1.0000 0.2776152341
H   H32       1.0  0.99050  0.88556  0.10144  1.0000 0.2776152341
H   H33       1.0  0.18984  0.09731  0.16795  1.0000 0.1217547228
H   H34       1.0  0.13666  0.02008  0.18841  1.0000 0.1374250767
H   H35       1.0  0.08379  0.99902  0.97673  1.0000 0.1217547228
H   H36       1.0  0.13266  0.07855  0.95754  1.0000 0.1045682001
H   H37       1.0  0.95613  0.94040  0.25902  1.0000 0.1296835815
H   H38       1.0  0.88373  0.90293  0.33530  1.0000 0.1217547228
H   H39       1.0  0.85246  0.78009  0.20670  1.0000 0.1217547228
H   H40       1.0  0.92468  0.81808  0.13272  1.0000 0.1217547228
H   H41       1.0  0.78800  0.13718  0.38976  1.0000 0.2776152341
H   H42       1.0  0.68163  0.14384  0.35306  1.0000 0.2608705436
H   H43       1.0  0.01510  0.23786  0.33589  1.0000 0.1137214777
H   H44       1.0  0.89008  0.22282  0.30293  1.0000 0.1296835815
H   H45       1.0  0.89487  0.11821  0.45884  1.0000 0.1217547228
H   H46       1.0  0.01897  0.13055  0.48507  1.0000 0.1296835815
H   H47       1.0  0.67051  0.22160  0.20325  1.0000 0.1374250767
H   H48       1.0  0.56450  0.24662  0.13493  1.0000 0.1217547228
H   H49       1.0  0.44749  0.17599  0.26869  1.0000 0.1296835815
H   H50       1.0  0.55607  0.15057  0.33715  1.0000 0.1296835815
H   H51       1.0  0.44254  0.63681  0.79747  1.0000 0.2741534429
H   H52       1.0  0.40788  0.60097  0.88332  1.0000 0.2776152341
H   H53       1.0  0.69511  0.66563  0.72762  1.0000 0.1137214777
H   H54       1.0  0.63290  0.63022  0.81237  1.0000 0.1374250767
H   H55       1.0  0.44451  0.68687  0.70624  1.0000 0.1296835815
H   H56       1.0  0.50820  0.72154  0.62411  1.0000 0.1137214777
H   H57       1.0  0.51548  0.48821  0.89956  1.0000 0.1296835815
H   H58       1.0  0.47703  0.41289  0.94052  1.0000 0.1137214777
H   H59       1.0  0.29241  0.47901  0.98208  1.0000 0.1217547228
H   H60       1.0  0.33004  0.55563  0.93735  1.0000 0.1296835815
H   H61       1.0  0.06062  0.56489  0.55855  1.0000 0.2776152341
H   H62       1.0  0.99050  0.61444  0.60144  1.0000 0.2776152341
H   H63       1.0  0.18984  0.40269  0.66795  1.0000 0.1217547228
H   H64       1.0  0.13666  0.47992  0.68841  1.0000 0.1374250767
H   H65       1.0  0.08379  0.50098  0.47673  1.0000 0.1217547228
H   H66       1.0  0.13266  0.42145  0.45754  1.0000 0.1045682001
H   H67       1.0  0.95613  0.55960  0.75902  1.0000 0.1296835815
H   H68       1.0  0.88373  0.59707  0.83530  1.0000 0.1217547228
H   H69       1.0  0.85246  0.71991  0.70670  1.0000 0.1217547228
H   H70       1.0  0.92468  0.68192  0.63272  1.0000 0.1217547228
H   H71       1.0  0.78800  0.36282  0.88976  1.0000 0.2776152341
H   H72       1.0  0.68163  0.35616  0.85306  1.0000 0.2608705436
H   H73       1.0  0.01510  0.26214  0.83589  1.0000 0.1137214777
H   H74       1.0  0.89008  0.27718  0.80293  1.0000 0.1296835815
H   H75       1.0  0.89487  0.38179  0.95884  1.0000 0.1217547228
H   H76       1.0  0.01897  0.36945  0.98507  1.0000 0.1296835815
H   H77       1.0  0.67051  0.27840  0.70325  1.0000 0.1374250767
H   H78       1.0  0.56450  0.25338  0.63493  1.0000 0.1217547228
H   H79       1.0  0.44749  0.32401  0.76869  1.0000 0.1296835815
H   H80       1.0  0.55607  0.34943  0.83715  1.0000 0.1296835815
H   H81       1.0  0.44254  0.86319  0.29747  1.0000 0.2741534429
H   H82       1.0  0.40788  0.89903  0.38332  1.0000 0.2776152341
H   H83       1.0  0.69511  0.83437  0.22762  1.0000 0.1137214777
H   H84       1.0  0.63290  0.86978  0.31237  1.0000 0.1374250767
H   H85       1.0  0.44451  0.81313  0.20624  1.0000 0.1296835815
H   H86       1.0  0.50820  0.77846  0.12411  1.0000 0.1137214777
H   H87       1.0  0.51548  0.01179  0.39956  1.0000 0.1296835815
H   H88       1.0  0.47703  0.08711  0.44052  1.0000 0.1137214777
H   H89       1.0  0.29241  0.02099  0.48208  1.0000 0.1217547228
H   H90       1.0  0.33004  0.94437  0.43735  1.0000 0.1296835815
H   H91       1.0  0.93938  0.06489  0.94145  1.0000 0.2776152341
H   H92       1.0  0.00950  0.11444  0.89856  1.0000 0.2776152341
H   H93       1.0  0.81016  0.90269  0.83205  1.0000 0.1217547228
H   H94       1.0  0.86334  0.97992  0.81159  1.0000 0.1374250767
H   H95       1.0  0.91621  0.00098  0.02327  1.0000 0.1217547228
H   H96       1.0  0.86734  0.92145  0.04246  1.0000 0.1045682001
H   H97       1.0  0.04387  0.05960  0.74098  1.0000 0.1296835815
H   H98       1.0  0.11627  0.09707  0.66470  1.0000 0.1217547228
H   H99       1.0  0.14754  0.21991  0.79330  1.0000 0.1217547228
H   H100      1.0  0.07532  0.18192  0.86728  1.0000 0.1217547228
H   H101      1.0  0.21200  0.86282  0.61024  1.0000 0.2776152341
H   H102      1.0  0.31837  0.85616  0.64694  1.0000 0.2608705436
H   H103      1.0  0.98490  0.76214  0.66411  1.0000 0.1137214777
H   H104      1.0  0.10992  0.77718  0.69707  1.0000 0.1296835815
H   H105      1.0  0.10513  0.88179  0.54116  1.0000 0.1217547228
H   H106      1.0  0.98103  0.86945  0.51493  1.0000 0.1296835815
H   H107      1.0  0.32949  0.77840  0.79675  1.0000 0.1374250767
H   H108      1.0  0.43550  0.75338  0.86507  1.0000 0.1217547228
H   H109      1.0  0.55251  0.82401  0.73131  1.0000 0.1296835815
H   H110      1.0  0.44393  0.84943  0.66285  1.0000 0.1296835815
H   H111      1.0  0.55746  0.36319  0.20253  1.0000 0.2741534429
H   H112      1.0  0.59212  0.39903  0.11668  1.0000 0.2776152341
H   H113      1.0  0.30489  0.33437  0.27238  1.0000 0.1137214777
H   H114      1.0  0.36710  0.36978  0.18763  1.0000 0.1374250767
H   H115      1.0  0.55549  0.31313  0.29376  1.0000 0.1296835815
H   H116      1.0  0.49180  0.27846  0.37589  1.0000 0.1137214777
H   H117      1.0  0.48452  0.51179  0.10044  1.0000 0.1296835815
H   H118      1.0  0.52297  0.58711  0.05948  1.0000 0.1137214777
H   H119      1.0  0.70759  0.52099  0.01792  1.0000 0.1217547228
H   H120      1.0  0.66996  0.44437  0.06265  1.0000 0.1296835815
C   C1        1.0  0.80420  0.64690  0.45060  1.0000 0.5911321285
C   C2        1.0  0.83250  0.59510  0.44000  1.0000 -0.0597914999
C   C3        1.0  0.83240  0.57750  0.37050  1.0000 -0.0794945649
C   C4        1.0  0.86430  0.53210  0.35840  1.0000 -0.1811983538
C   C5        1.0  0.89880  0.50280  0.41580  1.0000 0.2608705436
C   C6        1.0  0.89660  0.51950  0.48450  1.0000 -0.230064476
C   C7        1.0  0.86580  0.56620  0.49580  1.0000 -0.0977357962
C   C8        1.0  0.96540  0.44350  0.34800  1.0000 0.6167796271
C   C9        1.0  0.05060  0.38110  0.30960  1.0000 0.2384231612
C   C10       1.0  0.06410  0.40750  0.25080  1.0000 -0.1901477111
C   C11       1.0  0.10790  0.38520  0.20590  1.0000 -0.0794945649
C   C12       1.0  0.13930  0.33830  0.21980  1.0000 -0.0479897246
C   C13       1.0  0.12640  0.31250  0.28190  1.0000 -0.074080689
C   C14       1.0  0.08300  0.33500  0.32520  1.0000 -0.2001359458
C   C15       1.0  0.18830  0.31710  0.17250  1.0000 0.5751793402
C   C16       1.0  0.89300  0.69500  0.06250  1.0000 0.5975418704
C   C17       1.0  0.97190  0.68480  0.08660  1.0000 -0.0479897246
C   C18       1.0  0.00930  0.71310  0.14000  1.0000 -0.0909461427
C   C19       1.0  0.08400  0.70500  0.15840  1.0000 -0.1811983538
C   C20       1.0  0.11940  0.67170  0.12080  1.0000 0.2334429703
C   C21       1.0  0.08100  0.64240  0.06640  1.0000 -0.2001359458
C   C22       1.0  0.00780  0.65010  0.05130  1.0000 -0.0794945649
C   C23       1.0  0.24440  0.68900  0.17870  1.0000 0.5743411598
C   C24       1.0  0.37670  0.68550  0.22250  1.0000 0.2384231612
C   C25       1.0  0.37490  0.71270  0.28290  1.0000 -0.1811983538
C   C26       1.0  0.43770  0.72710  0.32370  1.0000 -0.0977357962
C   C27       1.0  0.50480  0.71360  0.30520  1.0000 -0.0479897246
C   C28       1.0  0.50720  0.68540  0.24480  1.0000 -0.0794945649
C   C29       1.0  0.44260  0.67070  0.20370  1.0000 -0.2001359458
C   C30       1.0  0.57330  0.73140  0.34830  1.0000 0.5911321285
C   C31       1.0  0.35390  0.21990  0.88890  1.0000 0.5911321285
C   C32       1.0  0.39240  0.19690  0.83340  1.0000 -0.039638104
C   C33       1.0  0.35600  0.16960  0.77630  1.0000 -0.0794945649
C   C34       1.0  0.39240  0.14850  0.72620  1.0000 -0.1811983538
C   C35       1.0  0.46820  0.15450  0.73330  1.0000 0.2384231612
C   C36       1.0  0.50450  0.18230  0.78950  1.0000 -0.2095857394
C   C37       1.0  0.46670  0.20270  0.83780  1.0000 -0.0794945649
C   C38       1.0  0.49800  0.08900  0.64770  1.0000 0.6069290208
C   C39       1.0  0.57490  0.02960  0.58810  1.0000 0.2334429703
C   C40       1.0  0.53070  0.98630  0.58490  1.0000 -0.1811983538
C   C41       1.0  0.55280  0.94220  0.55990  1.0000 -0.0909461427
C   C42       1.0  0.61950  0.93900  0.53460  1.0000 -0.0479897246
C   C43       1.0  0.66250  0.98090  0.53550  1.0000 -0.074080689
C   C44       1.0  0.64000  0.02630  0.56220  1.0000 -0.230064476
C   C45       1.0  0.64470  0.89080  0.50540  1.0000 0.5911321285
C   C46       1.0  0.19580  0.14690  0.04940  1.0000 0.5911321285
C   C47       1.0  0.16750  0.09510  0.06000  1.0000 -0.0597914999
C   C48       1.0  0.16760  0.07750  0.12950  1.0000 -0.0794945649
C   C49       1.0  0.13570  0.03210  0.14160  1.0000 -0.1811983538
C   C50       1.0  0.10120  0.00280  0.08420  1.0000 0.2608705436
C   C51       1.0  0.10340  0.01950  0.01550  1.0000 -0.230064476
C   C52       1.0  0.13420  0.06620  0.00420  1.0000 -0.0977357962
C   C53       1.0  0.03460  0.94350  0.15200  1.0000 0.6167796271
C   C54       1.0  0.94940  0.88110  0.19040  1.0000 0.2384231612
C   C55       1.0  0.93590  0.90750  0.24920  1.0000 -0.1901477111
C   C56       1.0  0.89210  0.88520  0.29410  1.0000 -0.0794945649
C   C57       1.0  0.86070  0.83830  0.28020  1.0000 -0.0479897246
C   C58       1.0  0.87360  0.81250  0.21810  1.0000 -0.074080689
C   C59       1.0  0.91700  0.83500  0.17480  1.0000 -0.2001359458
C   C60       1.0  0.81170  0.81710  0.32750  1.0000 0.5751793402
C   C61       1.0  0.10700  0.19500  0.43750  1.0000 0.5975418704
C   C62       1.0  0.02810  0.18480  0.41340  1.0000 -0.0479897246
C   C63       1.0  0.99070  0.21310  0.36000  1.0000 -0.0909461427
C   C64       1.0  0.91600  0.20500  0.34160  1.0000 -0.1811983538
C   C65       1.0  0.88060  0.17170  0.37920  1.0000 0.2384231612
C   C66       1.0  0.91900  0.14240  0.43360  1.0000 -0.2001359458
C   C67       1.0  0.99220  0.15010  0.44870  1.0000 -0.0794945649
C   C68       1.0  0.75560  0.18900  0.32130  1.0000 0.5751793402
C   C69       1.0  0.62330  0.18550  0.27750  1.0000 0.2384231612
C   C70       1.0  0.62510  0.21270  0.21710  1.0000 -0.1811983538
C   C71       1.0  0.56230  0.22710  0.17630  1.0000 -0.0977357962
C   C72       1.0  0.49520  0.21360  0.19480  1.0000 -0.0479897246
C   C73       1.0  0.49280  0.18540  0.25520  1.0000 -0.0794945649
C   C74       1.0  0.55740  0.17070  0.29630  1.0000 -0.2001359458
C   C75       1.0  0.42670  0.23140  0.15170  1.0000 0.5911321285
C   C76       1.0  0.64610  0.71990  0.61110  1.0000 0.5911321285
C   C77       1.0  0.60760  0.69690  0.66667  1.0000 -0.039638104
C   C78       1.0  0.64400  0.66960  0.72370  1.0000 -0.0794945649
C   C79       1.0  0.60760  0.64850  0.77380  1.0000 -0.1811983538
C   C80       1.0  0.53180  0.65450  0.76670  1.0000 0.2384231612
C   C81       1.0  0.49550  0.68230  0.71050  1.0000 -0.2095857394
C   C82       1.0  0.53330  0.70270  0.66220  1.0000 -0.0794945649
C   C83       1.0  0.50200  0.58900  0.85230  1.0000 0.6069290208
C   C84       1.0  0.42510  0.52960  0.91190  1.0000 0.2334429703
C   C85       1.0  0.46930  0.48630  0.91510  1.0000 -0.1811983538
C   C86       1.0  0.44720  0.44220  0.94010  1.0000 -0.0909461427
C   C87       1.0  0.38050  0.43900  0.96540  1.0000 -0.0479897246
C   C88       1.0  0.33750  0.48090  0.96450  1.0000 -0.074080689
C   C89       1.0  0.36000  0.52630  0.93780  1.0000 -0.230064476
C   C90       1.0  0.35530  0.39080  0.99460  1.0000 0.5911321285
C   C91       1.0  0.19580  0.35310  0.54940  1.0000 0.5911321285
C   C92       1.0  0.16750  0.40490  0.56000  1.0000 -0.0597914999
C   C93       1.0  0.16760  0.42250  0.62950  1.0000 -0.0794945649
C   C94       1.0  0.13570  0.46790  0.64160  1.0000 -0.1811983538
C   C95       1.0  0.10120  0.49720  0.58420  1.0000 0.2548982518
C   C96       1.0  0.10340  0.48050  0.51550  1.0000 -0.230064476
C   C97       1.0  0.13420  0.43380  0.50420  1.0000 -0.0977357962
C   C98       1.0  0.03460  0.55650  0.65200  1.0000 0.6167796271
C   C99       1.0  0.94940  0.61890  0.69040  1.0000 0.2384231612
C   C100      1.0  0.93590  0.59250  0.74920  1.0000 -0.1901477111
C   C101      1.0  0.89210  0.61480  0.79410  1.0000 -0.0794945649
C   C102      1.0  0.86070  0.66170  0.78020  1.0000 -0.0479897246
C   C103      1.0  0.87360  0.68750  0.71810  1.0000 -0.074080689
C   C104      1.0  0.91700  0.66500  0.67480  1.0000 -0.2001359458
C   C105      1.0  0.81170  0.68290  0.82750  1.0000 0.5751793402
C   C106      1.0  0.10700  0.30500  0.93750  1.0000 0.5975418704
C   C107      1.0  0.02810  0.31520  0.91340  1.0000 -0.0479897246
C   C108      1.0  0.99070  0.28690  0.86000  1.0000 -0.0909461427
C   C109      1.0  0.91600  0.29500  0.84160  1.0000 -0.1811983538
C   C110      1.0  0.88060  0.32830  0.87920  1.0000 0.2384231612
C   C111      1.0  0.91900  0.35760  0.93360  1.0000 -0.2001359458
C   C112      1.0  0.99220  0.34990  0.94870  1.0000 -0.0794945649
C   C113      1.0  0.75560  0.31100  0.82130  1.0000 0.5743411598
C   C114      1.0  0.62330  0.31450  0.77750  1.0000 0.2384231612
C   C115      1.0  0.62510  0.28730  0.71710  1.0000 -0.1811983538
C   C116      1.0  0.56230  0.27290  0.67630  1.0000 -0.0977357962
C   C117      1.0  0.49520  0.28640  0.69480  1.0000 -0.0479897246
C   C118      1.0  0.49280  0.31460  0.75520  1.0000 -0.0794945649
C   C119      1.0  0.55740  0.32930  0.79630  1.0000 -0.2001359458
C   C120      1.0  0.42670  0.26860  0.65170  1.0000 0.5911321285
C   C121      1.0  0.64610  0.78010  0.11110  1.0000 0.5911321285
C   C122      1.0  0.60760  0.80310  0.16660  1.0000 -0.039638104
C   C123      1.0  0.64400  0.83040  0.22370  1.0000 -0.0794945649
C   C124      1.0  0.60760  0.85150  0.27380  1.0000 -0.1811983538
C   C125      1.0  0.53180  0.84550  0.26670  1.0000 0.2384231612
C   C126      1.0  0.49550  0.81770  0.21050  1.0000 -0.2095857394
C   C127      1.0  0.53330  0.79730  0.16220  1.0000 -0.0794945649
C   C128      1.0  0.50200  0.91100  0.35230  1.0000 0.6069290208
C   C129      1.0  0.42510  0.97040  0.41190  1.0000 0.2334429703
C   C130      1.0  0.46930  0.01370  0.41510  1.0000 -0.1811983538
C   C131      1.0  0.44720  0.05780  0.44010  1.0000 -0.0909461427
C   C132      1.0  0.38050  0.06100  0.46540  1.0000 -0.0479897246
C   C133      1.0  0.33750  0.01910  0.46450  1.0000 -0.074080689
C   C134      1.0  0.36000  0.97370  0.43780  1.0000 -0.230064476
C   C135      1.0  0.35530  0.10920  0.49460  1.0000 0.5911321285
C   C136      1.0  0.80420  0.85310  0.95060  1.0000 0.5911321285
C   C137      1.0  0.83250  0.90490  0.94000  1.0000 -0.0597914999
C   C138      1.0  0.83240  0.92250  0.87050  1.0000 -0.0794945649
C   C139      1.0  0.86430  0.96790  0.85840  1.0000 -0.1811983538
C   C140      1.0  0.89880  0.99720  0.91580  1.0000 0.2608705436
C   C141      1.0  0.89660  0.98050  0.98450  1.0000 -0.230064476
C   C142      1.0  0.86580  0.93380  0.99580  1.0000 -0.0977357962
C   C143      1.0  0.96540  0.05650  0.84800  1.0000 0.6167796271
C   C144      1.0  0.05060  0.11890  0.80960  1.0000 0.2384231612
C   C145      1.0  0.06410  0.09250  0.75080  1.0000 -0.1901477111
C   C146      1.0  0.10790  0.11480  0.70590  1.0000 -0.0794945649
C   C147      1.0  0.13930  0.16170  0.71980  1.0000 -0.0479897246
C   C148      1.0  0.12640  0.18750  0.78190  1.0000 -0.074080689
C   C149      1.0  0.08300  0.16500  0.82520  1.0000 -0.2001359458
C   C150      1.0  0.18830  0.18290  0.67250  1.0000 0.5751793402
C   C151      1.0  0.89300  0.80500  0.56250  1.0000 0.5975418704
C   C152      1.0  0.97190  0.81520  0.58660  1.0000 -0.039638104
C   C153      1.0  0.00930  0.78690  0.64000  1.0000 -0.0909461427
C   C154      1.0  0.08400  0.79500  0.65840  1.0000 -0.1811983538
C   C155      1.0  0.11940  0.82830  0.62080  1.0000 0.2334429703
C   C156      1.0  0.08100  0.85760  0.56640  1.0000 -0.2001359458
C   C157      1.0  0.00780  0.84990  0.55130  1.0000 -0.0794945649
C   C158      1.0  0.24440  0.81100  0.67870  1.0000 0.5743411598
C   C159      1.0  0.37670  0.81450  0.72250  1.0000 0.2334429703
C   C160      1.0  0.37490  0.78730  0.78290  1.0000 -0.1811983538
C   C161      1.0  0.43770  0.77290  0.82370  1.0000 -0.0977357962
C   C162      1.0  0.50480  0.78640  0.80520  1.0000 -0.0479897246
C   C163      1.0  0.50720  0.81460  0.74480  1.0000 -0.0794945649
C   C164      1.0  0.44260  0.82930  0.70370  1.0000 -0.2001359458
C   C165      1.0  0.57330  0.76860  0.84830  1.0000 0.5911321285
C   C166      1.0  0.35390  0.28010  0.38890  1.0000 0.5911321285
C   C167      1.0  0.39240  0.30310  0.33340  1.0000 -0.039638104
C   C168      1.0  0.35600  0.33040  0.27630  1.0000 -0.0794945649
C   C169      1.0  0.39240  0.35150  0.22620  1.0000 -0.1811983538
C   C170      1.0  0.46820  0.34550  0.23330  1.0000 0.2384231612
C   C171      1.0  0.50450  0.31770  0.28950  1.0000 -0.2095857394
C   C172      1.0  0.46670  0.29730  0.33780  1.0000 -0.0794945649
C   C173      1.0  0.49800  0.41100  0.14770  1.0000 0.6069290208
C   C174      1.0  0.57490  0.47040  0.08810  1.0000 0.2334429703
C   C175      1.0  0.53070  0.51370  0.08490  1.0000 -0.1811983538
C   C176      1.0  0.55280  0.55780  0.05990  1.0000 -0.0909461427
C   C177      1.0  0.61950  0.56100  0.03460  1.0000 -0.0479897246
C   C178      1.0  0.66250  0.51910  0.03550  1.0000 -0.0794945649
C   C179      1.0  0.64000  0.47370  0.06220  1.0000 -0.230064476
C   C180      1.0  0.64470  0.60920  0.00540  1.0000 0.5911321285
N   N1        1.0  0.93540  0.45710  0.40650  1.0000 -0.4222623279
N   N2        1.0  0.00820  0.40150  0.35810  1.0000 -0.4222623279
N   N3        1.0  0.19530  0.66240  0.13360  1.0000 -0.4534330847
N   N4        1.0  0.31350  0.66840  0.17710  1.0000 -0.4534330847
N   N5        1.0  0.51140  0.13530  0.68440  1.0000 -0.4359090683
N   N6        1.0  0.55960  0.07680  0.61750  1.0000 -0.432672484
N   N7        1.0  0.06460  0.95710  0.09350  1.0000 -0.4222623279
N   N8        1.0  0.99180  0.90150  0.14190  1.0000 -0.4222623279
N   N9        1.0  0.80470  0.16240  0.36640  1.0000 -0.4534330847
N   N10       1.0  0.68650  0.16840  0.32290  1.0000 -0.4534330847
N   N11       1.0  0.48860  0.63530  0.81560  1.0000 -0.4359090683
N   N12       1.0  0.44040  0.57680  0.88250  1.0000 -0.432672484
N   N13       1.0  0.06460  0.54290  0.59350  1.0000 -0.4222623279
N   N14       1.0  0.99180  0.59850  0.64190  1.0000 -0.4222623279
N   N15       1.0  0.80470  0.33760  0.86640  1.0000 -0.4534330847
N   N16       1.0  0.68650  0.33160  0.82290  1.0000 -0.4534330847
N   N17       1.0  0.48860  0.86470  0.31560  1.0000 -0.4359090683
N   N18       1.0  0.44040  0.92320  0.38250  1.0000 -0.432672484
N   N19       1.0  0.93540  0.04290  0.90650  1.0000 -0.4222623279
N   N20       1.0  0.00820  0.09850  0.85810  1.0000 -0.4222623279
N   N21       1.0  0.19530  0.83760  0.63360  1.0000 -0.4534330847
N   N22       1.0  0.31350  0.83160  0.67710  1.0000 -0.4534330847
N   N23       1.0  0.51140  0.36470  0.18440  1.0000 -0.4359090683
N   N24       1.0  0.55960  0.42320  0.11750  1.0000 -0.432672484
O   O1        1.0  0.95370  0.46650  0.29110  1.0000 -0.4794205634
O   O2        1.0  0.77610  0.67080  0.39630  1.0000 -0.5395980609
O   O3        1.0  0.80970  0.66400  0.51270  1.0000 -0.5556951744
O   O4        1.0  0.21030  0.34870  0.12970  1.0000 -0.5556951744
O   O5        1.0  0.20710  0.27150  0.17840  1.0000 -0.5238684399
O   O6        1.0  0.72550  0.76918  0.46780  1.0000 -1.0138829929
O   O7        1.0  0.23200  0.72570  0.20930  1.0000 -0.471450342
O   O8        1.0  0.86390  0.73350  0.08300  1.0000 -0.5303722305
O   O9        1.0  0.86130  0.66250  0.02060  1.0000 -0.5303722305
O   O10       1.0  0.56360  0.75800  0.40140  1.0000 -0.5556951744
O   O11       1.0  0.63160  0.72070  0.32860  1.0000 -0.5091786368
O   O12       1.0  0.44410  0.06460  0.64370  1.0000 -0.4534330847
O   O13       1.0  0.28730  0.21260  0.88470  1.0000 -0.5303722305
O   O14       1.0  0.39270  0.24480  0.93570  1.0000 -0.5524633618
O   O15       1.0  0.60320  0.85260  0.50240  1.0000 -0.5524633618
O   O16       1.0  0.70750  0.89170  0.48700  1.0000 -0.5395980609
O   O17       1.0  0.04630  0.96650  0.20890  1.0000 -0.4794205634
O   O18       1.0  0.22390  0.17080  0.10370  1.0000 -0.5395980609
O   O19       1.0  0.19030  0.16400  0.98730  1.0000 -0.5524633618
O   O20       1.0  0.78970  0.84870  0.37030  1.0000 -0.5556951744
O   O21       1.0  0.79290  0.77150  0.32160  1.0000 -0.5238684399
O   O22       1.0  0.27450  0.26918  0.03220  1.0000 -1.0138829929
O   O23       1.0  0.76800  0.22570  0.29070  1.0000 -0.471450342
O   O24       1.0  0.13610  0.23350  0.41700  1.0000 -0.5303722305
O   O25       1.0  0.13870  0.16250  0.47940  1.0000 -0.5303722305
O   O26       1.0  0.43640  0.25800  0.09860  1.0000 -0.5524633618
O   O27       1.0  0.36840  0.22070  0.17140  1.0000 -0.5091786368
O   O28       1.0  0.55590  0.56460  0.85630  1.0000 -0.4534330847
O   O29       1.0  0.71270  0.71260  0.61530  1.0000 -0.5303722305
O   O30       1.0  0.60730  0.74480  0.56430  1.0000 -0.5524633618
O   O31       1.0  0.39680  0.35260  0.99760  1.0000 -0.5524633618
O   O32       1.0  0.29250  0.39170  0.01300  1.0000 -0.5395980609
O   O33       1.0  0.04630  0.53350  0.70890  1.0000 -0.4794205634
O   O34       1.0  0.22390  0.32920  0.60370  1.0000 -0.5395980609
O   O35       1.0  0.19030  0.33600  0.48730  1.0000 -0.5524633618
O   O36       1.0  0.78970  0.65130  0.87030  1.0000 -0.5556951744
O   O37       1.0  0.79290  0.72850  0.82160  1.0000 -0.5238684399
O   O38       1.0  0.27450  0.23082  0.53220  1.0000 -1.0138829929
O   O39       1.0  0.76800  0.27430  0.79070  1.0000 -0.471450342
O   O40       1.0  0.13610  0.26650  0.91700  1.0000 -0.5303722305
O   O41       1.0  0.13870  0.33750  0.97940  1.0000 -0.5303722305
O   O42       1.0  0.43640  0.24200  0.59860  1.0000 -0.5556951744
O   O43       1.0  0.36840  0.27930  0.67140  1.0000 -0.5091786368
O   O44       1.0  0.55590  0.93540  0.35630  1.0000 -0.4534330847
O   O45       1.0  0.71270  0.78740  0.11530  1.0000 -0.5303722305
O   O46       1.0  0.60730  0.75520  0.06430  1.0000 -0.5524633618
O   O47       1.0  0.39680  0.14740  0.49760  1.0000 -0.5524633618
O   O48       1.0  0.29250  0.10830  0.51300  1.0000 -0.5395980609
O   O49       1.0  0.95370  0.03350  0.79110  1.0000 -0.4794205634
O   O50       1.0  0.77610  0.82920  0.89630  1.0000 -0.5395980609
O   O51       1.0  0.80970  0.83600  0.01270  1.0000 -0.5556951744
O   O52       1.0  0.21030  0.15130  0.62970  1.0000 -0.5556951744
O   O53       1.0  0.20710  0.22850  0.67840  1.0000 -0.5238684399
O   O54       1.0  0.72550  0.73082  0.96780  1.0000 -1.0138829929
O   O55       1.0  0.23200  0.77430  0.70930  1.0000 -0.471450342
O   O56       1.0  0.86390  0.76650  0.58300  1.0000 -0.5303722305
O   O57       1.0  0.86130  0.83750  0.52060  1.0000 -0.5303722305
O   O58       1.0  0.56360  0.74200  0.90140  1.0000 -0.5556951744
O   O59       1.0  0.63160  0.77930  0.82860  1.0000 -0.5091786368
O   O60       1.0  0.44410  0.43540  0.14370  1.0000 -0.4534330847
O   O61       1.0  0.28730  0.28740  0.38470  1.0000 -0.5303722305
O   O62       1.0  0.39270  0.25520  0.43570  1.0000 -0.5524633618
O   O63       1.0  0.60320  0.64740  0.00240  1.0000 -0.5524633618
O   O64       1.0  0.70750  0.60830  0.98700  1.0000 -0.5395980609
