# DDEC6 charges by PACMAN v1.1 (https://github.com/mtap-research/PACMAN-charge/)
data_2017[Cd][sql]2[FSR]5
_chemical_formula_sum              "Cd8 H112 C176 S4 N24 O32"
_cell_length_a       8.6933
_cell_length_b       22.851
_cell_length_c       24.799
_cell_angle_alpha    90
_cell_angle_beta     90
_cell_angle_gamma    90

_symmetry_space_group_name_H-M    "P 1"
_symmetry_Int_Tables_number       1

loop_
  _symmetry_equiv_pos_as_xyz
  'x, y, z'

loop_
  _atom_site_type_symbol
  _atom_site_label
  _atom_site_symmetry_multiplicity
  _atom_site_fract_x
  _atom_site_fract_y
  _atom_site_fract_z
  _atom_site_occupancy
  _atom_site_charge
Cd  Cd1       1.0  0.83835  0.93501  0.14128  1.0000 0.8338012239
Cd  Cd2       1.0  0.16165  0.93501  0.35872  1.0000 0.8338012239
Cd  Cd3       1.0  0.33835  0.43501  0.35872  1.0000 0.8338012239
Cd  Cd4       1.0  0.66165  0.43501  0.14128  1.0000 0.8338012239
Cd  Cd5       1.0  0.66165  0.56499  0.64128  1.0000 0.8338012239
Cd  Cd6       1.0  0.33835  0.56499  0.85872  1.0000 0.8338012239
Cd  Cd7       1.0  0.16165  0.06499  0.85872  1.0000 0.8338012239
Cd  Cd8       1.0  0.83835  0.06499  0.64128  1.0000 0.8338012239
H   H1        1.0  0.48690  0.92880  0.19180  1.0000 0.1190936244
H   H2        1.0  0.27440  0.98420  0.20840  1.0000 0.1401148384
H   H3        1.0  0.27500  0.08280  0.18550  1.0000 0.1190936244
H   H4        1.0  0.49080  0.12060  0.14120  1.0000 0.1296936265
H   H5        1.0  0.68900  0.15020  0.09930  1.0000 0.1296936265
H   H6        1.0  0.09430  0.10490  0.03330  1.0000 0.1401148384
H   H7        1.0  0.25700  0.03140  0.02010  1.0000 0.1401148384
H   H8        1.0  0.42890  0.95440  0.01810  1.0000 0.1190936244
H   H9        1.0  0.37530  0.87110  0.06570  1.0000 0.1296936265
H   H10       1.0  0.16480  0.86730  0.11790  1.0000 0.1190936244
H   H11       1.0  0.00530  0.17420  0.96860  1.0000 0.1107270932
H   H12       1.0  0.99780  0.26520  0.92700  1.0000 0.1190936244
H   H13       1.0  0.89920  0.34500  0.97480  1.0000 0.1107270932
H   H14       1.0  0.81920  0.24070  0.10180  1.0000 0.1296936265
H   H15       1.0  0.51310  0.92880  0.30820  1.0000 0.1190936244
H   H16       1.0  0.72560  0.98420  0.29160  1.0000 0.1401148384
H   H17       1.0  0.72500  0.08280  0.31450  1.0000 0.1190936244
H   H18       1.0  0.50920  0.12060  0.35880  1.0000 0.1296936265
H   H19       1.0  0.31100  0.15020  0.40070  1.0000 0.1296936265
H   H20       1.0  0.90570  0.10490  0.46670  1.0000 0.1401148384
H   H21       1.0  0.74300  0.03140  0.47990  1.0000 0.1401148384
H   H22       1.0  0.57110  0.95440  0.48190  1.0000 0.1190936244
H   H23       1.0  0.62470  0.87110  0.43430  1.0000 0.1296936265
H   H24       1.0  0.83520  0.86730  0.38210  1.0000 0.1190936244
H   H25       1.0  0.99470  0.17420  0.53140  1.0000 0.1107270932
H   H26       1.0  0.00220  0.26520  0.57300  1.0000 0.1190936244
H   H27       1.0  0.10080  0.34500  0.52520  1.0000 0.1107270932
H   H28       1.0  0.18080  0.24070  0.39820  1.0000 0.1296936265
H   H29       1.0  0.98690  0.42880  0.30820  1.0000 0.1190936244
H   H30       1.0  0.77440  0.48420  0.29160  1.0000 0.1401148384
H   H31       1.0  0.77500  0.58280  0.31450  1.0000 0.1190936244
H   H32       1.0  0.99080  0.62060  0.35880  1.0000 0.1296936265
H   H33       1.0  0.18900  0.65020  0.40070  1.0000 0.1296936265
H   H34       1.0  0.59430  0.60490  0.46670  1.0000 0.1401148384
H   H35       1.0  0.75700  0.53140  0.47990  1.0000 0.1401148384
H   H36       1.0  0.92890  0.45440  0.48190  1.0000 0.1190936244
H   H37       1.0  0.87530  0.37110  0.43430  1.0000 0.1296936265
H   H38       1.0  0.66480  0.36730  0.38210  1.0000 0.1190936244
H   H39       1.0  0.50530  0.67420  0.53140  1.0000 0.1107270932
H   H40       1.0  0.49780  0.76520  0.57300  1.0000 0.1190936244
H   H41       1.0  0.39920  0.84500  0.52520  1.0000 0.1107270932
H   H42       1.0  0.31920  0.74070  0.39820  1.0000 0.1296936265
H   H43       1.0  0.01310  0.42880  0.19180  1.0000 0.1190936244
H   H44       1.0  0.22560  0.48420  0.20840  1.0000 0.1401148384
H   H45       1.0  0.22500  0.58280  0.18550  1.0000 0.1190936244
H   H46       1.0  0.00920  0.62060  0.14120  1.0000 0.1296936265
H   H47       1.0  0.81100  0.65020  0.09930  1.0000 0.1296936265
H   H48       1.0  0.40570  0.60490  0.03330  1.0000 0.1401148384
H   H49       1.0  0.24300  0.53140  0.02010  1.0000 0.1401148384
H   H50       1.0  0.07110  0.45440  0.01810  1.0000 0.1190936244
H   H51       1.0  0.12470  0.37110  0.06570  1.0000 0.1296936265
H   H52       1.0  0.33520  0.36730  0.11790  1.0000 0.1190936244
H   H53       1.0  0.49470  0.67420  0.96860  1.0000 0.1107270932
H   H54       1.0  0.50220  0.76520  0.92700  1.0000 0.1190936244
H   H55       1.0  0.60080  0.84500  0.97480  1.0000 0.1107270932
H   H56       1.0  0.68080  0.74070  0.10180  1.0000 0.1296936265
H   H57       1.0  0.01310  0.57120  0.69180  1.0000 0.1190936244
H   H58       1.0  0.22560  0.51580  0.70840  1.0000 0.1401148384
H   H59       1.0  0.22500  0.41720  0.68550  1.0000 0.1190936244
H   H60       1.0  0.00920  0.37940  0.64120  1.0000 0.1296936265
H   H61       1.0  0.81100  0.34980  0.59930  1.0000 0.1296936265
H   H62       1.0  0.40570  0.39510  0.53330  1.0000 0.1401148384
H   H63       1.0  0.24300  0.46860  0.52010  1.0000 0.1401148384
H   H64       1.0  0.07110  0.54560  0.51810  1.0000 0.1190936244
H   H65       1.0  0.12470  0.62890  0.56570  1.0000 0.1296936265
H   H66       1.0  0.33520  0.63270  0.61790  1.0000 0.1190936244
H   H67       1.0  0.49470  0.32580  0.46860  1.0000 0.1107270932
H   H68       1.0  0.50220  0.23480  0.42700  1.0000 0.1190936244
H   H69       1.0  0.60080  0.15500  0.47480  1.0000 0.1107270932
H   H70       1.0  0.68080  0.25930  0.60180  1.0000 0.1296936265
H   H71       1.0  0.98690  0.57120  0.80820  1.0000 0.1190936244
H   H72       1.0  0.77440  0.51580  0.79160  1.0000 0.1401148384
H   H73       1.0  0.77500  0.41720  0.81450  1.0000 0.1190936244
H   H74       1.0  0.99080  0.37940  0.85880  1.0000 0.1296936265
H   H75       1.0  0.18900  0.34980  0.90070  1.0000 0.1296936265
H   H76       1.0  0.59430  0.39510  0.96670  1.0000 0.1401148384
H   H77       1.0  0.75700  0.46860  0.97990  1.0000 0.1401148384
H   H78       1.0  0.92890  0.54560  0.98190  1.0000 0.1190936244
H   H79       1.0  0.87530  0.62890  0.93430  1.0000 0.1296936265
H   H80       1.0  0.66480  0.63270  0.88210  1.0000 0.1190936244
H   H81       1.0  0.50530  0.32580  0.03140  1.0000 0.1107270932
H   H82       1.0  0.49780  0.23480  0.07300  1.0000 0.1190936244
H   H83       1.0  0.39920  0.15500  0.02520  1.0000 0.1107270932
H   H84       1.0  0.31920  0.25930  0.89820  1.0000 0.1296936265
H   H85       1.0  0.51310  0.07120  0.80820  1.0000 0.1190936244
H   H86       1.0  0.72560  0.01580  0.79160  1.0000 0.1401148384
H   H87       1.0  0.72500  0.91720  0.81450  1.0000 0.1190936244
H   H88       1.0  0.50920  0.87940  0.85880  1.0000 0.1296936265
H   H89       1.0  0.31100  0.84980  0.90070  1.0000 0.1296936265
H   H90       1.0  0.90570  0.89510  0.96670  1.0000 0.1401148384
H   H91       1.0  0.74300  0.96860  0.97990  1.0000 0.1401148384
H   H92       1.0  0.57110  0.04560  0.98190  1.0000 0.1190936244
H   H93       1.0  0.62470  0.12890  0.93430  1.0000 0.1296936265
H   H94       1.0  0.83520  0.13270  0.88210  1.0000 0.1190936244
H   H95       1.0  0.99470  0.82580  0.03140  1.0000 0.1107270932
H   H96       1.0  0.00220  0.73480  0.07300  1.0000 0.1190936244
H   H97       1.0  0.10080  0.65500  0.02520  1.0000 0.1107270932
H   H98       1.0  0.18080  0.75930  0.89820  1.0000 0.1296936265
H   H99       1.0  0.48690  0.07120  0.69180  1.0000 0.1190936244
H   H100      1.0  0.27440  0.01580  0.70840  1.0000 0.1401148384
H   H101      1.0  0.27500  0.91720  0.68550  1.0000 0.1190936244
H   H102      1.0  0.49080  0.87940  0.64120  1.0000 0.1296936265
H   H103      1.0  0.68900  0.84980  0.59930  1.0000 0.1296936265
H   H104      1.0  0.09430  0.89510  0.53330  1.0000 0.1401148384
H   H105      1.0  0.25700  0.96860  0.52010  1.0000 0.1401148384
H   H106      1.0  0.42890  0.04560  0.51810  1.0000 0.1190936244
H   H107      1.0  0.37530  0.12890  0.56570  1.0000 0.1296936265
H   H108      1.0  0.16480  0.13270  0.61790  1.0000 0.1190936244
H   H109      1.0  0.00530  0.82580  0.46860  1.0000 0.1107270932
H   H110      1.0  0.99780  0.73480  0.42700  1.0000 0.1190936244
H   H111      1.0  0.89920  0.65500  0.47480  1.0000 0.1107270932
H   H112      1.0  0.81920  0.75930  0.60180  1.0000 0.1296936265
C   C1        1.0  0.48760  0.96790  0.18140  1.0000 0.0697588893
C   C2        1.0  0.35990  0.00090  0.19190  1.0000 -0.1416494941
C   C3        1.0  0.35920  0.05910  0.17780  1.0000 -0.0395188899
C   C4        1.0  0.48860  0.08150  0.15180  1.0000 -0.1808337205
C   C5        1.0  0.61270  0.04590  0.14160  1.0000 0.1597012105
C   C6        1.0  0.75400  0.06650  0.11200  1.0000 0.1888456522
C   C7        1.0  0.76600  0.12290  0.09240  1.0000 -0.2358530191
C   C8        1.0  0.89550  0.13860  0.06190  1.0000 0.1401148384
C   C9        1.0  0.00780  0.09620  0.05390  1.0000 -0.2218162911
C   C10       1.0  0.99140  0.04030  0.07670  1.0000 0.1888456522
C   C11       1.0  0.10630  0.99250  0.07130  1.0000 0.1597012105
C   C12       1.0  0.23810  0.99760  0.03980  1.0000 -0.1808337205
C   C13       1.0  0.33940  0.95180  0.03850  1.0000 -0.0395188899
C   C14       1.0  0.30870  0.90290  0.06710  1.0000 -0.1323097749
C   C15       1.0  0.18190  0.90070  0.09730  1.0000 0.0697588893
C   C16       1.0  0.90800  0.19910  0.03930  1.0000 0.0547892144
C   C17       1.0  0.96500  0.20620  0.98700  1.0000 -0.1323097749
C   C18       1.0  0.96200  0.26060  0.96210  1.0000 -0.104744778
C   C19       1.0  0.90410  0.30820  0.99090  1.0000 -0.1323097749
C   C20       1.0  0.85320  0.30070  0.04410  1.0000 -0.0244785649
C   C21       1.0  0.85510  0.24570  0.06680  1.0000 -0.1416494941
C   C22       1.0  0.79270  0.35280  0.07350  1.0000 0.5252674362
C   C23       1.0  0.51240  0.96790  0.31860  1.0000 0.0697588893
C   C24       1.0  0.64010  0.00090  0.30810  1.0000 -0.1416494941
C   C25       1.0  0.64080  0.05910  0.32220  1.0000 -0.0395188899
C   C26       1.0  0.51140  0.08150  0.34820  1.0000 -0.1808337205
C   C27       1.0  0.38730  0.04590  0.35840  1.0000 0.1597012105
C   C28       1.0  0.24600  0.06650  0.38800  1.0000 0.1888456522
C   C29       1.0  0.23400  0.12290  0.40760  1.0000 -0.2358530191
C   C30       1.0  0.10450  0.13860  0.43810  1.0000 0.1401148384
C   C31       1.0  0.99220  0.09620  0.44610  1.0000 -0.2218162911
C   C32       1.0  0.00860  0.04030  0.42330  1.0000 0.1888456522
C   C33       1.0  0.89370  0.99250  0.42870  1.0000 0.1597012105
C   C34       1.0  0.76190  0.99760  0.46020  1.0000 -0.1808337205
C   C35       1.0  0.66060  0.95180  0.46150  1.0000 -0.0395188899
C   C36       1.0  0.69130  0.90290  0.43290  1.0000 -0.1416494941
C   C37       1.0  0.81810  0.90070  0.40270  1.0000 0.0697588893
C   C38       1.0  0.09200  0.19910  0.46070  1.0000 0.0547892144
C   C39       1.0  0.03500  0.20620  0.51300  1.0000 -0.1323097749
C   C40       1.0  0.03800  0.26060  0.53790  1.0000 -0.1051357621
C   C41       1.0  0.09590  0.30820  0.50910  1.0000 -0.1323097749
C   C42       1.0  0.14680  0.30070  0.45590  1.0000 -0.0244785649
C   C43       1.0  0.14490  0.24570  0.43320  1.0000 -0.1416494941
C   C44       1.0  0.20730  0.35280  0.42650  1.0000 0.5252674362
C   C45       1.0  0.98760  0.46790  0.31860  1.0000 0.0697588893
C   C46       1.0  0.85990  0.50090  0.30810  1.0000 -0.1416494941
C   C47       1.0  0.85920  0.55910  0.32220  1.0000 -0.0395188899
C   C48       1.0  0.98860  0.58150  0.34820  1.0000 -0.1808337205
C   C49       1.0  0.11270  0.54590  0.35840  1.0000 0.1597012105
C   C50       1.0  0.25400  0.56650  0.38800  1.0000 0.1888456522
C   C51       1.0  0.26600  0.62290  0.40760  1.0000 -0.2358530191
C   C52       1.0  0.39550  0.63860  0.43810  1.0000 0.1296936265
C   C53       1.0  0.50780  0.59620  0.44610  1.0000 -0.2218162911
C   C54       1.0  0.49140  0.54030  0.42330  1.0000 0.1888456522
C   C55       1.0  0.60630  0.49250  0.42870  1.0000 0.1597012105
C   C56       1.0  0.73810  0.49760  0.46020  1.0000 -0.1808337205
C   C57       1.0  0.83940  0.45180  0.46150  1.0000 -0.0395188899
C   C58       1.0  0.80870  0.40290  0.43290  1.0000 -0.1323097749
C   C59       1.0  0.68190  0.40070  0.40270  1.0000 0.0697588893
C   C60       1.0  0.40800  0.69910  0.46070  1.0000 0.0547892144
C   C61       1.0  0.46500  0.70620  0.51300  1.0000 -0.1323097749
C   C62       1.0  0.46200  0.76060  0.53790  1.0000 -0.1051357621
C   C63       1.0  0.40410  0.80820  0.50910  1.0000 -0.1323097749
C   C64       1.0  0.35320  0.80070  0.45590  1.0000 -0.0244785649
C   C65       1.0  0.35510  0.74570  0.43320  1.0000 -0.1416494941
C   C66       1.0  0.29270  0.85280  0.42650  1.0000 0.5252674362
C   C67       1.0  0.01240  0.46790  0.18140  1.0000 0.0697588893
C   C68       1.0  0.14010  0.50090  0.19190  1.0000 -0.1416494941
C   C69       1.0  0.14080  0.55910  0.17780  1.0000 -0.0395188899
C   C70       1.0  0.01140  0.58150  0.15180  1.0000 -0.1808337205
C   C71       1.0  0.88730  0.54590  0.14160  1.0000 0.1597012105
C   C72       1.0  0.74600  0.56650  0.11200  1.0000 0.1888456522
C   C73       1.0  0.73400  0.62290  0.09240  1.0000 -0.2358530191
C   C74       1.0  0.60450  0.63860  0.06190  1.0000 0.1296936265
C   C75       1.0  0.49220  0.59620  0.05390  1.0000 -0.2218162911
C   C76       1.0  0.50860  0.54030  0.07670  1.0000 0.1888456522
C   C77       1.0  0.39370  0.49250  0.07130  1.0000 0.1597012105
C   C78       1.0  0.26190  0.49760  0.03980  1.0000 -0.1808337205
C   C79       1.0  0.16060  0.45180  0.03850  1.0000 -0.0395188899
C   C80       1.0  0.19130  0.40290  0.06710  1.0000 -0.1416494941
C   C81       1.0  0.31810  0.40070  0.09730  1.0000 0.0697588893
C   C82       1.0  0.59200  0.69910  0.03930  1.0000 0.0547892144
C   C83       1.0  0.53500  0.70620  0.98700  1.0000 -0.1323097749
C   C84       1.0  0.53800  0.76060  0.96210  1.0000 -0.1051357621
C   C85       1.0  0.59590  0.80820  0.99090  1.0000 -0.1323097749
C   C86       1.0  0.64680  0.80070  0.04410  1.0000 -0.0244785649
C   C87       1.0  0.64490  0.74570  0.06680  1.0000 -0.1416494941
C   C88       1.0  0.70730  0.85280  0.07350  1.0000 0.5252674362
C   C89       1.0  0.01240  0.53210  0.68140  1.0000 0.0697588893
C   C90       1.0  0.14010  0.49910  0.69190  1.0000 -0.1416494941
C   C91       1.0  0.14080  0.44090  0.67780  1.0000 -0.0395188899
C   C92       1.0  0.01140  0.41850  0.65180  1.0000 -0.1808337205
C   C93       1.0  0.88730  0.45410  0.64160  1.0000 0.1597012105
C   C94       1.0  0.74600  0.43350  0.61200  1.0000 0.1888456522
C   C95       1.0  0.73400  0.37710  0.59240  1.0000 -0.2358530191
C   C96       1.0  0.60450  0.36140  0.56190  1.0000 0.1296936265
C   C97       1.0  0.49220  0.40380  0.55390  1.0000 -0.2218162911
C   C98       1.0  0.50860  0.45970  0.57670  1.0000 0.1888456522
C   C99       1.0  0.39370  0.50750  0.57130  1.0000 0.1597012105
C   C100      1.0  0.26190  0.50240  0.53980  1.0000 -0.1808337205
C   C101      1.0  0.16060  0.54820  0.53850  1.0000 -0.0395188899
C   C102      1.0  0.19130  0.59710  0.56710  1.0000 -0.1416494941
C   C103      1.0  0.31810  0.59930  0.59730  1.0000 0.0697588893
C   C104      1.0  0.59200  0.30090  0.53930  1.0000 0.0547892144
C   C105      1.0  0.53500  0.29380  0.48700  1.0000 -0.1323097749
C   C106      1.0  0.53800  0.23940  0.46210  1.0000 -0.1051357621
C   C107      1.0  0.59590  0.19180  0.49090  1.0000 -0.1323097749
C   C108      1.0  0.64680  0.19930  0.54410  1.0000 -0.0244785649
C   C109      1.0  0.64490  0.25430  0.56680  1.0000 -0.1416494941
C   C110      1.0  0.70730  0.14720  0.57350  1.0000 0.5252674362
C   C111      1.0  0.98760  0.53210  0.81860  1.0000 0.0697588893
C   C112      1.0  0.85990  0.49910  0.80810  1.0000 -0.1416494941
C   C113      1.0  0.85920  0.44090  0.82220  1.0000 -0.0395188899
C   C114      1.0  0.98860  0.41850  0.84820  1.0000 -0.1808337205
C   C115      1.0  0.11270  0.45410  0.85840  1.0000 0.1597012105
C   C116      1.0  0.25400  0.43350  0.88800  1.0000 0.1888456522
C   C117      1.0  0.26600  0.37710  0.90760  1.0000 -0.2358530191
C   C118      1.0  0.39550  0.36140  0.93810  1.0000 0.1296936265
C   C119      1.0  0.50780  0.40380  0.94610  1.0000 -0.2218162911
C   C120      1.0  0.49140  0.45970  0.92330  1.0000 0.1888456522
C   C121      1.0  0.60630  0.50750  0.92870  1.0000 0.1597012105
C   C122      1.0  0.73810  0.50240  0.96020  1.0000 -0.1808337205
C   C123      1.0  0.83940  0.54820  0.96150  1.0000 -0.0395188899
C   C124      1.0  0.80870  0.59710  0.93290  1.0000 -0.1416494941
C   C125      1.0  0.68190  0.59930  0.90270  1.0000 0.0697588893
C   C126      1.0  0.40800  0.30090  0.96070  1.0000 0.0547892144
C   C127      1.0  0.46500  0.29380  0.01300  1.0000 -0.1323097749
C   C128      1.0  0.46200  0.23940  0.03790  1.0000 -0.1051357621
C   C129      1.0  0.40410  0.19180  0.00910  1.0000 -0.1323097749
C   C130      1.0  0.35320  0.19930  0.95590  1.0000 -0.0244785649
C   C131      1.0  0.35510  0.25430  0.93320  1.0000 -0.1416494941
C   C132      1.0  0.29270  0.14720  0.92650  1.0000 0.5252674362
C   C133      1.0  0.51240  0.03210  0.81860  1.0000 0.0697588893
C   C134      1.0  0.64010  0.99910  0.80810  1.0000 -0.1416494941
C   C135      1.0  0.64080  0.94090  0.82220  1.0000 -0.0395188899
C   C136      1.0  0.51140  0.91850  0.84820  1.0000 -0.1808337205
C   C137      1.0  0.38730  0.95410  0.85840  1.0000 0.1597012105
C   C138      1.0  0.24600  0.93350  0.88800  1.0000 0.1888456522
C   C139      1.0  0.23400  0.87710  0.90760  1.0000 -0.2358530191
C   C140      1.0  0.10450  0.86140  0.93810  1.0000 0.1296936265
C   C141      1.0  0.99220  0.90380  0.94610  1.0000 -0.2218162911
C   C142      1.0  0.00860  0.95970  0.92330  1.0000 0.1888456522
C   C143      1.0  0.89370  0.00750  0.92870  1.0000 0.1597012105
C   C144      1.0  0.76190  0.00240  0.96020  1.0000 -0.1808337205
C   C145      1.0  0.66060  0.04820  0.96150  1.0000 -0.0395188899
C   C146      1.0  0.69130  0.09710  0.93290  1.0000 -0.1416494941
C   C147      1.0  0.81810  0.09930  0.90270  1.0000 0.0697588893
C   C148      1.0  0.09200  0.80090  0.96070  1.0000 0.0547892144
C   C149      1.0  0.03500  0.79380  0.01300  1.0000 -0.1323097749
C   C150      1.0  0.03800  0.73940  0.03790  1.0000 -0.1051357621
C   C151      1.0  0.09590  0.69180  0.00910  1.0000 -0.1323097749
C   C152      1.0  0.14680  0.69930  0.95590  1.0000 -0.0244785649
C   C153      1.0  0.14490  0.75430  0.93320  1.0000 -0.1416494941
C   C154      1.0  0.20730  0.64720  0.92650  1.0000 0.5252674362
C   C155      1.0  0.48760  0.03210  0.68140  1.0000 0.0697588893
C   C156      1.0  0.35990  0.99910  0.69190  1.0000 -0.1416494941
C   C157      1.0  0.35920  0.94090  0.67780  1.0000 -0.0395188899
C   C158      1.0  0.48860  0.91850  0.65180  1.0000 -0.1808337205
C   C159      1.0  0.61270  0.95410  0.64160  1.0000 0.1597012105
C   C160      1.0  0.75400  0.93350  0.61200  1.0000 0.1888456522
C   C161      1.0  0.76600  0.87710  0.59240  1.0000 -0.2358530191
C   C162      1.0  0.89550  0.86140  0.56190  1.0000 0.1296936265
C   C163      1.0  0.00780  0.90380  0.55390  1.0000 -0.2218162911
C   C164      1.0  0.99140  0.95970  0.57670  1.0000 0.1888456522
C   C165      1.0  0.10630  0.00750  0.57130  1.0000 0.1597012105
C   C166      1.0  0.23810  0.00240  0.53980  1.0000 -0.1808337205
C   C167      1.0  0.33940  0.04820  0.53850  1.0000 -0.0395188899
C   C168      1.0  0.30870  0.09710  0.56710  1.0000 -0.1323097749
C   C169      1.0  0.18190  0.09930  0.59730  1.0000 0.0697588893
C   C170      1.0  0.90800  0.80090  0.53930  1.0000 0.0547892144
C   C171      1.0  0.96500  0.79380  0.48700  1.0000 -0.1323097749
C   C172      1.0  0.96200  0.73940  0.46210  1.0000 -0.104744778
C   C173      1.0  0.90410  0.69180  0.49090  1.0000 -0.1323097749
C   C174      1.0  0.85320  0.69930  0.54410  1.0000 -0.0244785649
C   C175      1.0  0.85510  0.75430  0.56680  1.0000 -0.1416494941
C   C176      1.0  0.79270  0.64720  0.57350  1.0000 0.5252674362
S   S1        1.0  0.00000  0.88700  0.25000  1.0000 1.3672921202
S   S2        1.0  0.50000  0.38700  0.25000  1.0000 1.3672921202
S   S3        1.0  0.50000  0.61300  0.75000  1.0000 1.3672921202
S   S4        1.0  0.00000  0.11300  0.75000  1.0000 1.3672921202
N   N1        1.0  0.61450  0.98890  0.15680  1.0000 -0.2782010557
N   N2        1.0  0.86350  0.02710  0.10410  1.0000 -0.3000093558
N   N3        1.0  0.07790  0.94380  0.09950  1.0000 -0.2701708832
N   N4        1.0  0.38550  0.98890  0.34320  1.0000 -0.2782010557
N   N5        1.0  0.13650  0.02710  0.39590  1.0000 -0.3000093558
N   N6        1.0  0.92210  0.94380  0.40050  1.0000 -0.2701708832
N   N7        1.0  0.11450  0.48890  0.34320  1.0000 -0.2782010557
N   N8        1.0  0.36350  0.52710  0.39590  1.0000 -0.3000093558
N   N9        1.0  0.57790  0.44380  0.40050  1.0000 -0.2701708832
N   N10       1.0  0.88550  0.48890  0.15680  1.0000 -0.2782010557
N   N11       1.0  0.63650  0.52710  0.10410  1.0000 -0.3000093558
N   N12       1.0  0.42210  0.44380  0.09950  1.0000 -0.2701708832
N   N13       1.0  0.88550  0.51110  0.65680  1.0000 -0.2782010557
N   N14       1.0  0.63650  0.47290  0.60410  1.0000 -0.3000093558
N   N15       1.0  0.42210  0.55620  0.59950  1.0000 -0.2701708832
N   N16       1.0  0.11450  0.51110  0.84320  1.0000 -0.2782010557
N   N17       1.0  0.36350  0.47290  0.89590  1.0000 -0.3000093558
N   N18       1.0  0.57790  0.55620  0.90050  1.0000 -0.2701708832
N   N19       1.0  0.38550  0.01110  0.84320  1.0000 -0.2782010557
N   N20       1.0  0.13650  0.97290  0.89590  1.0000 -0.3000093558
N   N21       1.0  0.92210  0.05620  0.90050  1.0000 -0.2701708832
N   N22       1.0  0.61450  0.01110  0.65680  1.0000 -0.2782010557
N   N23       1.0  0.86350  0.97290  0.60410  1.0000 -0.3000093558
N   N24       1.0  0.07790  0.05620  0.59950  1.0000 -0.2701708832
O   O1        1.0  0.75270  0.34590  0.12230  1.0000 -0.5159652242
O   O2        1.0  0.77640  0.40050  0.05080  1.0000 -0.5598132768
O   O3        1.0  0.88520  0.92340  0.22670  1.0000 -0.5976519742
O   O4        1.0  0.94270  0.85360  0.29300  1.0000 -0.5866871783
O   O5        1.0  0.24730  0.34590  0.37770  1.0000 -0.5159652242
O   O6        1.0  0.22360  0.40050  0.44920  1.0000 -0.5598132768
O   O7        1.0  0.11480  0.92340  0.27330  1.0000 -0.5976519742
O   O8        1.0  0.05730  0.85360  0.20700  1.0000 -0.5866871783
O   O9        1.0  0.25270  0.84590  0.37770  1.0000 -0.5159652242
O   O10       1.0  0.27640  0.90050  0.44920  1.0000 -0.5598132768
O   O11       1.0  0.38520  0.42340  0.27330  1.0000 -0.5976519742
O   O12       1.0  0.44270  0.35360  0.20700  1.0000 -0.5866871783
O   O13       1.0  0.74730  0.84590  0.12230  1.0000 -0.5159652242
O   O14       1.0  0.72360  0.90050  0.05080  1.0000 -0.5598132768
O   O15       1.0  0.61480  0.42340  0.22670  1.0000 -0.5976519742
O   O16       1.0  0.55730  0.35360  0.29300  1.0000 -0.5866871783
O   O17       1.0  0.74730  0.15410  0.62230  1.0000 -0.5159652242
O   O18       1.0  0.72360  0.09950  0.55080  1.0000 -0.5598132768
O   O19       1.0  0.61480  0.57660  0.72670  1.0000 -0.5976519742
O   O20       1.0  0.55730  0.64640  0.79300  1.0000 -0.5866871783
O   O21       1.0  0.25270  0.15410  0.87770  1.0000 -0.5159652242
O   O22       1.0  0.27640  0.09950  0.94920  1.0000 -0.5598132768
O   O23       1.0  0.38520  0.57660  0.77330  1.0000 -0.5976519742
O   O24       1.0  0.44270  0.64640  0.70700  1.0000 -0.5866871783
O   O25       1.0  0.24730  0.65410  0.87770  1.0000 -0.5159652242
O   O26       1.0  0.22360  0.59950  0.94920  1.0000 -0.5598132768
O   O27       1.0  0.11480  0.07660  0.77330  1.0000 -0.5976519742
O   O28       1.0  0.05730  0.14640  0.70700  1.0000 -0.5866871783
O   O29       1.0  0.75270  0.65410  0.62230  1.0000 -0.5159652242
O   O30       1.0  0.77640  0.59950  0.55080  1.0000 -0.5598132768
O   O31       1.0  0.88520  0.07660  0.72670  1.0000 -0.5976519742
O   O32       1.0  0.94270  0.14640  0.79300  1.0000 -0.5866871783
