# DDEC6 charges by PACMAN v1.1 (https://github.com/mtap-research/PACMAN-charge/)
data_2017[FeAu][sql]2[FSR]2
_chemical_formula_sum              "Fe2 H60 Au4 C48 N12"
_cell_length_a       11.8833
_cell_length_b       11.8833
_cell_length_c       14.321
_cell_angle_alpha    86.733
_cell_angle_beta     93.267
_cell_angle_gamma    101.115

_symmetry_space_group_name_H-M    "P 1"
_symmetry_Int_Tables_number       1

loop_
  _symmetry_equiv_pos_as_xyz
  'x, y, z'

loop_
  _atom_site_type_symbol
  _atom_site_label
  _atom_site_symmetry_multiplicity
  _atom_site_fract_x
  _atom_site_fract_y
  _atom_site_fract_z
  _atom_site_occupancy
  _atom_site_charge
Fe  Fe1       1.0  0.50000  0.00000  0.00000  1.0000 0.8051692305
Fe  Fe2       1.0  0.00000  0.50000  0.50000  1.0000 0.8051692305
H   H1        1.0  0.76160  0.05980  0.04200  1.0000 0.1123435163
H   H2        1.0  0.56020  0.76020  0.99970  1.0000 0.120327535
H   H3        1.0  0.90990  0.66870  0.93500  1.0000 0.0916238649
H   H4        1.0  0.98300  0.79560  0.92030  1.0000 0.0916238649
H   H5        1.0  0.92020  0.97660  0.06750  1.0000 0.1343261247
H   H6        1.0  0.00930  0.81050  0.08450  1.0000 0.0916238649
H   H7        1.0  0.71920  0.66920  0.02000  1.0000 0.1343261247
H   H8        1.0  0.99560  0.61600  0.13500  1.0000 0.0916238649
H   H9        1.0  0.86450  0.58590  0.09710  1.0000 0.0916238649
H   H10       1.0  0.80860  0.69080  0.21360  1.0000 0.1123435163
H   H11       1.0  0.88100  0.60160  0.26280  1.0000 0.1423992646
H   H12       1.0  0.93960  0.73400  0.24790  1.0000 0.120327535
H   H13       1.0  0.06640  0.59480  0.98010  1.0000 0.120327535
H   H14       1.0  0.11320  0.68720  0.89880  1.0000 0.120327535
H   H15       1.0  0.14060  0.71720  0.00620  1.0000 0.120327535
H   H16       1.0  0.05980  0.76160  0.45800  1.0000 0.1123435163
H   H17       1.0  0.76020  0.56020  0.50030  1.0000 0.120327535
H   H18       1.0  0.66870  0.90990  0.56500  1.0000 0.0916238649
H   H19       1.0  0.79560  0.98300  0.57970  1.0000 0.0916238649
H   H20       1.0  0.97660  0.92020  0.43250  1.0000 0.1343261247
H   H21       1.0  0.81050  0.00930  0.41550  1.0000 0.0916238649
H   H22       1.0  0.66920  0.71920  0.48000  1.0000 0.1343261247
H   H23       1.0  0.61600  0.99560  0.36500  1.0000 0.0916238649
H   H24       1.0  0.58590  0.86450  0.40290  1.0000 0.0916238649
H   H25       1.0  0.69080  0.80860  0.28640  1.0000 0.1123435163
H   H26       1.0  0.60160  0.88100  0.23720  1.0000 0.1423992646
H   H27       1.0  0.73400  0.93960  0.25210  1.0000 0.120327535
H   H28       1.0  0.59480  0.06640  0.51990  1.0000 0.120327535
H   H29       1.0  0.68720  0.11320  0.60120  1.0000 0.120327535
H   H30       1.0  0.71720  0.14060  0.49380  1.0000 0.120327535
H   H31       1.0  0.23840  0.94020  0.95800  1.0000 0.1123435163
H   H32       1.0  0.43980  0.23980  0.00030  1.0000 0.120327535
H   H33       1.0  0.09010  0.33130  0.06500  1.0000 0.0916238649
H   H34       1.0  0.01700  0.20440  0.07970  1.0000 0.0916238649
H   H35       1.0  0.07980  0.02340  0.93250  1.0000 0.1343261247
H   H36       1.0  0.99070  0.18950  0.91550  1.0000 0.0916238649
H   H37       1.0  0.28080  0.33080  0.98000  1.0000 0.1343261247
H   H38       1.0  0.00440  0.38400  0.86500  1.0000 0.0916238649
H   H39       1.0  0.13550  0.41410  0.90290  1.0000 0.0916238649
H   H40       1.0  0.19140  0.30920  0.78640  1.0000 0.1123435163
H   H41       1.0  0.11900  0.39840  0.73720  1.0000 0.1423992646
H   H42       1.0  0.06040  0.26600  0.75210  1.0000 0.120327535
H   H43       1.0  0.93360  0.40520  0.01990  1.0000 0.120327535
H   H44       1.0  0.88680  0.31280  0.10120  1.0000 0.120327535
H   H45       1.0  0.85940  0.28280  0.99380  1.0000 0.120327535
H   H46       1.0  0.94020  0.23840  0.54200  1.0000 0.1123435163
H   H47       1.0  0.23980  0.43980  0.49970  1.0000 0.120327535
H   H48       1.0  0.33130  0.09010  0.43500  1.0000 0.0916238649
H   H49       1.0  0.20440  0.01700  0.42030  1.0000 0.0916238649
H   H50       1.0  0.02340  0.07980  0.56750  1.0000 0.1343261247
H   H51       1.0  0.18950  0.99070  0.58450  1.0000 0.0916238649
H   H52       1.0  0.33080  0.28080  0.52000  1.0000 0.1343261247
H   H53       1.0  0.38400  0.00440  0.63500  1.0000 0.0916238649
H   H54       1.0  0.41410  0.13550  0.59710  1.0000 0.0916238649
H   H55       1.0  0.30920  0.19140  0.71360  1.0000 0.1123435163
H   H56       1.0  0.39840  0.11900  0.76280  1.0000 0.1423992646
H   H57       1.0  0.26600  0.06040  0.74790  1.0000 0.120327535
H   H58       1.0  0.40520  0.93360  0.48010  1.0000 0.120327535
H   H59       1.0  0.31280  0.88680  0.39880  1.0000 0.120327535
H   H60       1.0  0.28280  0.85940  0.50620  1.0000 0.120327535
Au  Au1       1.0  0.25474  0.71374  0.23536  1.0000 -0.0084662524
Au  Au2       1.0  0.71374  0.25474  0.26464  1.0000 -0.0084662524
Au  Au3       1.0  0.74526  0.28626  0.76464  1.0000 -0.0084662524
Au  Au4       1.0  0.28626  0.74526  0.73536  1.0000 -0.0084662524
C   C1        1.0  0.35160  0.81820  0.14400  1.0000 0.0320077084
C   C2        1.0  0.75220  0.97900  0.03800  1.0000 0.0916238649
C   C3        1.0  0.83720  0.81260  0.04650  1.0000 0.1423992646
C   C4        1.0  0.63420  0.80460  0.01260  1.0000 0.0916238649
C   C5        1.0  0.97430  0.72510  0.96170  1.0000 -0.1519885006
C   C6        1.0  0.84760  0.93020  0.05290  1.0000 -0.2205423692
C   C7        1.0  0.94360  0.75400  0.05800  1.0000 -0.0364699027
C   C8        1.0  0.72940  0.74980  0.02570  1.0000 -0.1944303232
C   C9        1.0  0.61680  0.15900  0.17220  1.0000 0.0460369002
C   C10       1.0  0.92350  0.64610  0.12600  1.0000 -0.1519885006
C   C11       1.0  0.88470  0.67030  0.22100  1.0000 -0.3815396967
C   C12       1.0  0.08320  0.67680  0.96170  1.0000 -0.3694349992
C   C13       1.0  0.81820  0.35160  0.35600  1.0000 0.0320077084
C   C14       1.0  0.97900  0.75220  0.46200  1.0000 0.0916238649
C   C15       1.0  0.81260  0.83720  0.45350  1.0000 0.1423992646
C   C16       1.0  0.80460  0.63420  0.48740  1.0000 0.0916238649
C   C17       1.0  0.72510  0.97430  0.53830  1.0000 -0.1519885006
C   C18       1.0  0.93020  0.84760  0.44710  1.0000 -0.2205423692
C   C19       1.0  0.75400  0.94360  0.44200  1.0000 -0.0364699027
C   C20       1.0  0.74980  0.72940  0.47430  1.0000 -0.1944303232
C   C21       1.0  0.15900  0.61680  0.32780  1.0000 0.0460369002
C   C22       1.0  0.64610  0.92350  0.37400  1.0000 -0.1519885006
C   C23       1.0  0.67030  0.88470  0.27900  1.0000 -0.3815396967
C   C24       1.0  0.67680  0.08320  0.53830  1.0000 -0.3694349992
C   C25       1.0  0.64840  0.18180  0.85600  1.0000 0.0320077084
C   C26       1.0  0.24780  0.02100  0.96200  1.0000 0.0916238649
C   C27       1.0  0.16280  0.18740  0.95350  1.0000 0.1423992646
C   C28       1.0  0.36580  0.19540  0.98740  1.0000 0.0916238649
C   C29       1.0  0.02570  0.27490  0.03830  1.0000 -0.1519885006
C   C30       1.0  0.15240  0.06980  0.94710  1.0000 -0.2205423692
C   C31       1.0  0.05640  0.24600  0.94200  1.0000 -0.0364699027
C   C32       1.0  0.27060  0.25020  0.97430  1.0000 -0.1944303232
C   C33       1.0  0.38320  0.84100  0.82780  1.0000 0.0460369002
C   C34       1.0  0.07650  0.35390  0.87400  1.0000 -0.1519885006
C   C35       1.0  0.11530  0.32970  0.77900  1.0000 -0.3815396967
C   C36       1.0  0.91680  0.32320  0.03830  1.0000 -0.3694349992
C   C37       1.0  0.18180  0.64840  0.64400  1.0000 0.0320077084
C   C38       1.0  0.02100  0.24780  0.53800  1.0000 0.0916238649
C   C39       1.0  0.18740  0.16280  0.54650  1.0000 0.1423992646
C   C40       1.0  0.19540  0.36580  0.51260  1.0000 0.0916238649
C   C41       1.0  0.27490  0.02570  0.46170  1.0000 -0.1519885006
C   C42       1.0  0.06980  0.15240  0.55290  1.0000 -0.2205423692
C   C43       1.0  0.24600  0.05640  0.55800  1.0000 -0.0364699027
C   C44       1.0  0.25020  0.27060  0.52570  1.0000 -0.1944303232
C   C45       1.0  0.84100  0.38320  0.67220  1.0000 0.0460369002
C   C46       1.0  0.35390  0.07650  0.62600  1.0000 -0.1519885006
C   C47       1.0  0.32970  0.11530  0.72100  1.0000 -0.3815396967
C   C48       1.0  0.32320  0.91680  0.46170  1.0000 -0.3694349992
N   N1        1.0  0.56500  0.10400  0.11170  1.0000 -0.3885663169
N   N2        1.0  0.64700  0.92000  0.01830  1.0000 -0.228909904
N   N3        1.0  0.40770  0.87890  0.09240  1.0000 -0.3694349992
N   N4        1.0  0.10400  0.56500  0.38830  1.0000 -0.3885663169
N   N5        1.0  0.92000  0.64700  0.48170  1.0000 -0.228909904
N   N6        1.0  0.87890  0.40770  0.40760  1.0000 -0.3694349992
N   N7        1.0  0.43500  0.89600  0.88830  1.0000 -0.3885663169
N   N8        1.0  0.35300  0.08000  0.98170  1.0000 -0.228909904
N   N9        1.0  0.59230  0.12110  0.90760  1.0000 -0.3694349992
N   N10       1.0  0.89600  0.43500  0.61170  1.0000 -0.3885663169
N   N11       1.0  0.08000  0.35300  0.51830  1.0000 -0.228909904
N   N12       1.0  0.12110  0.59230  0.59240  1.0000 -0.3694349992
