# DDEC6 charges by PACMAN v1.1 (https://github.com/mtap-research/PACMAN-charge/)
data_2017[Er][mog]3[FSR]1
_chemical_formula_sum              "Er2 H6 C18 N6 O16"
_cell_length_a       6.0327
_cell_length_b       12.7752
_cell_length_c       13.1785
_cell_angle_alpha    61.0021
_cell_angle_beta     87.8059
_cell_angle_gamma    88.33

_symmetry_space_group_name_H-M    "P 1"
_symmetry_Int_Tables_number       1

loop_
  _symmetry_equiv_pos_as_xyz
  'x, y, z'

loop_
  _atom_site_type_symbol
  _atom_site_label
  _atom_site_symmetry_multiplicity
  _atom_site_fract_x
  _atom_site_fract_y
  _atom_site_fract_z
  _atom_site_occupancy
  _atom_site_charge
Er  Er1       1.0  0.27633  0.16187  0.67802  1.0000 1.8534619839
Er  Er2       1.0  0.72367  0.83813  0.32198  1.0000 1.8534619839
H   H1        1.0  0.14470  0.95710  0.98440  1.0000 0.1412800283
H   H2        1.0  0.85530  0.04290  0.01560  1.0000 0.1412800283
H   H3        1.0  0.80790  0.37180  0.66190  1.0000 0.1491000237
H   H4        1.0  0.19210  0.62820  0.33810  1.0000 0.1491000237
H   H5        1.0  0.57770  0.19620  0.42040  1.0000 0.1491000237
H   H6        1.0  0.42230  0.80380  0.57960  1.0000 0.1491000237
C   C1        1.0  0.62450  0.05690  0.90340  1.0000 0.0803005354
C   C2        1.0  0.37550  0.94310  0.09660  1.0000 0.0803005354
C   C3        1.0  0.29010  0.97630  0.98910  1.0000 0.0651082428
C   C4        1.0  0.70990  0.02370  0.01090  1.0000 0.0651082428
C   C5        1.0  0.18790  0.46080  0.47330  1.0000 0.0459257768
C   C6        1.0  0.81210  0.53920  0.52670  1.0000 0.0459257768
C   C7        1.0  0.88930  0.42310  0.59550  1.0000 0.0651082428
C   C8        1.0  0.11070  0.57690  0.40450  1.0000 0.0651082428
C   C9        1.0  0.38500  0.94940  0.59990  1.0000 0.057645473
C   C10       1.0  0.61500  0.05060  0.40010  1.0000 0.057645473
C   C11       1.0  0.54430  0.11530  0.45490  1.0000 0.0803005354
C   C12       1.0  0.45570  0.88470  0.54510  1.0000 0.0803005354
C   C13       1.0  0.76130  0.11310  0.79270  1.0000 0.5704495938
C   C14       1.0  0.23870  0.88690  0.20730  1.0000 0.5704495938
C   C15       1.0  0.40180  0.41410  0.44620  1.0000 0.5602456362
C   C16       1.0  0.59820  0.58590  0.55380  1.0000 0.5602456362
C   C17       1.0  0.24960  0.89420  0.71220  1.0000 0.5704495938
C   C18       1.0  0.75040  0.10580  0.28780  1.0000 0.5704495938
N   N1        1.0  0.41400  0.03610  0.89090  1.0000 -0.2427142529
N   N2        1.0  0.58600  0.96390  0.10910  1.0000 -0.2427142529
N   N3        1.0  0.07680  0.38320  0.56890  1.0000 -0.2085618048
N   N4        1.0  0.92320  0.61680  0.43110  1.0000 -0.2085618048
N   N5        1.0  0.43050  0.06550  0.55500  1.0000 -0.2459483414
N   N6        1.0  0.56950  0.93450  0.44500  1.0000 -0.2459483414
O   O1        1.0  0.66310  0.13180  0.70270  1.0000 -0.5116157501
O   O2        1.0  0.33690  0.86820  0.29730  1.0000 -0.5116157501
O   O3        1.0  0.44900  0.30650  0.51450  1.0000 -0.5745725601
O   O4        1.0  0.55100  0.69350  0.48550  1.0000 -0.5745725601
O   O5        1.0  0.19190  0.96310  0.75190  1.0000 -0.5907781689
O   O6        1.0  0.80810  0.03690  0.24810  1.0000 -0.5907781689
O   O7        1.0  0.00200  0.17150  0.54980  1.0000 -0.2234618707
O   O8        1.0  0.99800  0.82850  0.45020  1.0000 -0.2234618707
O   O9        1.0  0.36930  0.28300  0.75980  1.0000 -0.3901944427
O   O10       1.0  0.63070  0.71700  0.24020  1.0000 -0.3901944427
O   O11       1.0  0.96050  0.13550  0.79660  1.0000 -0.5641141502
O   O12       1.0  0.03950  0.86450  0.20340  1.0000 -0.5641141502
O   O13       1.0  0.51920  0.48280  0.36130  1.0000 -0.4049192636
O   O14       1.0  0.48080  0.51720  0.63870  1.0000 -0.4049192636
O   O15       1.0  0.20260  0.78670  0.75670  1.0000 -0.4315950839
O   O16       1.0  0.79740  0.21330  0.24330  1.0000 -0.4315950839
