# DDEC6 charges by PACMAN v1.1 (https://github.com/mtap-research/PACMAN-charge/)
data_2017[Cd][sqp]3[FSR]1
_chemical_formula_sum              "Cd2 H29 C30 N5 O10"
_cell_length_a       10.169
_cell_length_b       10.827
_cell_length_c       12.703
_cell_angle_alpha    66.237
_cell_angle_beta     77.645
_cell_angle_gamma    63.601

_symmetry_space_group_name_H-M    "P 1"
_symmetry_Int_Tables_number       1

loop_
  _symmetry_equiv_pos_as_xyz
  'x, y, z'

loop_
  _atom_site_type_symbol
  _atom_site_label
  _atom_site_symmetry_multiplicity
  _atom_site_fract_x
  _atom_site_fract_y
  _atom_site_fract_z
  _atom_site_occupancy
  _atom_site_charge
Cd  Cd1       1.0  0.78814  0.97425  0.25010  1.0000 0.9133811166
Cd  Cd2       1.0  0.10982  0.98649  0.03273  1.0000 0.9920915535
H   H1        1.0  0.57536  0.99313  0.01686  1.0000 0.1405084319
H   H2        1.0  0.90783  0.90985  0.78550  1.0000 0.1317360322
H   H3        1.0  0.91374  0.36163  0.26873  1.0000 0.1203726383
H   H4        1.0  0.14037  0.67065  0.48614  1.0000 0.1405084319
H   H5        1.0  0.08200  0.81352  0.37752  1.0000 0.150227735
H   H6        1.0  0.32561  0.42832  0.42875  1.0000 0.150227735
H   H7        1.0  0.25706  0.31073  0.48043  1.0000 0.150227735
H   H8        1.0  0.21656  0.42891  0.53660  1.0000 0.150227735
H   H9        1.0  0.32829  0.29851  0.28934  1.0000 0.1203726383
H   H10       1.0  0.25001  0.00252  0.23110  1.0000 0.1317360322
H   H11       1.0  0.52491  0.91171  0.74933  1.0000 0.1203726383
H   H12       1.0  0.77106  0.76784  0.15329  1.0000 0.150227735
H   H13       1.0  0.76879  0.61065  0.21180  1.0000 0.1605551188
H   H14       1.0  0.88431  0.63895  0.11170  1.0000 0.1405084319
H   H15       1.0  0.58964  0.16396  0.42583  1.0000 0.1605551188
H   H16       1.0  0.55732  0.14507  0.55650  1.0000 0.1405084319
H   H17       1.0  0.50574  0.06527  0.50491  1.0000 0.150227735
H   H18       1.0  0.04345  0.55114  0.68656  1.0000 0.150227735
H   H19       1.0  0.98507  0.62546  0.78015  1.0000 0.150227735
H   H20       1.0  0.11428  0.64974  0.69376  1.0000 0.150227735
H   H21       1.0  0.29295  0.69562  0.11714  1.0000 0.3800835183
H   H22       1.0  0.16141  0.70762  0.18640  1.0000 0.3553979268
H   H23       1.0  0.85818  0.27274  0.86750  1.0000 0.1116644686
H   H24       1.0  0.65451  0.47697  0.78946  1.0000 0.1405084319
H   H25       1.0  0.69005  0.61412  0.76133  1.0000 0.1317360322
H   H26       1.0  0.57218  0.58404  0.85855  1.0000 0.1405084319
H   H27       1.0  0.87343  0.44943  0.02903  1.0000 0.1405084319
H   H28       1.0  0.70330  0.54258  0.02660  1.0000 0.1405084319
H   H29       1.0  0.80830  0.60497  0.93319  1.0000 0.1203726383
C   C1        1.0  0.84900  0.97550  0.97460  1.0000 0.5729042461
C   C2        1.0  0.11260  0.51280  0.38770  1.0000 0.1405084319
C   C3        1.0  0.75510  0.95700  0.90920  1.0000 -0.0206679737
C   C4        1.0  0.72260  0.96770  0.52990  1.0000 0.2295209339
C   C5        1.0  0.31430  0.13540  0.26050  1.0000 -0.0099552412
C   C6        1.0  0.06670  0.17620  0.24410  1.0000 -0.0206679737
C   C7        1.0  0.61260  0.97250  0.94950  1.0000 -0.1186414415
C   C8        1.0  0.81130  0.92270  0.81070  1.0000 -0.1607614536
C   C9        1.0  0.01440  0.30610  0.26610  1.0000 -0.1505475471
C   C10       1.0  0.47740  0.04530  0.25880  1.0000 0.549132215
C   C11       1.0  0.11200  0.35450  0.28440  1.0000 0.090468431
C   C12       1.0  0.05750  0.73520  0.43680  1.0000 -0.0776944289
C   C13       1.0  0.23940  0.41100  0.46540  1.0000 -0.4820837284
C   C14       1.0  0.05560  0.49060  0.31130  1.0000 -0.1798982004
C   C15       1.0  0.26150  0.26730  0.27950  1.0000 -0.1505475471
C   C16       1.0  0.93680  0.62390  0.26380  1.0000 0.2230146846
C   C17       1.0  0.21580  0.09110  0.24340  1.0000 -0.1134642193
C   C18       1.0  0.72540  0.90680  0.74830  1.0000 0.090468431
C   C19       1.0  0.58310  0.92320  0.78900  1.0000 -0.1607614536
C   C20       1.0  0.52580  0.95690  0.88900  1.0000 -0.0099552412
C   C21       1.0  0.83060  0.66400  0.17730  1.0000 -0.4820837284
C   C22       1.0  0.37270  0.97260  0.93430  1.0000 0.549132215
C   C23       1.0  0.95710  0.12790  0.22880  1.0000 0.5595466664
C   C24       1.0  0.78420  0.87890  0.63970  1.0000 -0.1607614536
C   C25       1.0  0.58150  0.09670  0.50180  1.0000 -0.4820837284
C   C26       1.0  0.91530  0.77030  0.62030  1.0000 0.150227735
C   C27       1.0  0.02440  0.63710  0.70260  1.0000 -0.4820837284
C   C28       1.0  0.87440  0.31360  0.91280  1.0000 0.2897312512
C   C29       1.0  0.66400  0.53900  0.82160  1.0000 -0.3295046965
C   C30       1.0  0.79210  0.51740  0.98010  1.0000 -0.3295046965
N   N1        1.0  0.92620  0.72250  0.30430  1.0000 -0.3069085607
N   N2        1.0  0.81200  0.92080  0.44850  1.0000 -0.3022083471
N   N3        1.0  0.03160  0.65190  0.38310  1.0000 0.0743241144
N   N4        1.0  0.92920  0.79830  0.50440  1.0000 0.0743241144
N   N5        1.0  0.77910  0.44980  0.90660  1.0000 0.0318528658
O   O1        1.0  0.00970  0.00520  0.20860  1.0000 -0.6200427244
O   O2        1.0  0.78890  0.02110  0.05610  1.0000 -0.5623687734
O   O3        1.0  0.32140  0.01830  0.01620  1.0000 -0.5238322446
O   O4        1.0  0.82430  0.19480  0.24290  1.0000 -0.4907373617
O   O5        1.0  0.30030  0.94070  0.88780  1.0000 -0.5623687734
O   O6        1.0  0.52760  0.91410  0.27200  1.0000 -0.5345370004
O   O7        1.0  0.98230  0.94630  0.94010  1.0000 -0.5623687734
O   O8        1.0  0.55590  0.11690  0.24430  1.0000 -0.5532072613
O   O9        1.0  0.98090  0.23840  0.97300  1.0000 -0.4411641488
O   O10       1.0  0.22430  0.74900  0.15470  1.0000 -0.6702884266
