# DDEC6 charges by PACMAN v1.1 (https://github.com/mtap-research/PACMAN-charge/)
data_2017[Ni][hcb]2[FSR]1
_chemical_formula_sum              "Ni2 H34 C42 N4 Cl2 O10"
_cell_length_a       8.6208
_cell_length_b       10.0432
_cell_length_c       15.5446
_cell_angle_alpha    101.826
_cell_angle_beta     102.897
_cell_angle_gamma    103.718

_symmetry_space_group_name_H-M    "P 1"
_symmetry_Int_Tables_number       1

loop_
  _symmetry_equiv_pos_as_xyz
  'x, y, z'

loop_
  _atom_site_type_symbol
  _atom_site_label
  _atom_site_symmetry_multiplicity
  _atom_site_fract_x
  _atom_site_fract_y
  _atom_site_fract_z
  _atom_site_occupancy
  _atom_site_charge
Ni  Ni1       1.0  0.47463  0.48310  0.33743  1.0000 0.7531613699
Ni  Ni2       1.0  0.52537  0.51690  0.66257  1.0000 0.7531613699
H   H1        1.0  0.27570  0.25400  0.24030  1.0000 0.3579090825
H   H2        1.0  0.25630  0.35410  0.19230  1.0000 0.3043824127
H   H3        1.0  0.46540  0.93490  0.34310  1.0000 0.1125325347
H   H4        1.0  0.78940  0.29500  0.51590  1.0000 0.1297338607
H   H5        1.0  0.83720  0.91380  0.54200  1.0000 0.1297338607
H   H6        1.0  0.05860  0.13120  0.63110  1.0000 0.11819785
H   H7        1.0  0.04990  0.27820  0.61400  1.0000 0.1372632077
H   H8        1.0  0.94530  0.42690  0.70870  1.0000 0.1297338607
H   H9        1.0  0.86280  0.48330  0.84000  1.0000 0.1297338607
H   H10       1.0  0.84100  0.09420  0.86640  1.0000 0.1493928697
H   H11       1.0  0.91930  0.04270  0.73370  1.0000 0.1297338607
H   H12       1.0  0.77530  0.24560  0.98010  1.0000 0.11819785
H   H13       1.0  0.78170  0.51710  0.96980  1.0000 0.11819785
H   H14       1.0  0.67270  0.64460  0.08260  1.0000 0.1297338607
H   H15       1.0  0.57450  0.66420  0.20790  1.0000 0.1125325347
H   H16       1.0  0.63950  0.30200  0.23340  1.0000 0.11819785
H   H17       1.0  0.72780  0.26920  0.10650  1.0000 0.1297338607
H   H18       1.0  0.72430  0.74600  0.75970  1.0000 0.3579090825
H   H19       1.0  0.74370  0.64590  0.80770  1.0000 0.3043824127
H   H20       1.0  0.53460  0.06510  0.65690  1.0000 0.1125325347
H   H21       1.0  0.21060  0.70500  0.48410  1.0000 0.1297338607
H   H22       1.0  0.16280  0.08620  0.45800  1.0000 0.1297338607
H   H23       1.0  0.94140  0.86880  0.36890  1.0000 0.11819785
H   H24       1.0  0.95010  0.72180  0.38600  1.0000 0.1372632077
H   H25       1.0  0.05470  0.57310  0.29130  1.0000 0.1297338607
H   H26       1.0  0.13720  0.51670  0.16000  1.0000 0.1297338607
H   H27       1.0  0.15900  0.90580  0.13360  1.0000 0.1493928697
H   H28       1.0  0.08070  0.95730  0.26630  1.0000 0.1297338607
H   H29       1.0  0.22470  0.75440  0.01990  1.0000 0.11819785
H   H30       1.0  0.21830  0.48290  0.03020  1.0000 0.11819785
H   H31       1.0  0.32730  0.35540  0.91740  1.0000 0.1297338607
H   H32       1.0  0.42550  0.33580  0.79210  1.0000 0.1125325347
H   H33       1.0  0.36050  0.69800  0.76660  1.0000 0.11819785
H   H34       1.0  0.27220  0.73080  0.89350  1.0000 0.1297338607
C   C1        1.0  0.57890  0.74240  0.40210  1.0000 0.5236275187
C   C2        1.0  0.64080  0.89990  0.43660  1.0000 -0.0271898144
C   C3        1.0  0.55920  0.98050  0.39300  1.0000 -0.123696533
C   C4        1.0  0.61400  0.12910  0.42190  1.0000 -0.0141727384
C   C5        1.0  0.75210  0.19610  0.49630  1.0000 -0.1511560091
C   C6        1.0  0.83790  0.11720  0.54340  1.0000 0.0992004155
C   C7        1.0  0.78130  0.96770  0.51230  1.0000 -0.1781703839
C   C8        1.0  0.52180  0.20890  0.36800  1.0000 0.5534390202
C   C9        1.0  0.98720  0.19220  0.62460  1.0000 -0.2021083841
C   C10       1.0  0.92400  0.35970  0.74110  1.0000 0.0564997001
C   C11       1.0  0.87520  0.39360  0.81980  1.0000 -0.1895993808
C   C12       1.0  0.84460  0.29310  0.86870  1.0000 0.1493928697
C   C13       1.0  0.86160  0.16360  0.83540  1.0000 -0.1895993808
C   C14       1.0  0.90930  0.13260  0.75600  1.0000 0.0410503643
C   C15       1.0  0.79160  0.32000  0.95280  1.0000 -0.1603550473
C   C16       1.0  0.76410  0.44000  0.99470  1.0000 -0.1690335432
C   C17       1.0  0.70790  0.45540  0.07720  1.0000 0.1493928697
C   C18       1.0  0.66400  0.57160  0.11130  1.0000 -0.2021083841
C   C19       1.0  0.60680  0.58400  0.18770  1.0000 0.0410503643
C   C20       1.0  0.64340  0.37150  0.20200  1.0000 0.0849116585
C   C21       1.0  0.69780  0.35080  0.12600  1.0000 -0.2059066603
C   C22       1.0  0.42110  0.25760  0.59790  1.0000 0.5236275187
C   C23       1.0  0.35920  0.10010  0.56340  1.0000 -0.0271898144
C   C24       1.0  0.44080  0.01950  0.60700  1.0000 -0.123696533
C   C25       1.0  0.38600  0.87090  0.57810  1.0000 -0.0141727384
C   C26       1.0  0.24790  0.80390  0.50370  1.0000 -0.1511560091
C   C27       1.0  0.16210  0.88280  0.45660  1.0000 0.0992004155
C   C28       1.0  0.21870  0.03230  0.48770  1.0000 -0.1781703839
C   C29       1.0  0.47820  0.79110  0.63200  1.0000 0.5534390202
C   C30       1.0  0.01280  0.80780  0.37540  1.0000 -0.2021083841
C   C31       1.0  0.07600  0.64030  0.25890  1.0000 0.0549711576
C   C32       1.0  0.12480  0.60640  0.18020  1.0000 -0.1895993808
C   C33       1.0  0.15540  0.70690  0.13130  1.0000 0.1493928697
C   C34       1.0  0.13840  0.83640  0.16460  1.0000 -0.1895993808
C   C35       1.0  0.09070  0.86740  0.24400  1.0000 0.0410503643
C   C36       1.0  0.20840  0.68000  0.04720  1.0000 -0.1603550473
C   C37       1.0  0.23590  0.56000  0.00530  1.0000 -0.1690335432
C   C38       1.0  0.29210  0.54460  0.92280  1.0000 0.1493928697
C   C39       1.0  0.33600  0.42840  0.88870  1.0000 -0.2021083841
C   C40       1.0  0.39320  0.41600  0.81230  1.0000 0.0410503643
C   C41       1.0  0.35660  0.62850  0.79800  1.0000 0.0849116585
C   C42       1.0  0.30220  0.64920  0.87400  1.0000 -0.2059066603
N   N1        1.0  0.59550  0.48300  0.23490  1.0000 -0.2425121451
N   N2        1.0  0.94060  0.23070  0.71170  1.0000 0.0992004155
N   N3        1.0  0.40450  0.51700  0.76510  1.0000 -0.2425121451
N   N4        1.0  0.05940  0.76930  0.28830  1.0000 0.0992004155
Cl  Cl1       1.0  0.32390  0.47410  0.42660  1.0000 -0.3211412737
Cl  Cl2       1.0  0.67610  0.52590  0.57340  1.0000 -0.3211412737
O   O1        1.0  0.44750  0.68610  0.33730  1.0000 -0.5270773777
O   O2        1.0  0.65910  0.66490  0.43530  1.0000 -0.4868173012
O   O3        1.0  0.40030  0.14200  0.30170  1.0000 -0.5618052492
O   O4        1.0  0.57730  0.34460  0.39190  1.0000 -0.5226052412
O   O5        1.0  0.26620  0.33720  0.24430  1.0000 -0.6300485143
O   O6        1.0  0.55250  0.31390  0.66270  1.0000 -0.5270773777
O   O7        1.0  0.34090  0.33510  0.56470  1.0000 -0.4868173012
O   O8        1.0  0.59970  0.85800  0.69830  1.0000 -0.5618052492
O   O9        1.0  0.42270  0.65540  0.60810  1.0000 -0.5226052412
O   O10       1.0  0.73380  0.66280  0.75570  1.0000 -0.6300485143
