# DDEC6 charges by PACMAN v1.1 (https://github.com/mtap-research/PACMAN-charge/)
data_2017[Co][nan]2[FSR]7
_chemical_formula_sum              "Co4 H44 C52 N8 O20"
_cell_length_a       12.655
_cell_length_b       7.6693
_cell_length_c       15.934
_cell_angle_alpha    90
_cell_angle_beta     106.636
_cell_angle_gamma    90

_symmetry_space_group_name_H-M    "P 1"
_symmetry_Int_Tables_number       1

loop_
  _symmetry_equiv_pos_as_xyz
  'x, y, z'

loop_
  _atom_site_type_symbol
  _atom_site_label
  _atom_site_symmetry_multiplicity
  _atom_site_fract_x
  _atom_site_fract_y
  _atom_site_fract_z
  _atom_site_occupancy
  _atom_site_charge
Co  Co1       1.0  0.19596  0.49153  0.82205  1.0000 0.8201040091
Co  Co2       1.0  0.80404  0.99153  0.67795  1.0000 0.8201040091
Co  Co3       1.0  0.80404  0.50847  0.17795  1.0000 0.8201040091
Co  Co4       1.0  0.19596  0.00847  0.32205  1.0000 0.8201040091
H   H1        1.0  0.31000  0.27110  0.75110  1.0000 0.3712661626
H   H2        1.0  0.38220  0.41220  0.78380  1.0000 0.354701853
H   H3        1.0  0.00850  0.84630  0.28660  1.0000 0.310191373
H   H4        1.0  0.00810  0.96910  0.35490  1.0000 0.310191373
H   H5        1.0  0.17150  0.39620  0.56380  1.0000 0.119436478
H   H6        1.0  0.08080  0.56510  0.31390  1.0000 0.1369235428
H   H7        1.0  0.07510  0.89270  0.50840  1.0000 0.1369235428
H   H8        1.0  0.36540  0.55260  0.00150  1.0000 0.119436478
H   H9        1.0  0.48510  0.76000  0.07370  1.0000 0.127718574
H   H10       1.0  0.40020  0.05600  0.86300  1.0000 0.119436478
H   H11       1.0  0.28620  0.83430  0.79360  1.0000 0.119436478
H   H12       1.0  0.69000  0.77110  0.74890  1.0000 0.3712661626
H   H13       1.0  0.61780  0.91220  0.71620  1.0000 0.354701853
H   H14       1.0  0.99150  0.34630  0.21340  1.0000 0.310191373
H   H15       1.0  0.99190  0.46910  0.14510  1.0000 0.310191373
H   H16       1.0  0.82850  0.89620  0.93620  1.0000 0.119436478
H   H17       1.0  0.91920  0.06510  0.18610  1.0000 0.1369235428
H   H18       1.0  0.92490  0.39270  0.99160  1.0000 0.1369235428
H   H19       1.0  0.63460  0.05260  0.49850  1.0000 0.119436478
H   H20       1.0  0.51490  0.26000  0.42630  1.0000 0.127718574
H   H21       1.0  0.59980  0.55600  0.63700  1.0000 0.119436478
H   H22       1.0  0.71380  0.33430  0.70640  1.0000 0.119436478
H   H23       1.0  0.69000  0.72890  0.24890  1.0000 0.3712661626
H   H24       1.0  0.61780  0.58780  0.21620  1.0000 0.354701853
H   H25       1.0  0.99150  0.15370  0.71340  1.0000 0.310191373
H   H26       1.0  0.99190  0.03090  0.64510  1.0000 0.310191373
H   H27       1.0  0.82850  0.60380  0.43620  1.0000 0.119436478
H   H28       1.0  0.91920  0.43490  0.68610  1.0000 0.1369235428
H   H29       1.0  0.92490  0.10730  0.49160  1.0000 0.1369235428
H   H30       1.0  0.63460  0.44740  0.99850  1.0000 0.119436478
H   H31       1.0  0.51490  0.24000  0.92630  1.0000 0.127718574
H   H32       1.0  0.59980  0.94400  0.13700  1.0000 0.119436478
H   H33       1.0  0.71380  0.16570  0.20640  1.0000 0.119436478
H   H34       1.0  0.31000  0.22890  0.25110  1.0000 0.3712661626
H   H35       1.0  0.38220  0.08780  0.28380  1.0000 0.354701853
H   H36       1.0  0.00850  0.65370  0.78660  1.0000 0.310191373
H   H37       1.0  0.00810  0.53090  0.85490  1.0000 0.310191373
H   H38       1.0  0.17150  0.10380  0.06380  1.0000 0.119436478
H   H39       1.0  0.08080  0.93490  0.81390  1.0000 0.1369235428
H   H40       1.0  0.07510  0.60730  0.00840  1.0000 0.1369235428
H   H41       1.0  0.36540  0.94740  0.50150  1.0000 0.119436478
H   H42       1.0  0.48510  0.74000  0.57370  1.0000 0.127718574
H   H43       1.0  0.40020  0.44400  0.36300  1.0000 0.119436478
H   H44       1.0  0.28620  0.66570  0.29360  1.0000 0.119436478
C   C1        1.0  0.14020  0.68570  0.64630  1.0000 0.5581144156
C   C2        1.0  0.12450  0.64830  0.54980  1.0000 -0.0118608116
C   C3        1.0  0.14630  0.48430  0.52280  1.0000 -0.1357823847
C   C4        1.0  0.13050  0.45090  0.43350  1.0000 -0.0319690867
C   C5        1.0  0.15610  0.28110  0.40150  1.0000 0.539651102
C   C6        1.0  0.09280  0.58620  0.37340  1.0000 -0.1902490756
C   C7        1.0  0.07330  0.75060  0.40110  1.0000 0.2564091446
C   C8        1.0  0.08870  0.78240  0.48950  1.0000 -0.1902490756
C   C9        1.0  0.37340  0.65390  0.97180  1.0000 0.0723945206
C   C10       1.0  0.44590  0.77940  0.01550  1.0000 -0.1902490756
C   C11       1.0  0.46260  0.93140  0.97670  1.0000 0.119436478
C   C12       1.0  0.39760  0.95250  0.89280  1.0000 -0.1902490756
C   C13       1.0  0.32710  0.81830  0.85170  1.0000 0.077155164
C   C14       1.0  0.85980  0.18570  0.85370  1.0000 0.5581144156
C   C15       1.0  0.87550  0.14830  0.95020  1.0000 -0.0118608116
C   C16       1.0  0.85370  0.98430  0.97720  1.0000 -0.1357823847
C   C17       1.0  0.86950  0.95090  0.06650  1.0000 -0.0319690867
C   C18       1.0  0.84390  0.78110  0.09850  1.0000 0.539651102
C   C19       1.0  0.90720  0.08620  0.12660  1.0000 -0.1902490756
C   C20       1.0  0.92670  0.25060  0.09890  1.0000 0.2564091446
C   C21       1.0  0.91130  0.28240  0.01050  1.0000 -0.1902490756
C   C22       1.0  0.62660  0.15390  0.52820  1.0000 0.0723945206
C   C23       1.0  0.55410  0.27940  0.48450  1.0000 -0.1902490756
C   C24       1.0  0.53740  0.43140  0.52330  1.0000 0.119436478
C   C25       1.0  0.60240  0.45250  0.60720  1.0000 -0.1902490756
C   C26       1.0  0.67290  0.31830  0.64830  1.0000 0.077155164
C   C27       1.0  0.85980  0.31430  0.35370  1.0000 0.5581144156
C   C28       1.0  0.87550  0.35170  0.45020  1.0000 -0.0118608116
C   C29       1.0  0.85370  0.51570  0.47720  1.0000 -0.1357823847
C   C30       1.0  0.86950  0.54910  0.56650  1.0000 -0.0319690867
C   C31       1.0  0.84390  0.71890  0.59850  1.0000 0.539651102
C   C32       1.0  0.90720  0.41380  0.62660  1.0000 -0.1902490756
C   C33       1.0  0.92670  0.24940  0.59890  1.0000 0.2564091446
C   C34       1.0  0.91130  0.21760  0.51050  1.0000 -0.1902490756
C   C35       1.0  0.62660  0.34610  0.02820  1.0000 0.0723945206
C   C36       1.0  0.55410  0.22060  0.98450  1.0000 -0.1902490756
C   C37       1.0  0.53740  0.06860  0.02330  1.0000 0.119436478
C   C38       1.0  0.60240  0.04750  0.10720  1.0000 -0.1902490756
C   C39       1.0  0.67290  0.18170  0.14830  1.0000 0.077155164
C   C40       1.0  0.14020  0.81430  0.14630  1.0000 0.5581144156
C   C41       1.0  0.12450  0.85170  0.04980  1.0000 -0.0118608116
C   C42       1.0  0.14630  0.01570  0.02280  1.0000 -0.1357823847
C   C43       1.0  0.13050  0.04910  0.93350  1.0000 -0.0319690867
C   C44       1.0  0.15610  0.21890  0.90150  1.0000 0.539651102
C   C45       1.0  0.09280  0.91380  0.87340  1.0000 -0.1902490756
C   C46       1.0  0.07330  0.74940  0.90110  1.0000 0.2564091446
C   C47       1.0  0.08870  0.71760  0.98950  1.0000 -0.1902490756
C   C48       1.0  0.37340  0.84610  0.47180  1.0000 0.0723945206
C   C49       1.0  0.44590  0.72060  0.51550  1.0000 -0.1902490756
C   C50       1.0  0.46260  0.56860  0.47670  1.0000 0.119436478
C   C51       1.0  0.39760  0.54750  0.39280  1.0000 -0.1902490756
C   C52       1.0  0.32710  0.68170  0.35170  1.0000 0.077155164
N   N1        1.0  0.04840  0.88860  0.33790  1.0000 -0.5924748419
N   N2        1.0  0.31470  0.67160  0.88950  1.0000 -0.2396996333
N   N3        1.0  0.95160  0.38860  0.16210  1.0000 -0.5924748419
N   N4        1.0  0.68530  0.17160  0.61050  1.0000 -0.2396996333
N   N5        1.0  0.95160  0.11140  0.66210  1.0000 -0.5924748419
N   N6        1.0  0.68530  0.32840  0.11050  1.0000 -0.2396996333
N   N7        1.0  0.04840  0.61140  0.83790  1.0000 -0.5924748419
N   N8        1.0  0.31470  0.82840  0.38950  1.0000 -0.2396996333
O   O1        1.0  0.16960  0.55630  0.69657  1.0000 -0.5828745304
O   O2        1.0  0.12660  0.83600  0.66990  1.0000 -0.5511966734
O   O3        1.0  0.20460  0.16240  0.45280  1.0000 -0.5511966734
O   O4        1.0  0.12930  0.25340  0.31879  1.0000 -0.5401545106
O   O5        1.0  0.33440  0.34110  0.79580  1.0000 -0.6707217185
O   O6        1.0  0.83040  0.05630  0.80343  1.0000 -0.5828745304
O   O7        1.0  0.87340  0.33600  0.83010  1.0000 -0.5511966734
O   O8        1.0  0.79540  0.66240  0.04720  1.0000 -0.5511966734
O   O9        1.0  0.87070  0.75340  0.18121  1.0000 -0.5401545106
O   O10       1.0  0.66560  0.84110  0.70420  1.0000 -0.6707217185
O   O11       1.0  0.83040  0.44370  0.30343  1.0000 -0.5828745304
O   O12       1.0  0.87340  0.16400  0.33010  1.0000 -0.5511966734
O   O13       1.0  0.79540  0.83760  0.54720  1.0000 -0.5511966734
O   O14       1.0  0.87070  0.74660  0.68121  1.0000 -0.5401545106
O   O15       1.0  0.66560  0.65890  0.20420  1.0000 -0.6707217185
O   O16       1.0  0.16960  0.94370  0.19657  1.0000 -0.5828745304
O   O17       1.0  0.12660  0.66400  0.16990  1.0000 -0.5511966734
O   O18       1.0  0.20460  0.33760  0.95280  1.0000 -0.5511966734
O   O19       1.0  0.12930  0.24660  0.81879  1.0000 -0.5401545106
O   O20       1.0  0.33440  0.15890  0.29580  1.0000 -0.6707217185
