# DDEC6 charges by PACMAN v1.1 (https://github.com/mtap-research/PACMAN-charge/)
data_2017[Tb][smc]3[FSR]1
_chemical_formula_sum              "Tb3 H36 C54 O27"
_cell_length_a       16.812
_cell_length_b       16.812
_cell_length_c       16.812
_cell_angle_alpha    44.0943
_cell_angle_beta     44.0943
_cell_angle_gamma    44.0943

_symmetry_space_group_name_H-M    "P 1"
_symmetry_Int_Tables_number       1

loop_
  _symmetry_equiv_pos_as_xyz
  'x, y, z'

loop_
  _atom_site_type_symbol
  _atom_site_label
  _atom_site_symmetry_multiplicity
  _atom_site_fract_x
  _atom_site_fract_y
  _atom_site_fract_z
  _atom_site_occupancy
  _atom_site_charge
Tb  Tb1       1.0  0.48850  0.51150  0.00000  1.0000 1.9864132391
Tb  Tb2       1.0  0.00000  0.48850  0.51150  1.0000 1.9864132391
Tb  Tb3       1.0  0.51150  0.00000  0.48850  1.0000 1.9864132391
H   H1        1.0  0.23640  0.85980  0.86750  1.0000 0.1393078614
H   H2        1.0  0.25440  0.88070  0.93030  1.0000 0.1393078614
H   H3        1.0  0.30600  0.43620  0.93350  1.0000 0.1306920286
H   H4        1.0  0.31710  0.34290  0.86900  1.0000 0.1306920286
H   H5        1.0  0.66930  0.30640  0.61930  1.0000 0.1194039247
H   H6        1.0  0.66930  0.37580  0.69870  1.0000 0.1306920286
H   H7        1.0  0.86750  0.23640  0.85980  1.0000 0.1393078614
H   H8        1.0  0.93030  0.25440  0.88070  1.0000 0.1393078614
H   H9        1.0  0.93350  0.30600  0.43620  1.0000 0.1306920286
H   H10       1.0  0.86900  0.31710  0.34290  1.0000 0.1306920286
H   H11       1.0  0.61930  0.66930  0.30640  1.0000 0.1194039247
H   H12       1.0  0.69870  0.66930  0.37580  1.0000 0.1306920286
H   H13       1.0  0.85980  0.86750  0.23640  1.0000 0.1393078614
H   H14       1.0  0.88070  0.93030  0.25440  1.0000 0.1393078614
H   H15       1.0  0.43620  0.93350  0.30600  1.0000 0.1306920286
H   H16       1.0  0.34290  0.86900  0.31710  1.0000 0.1306920286
H   H17       1.0  0.30640  0.61930  0.66930  1.0000 0.1194039247
H   H18       1.0  0.37580  0.69870  0.66930  1.0000 0.1306920286
H   H19       1.0  0.14020  0.76360  0.13250  1.0000 0.1393078614
H   H20       1.0  0.11930  0.74560  0.06970  1.0000 0.1393078614
H   H21       1.0  0.56380  0.69400  0.06650  1.0000 0.1306920286
H   H22       1.0  0.65710  0.68290  0.13100  1.0000 0.1306920286
H   H23       1.0  0.69360  0.33070  0.38070  1.0000 0.1194039247
H   H24       1.0  0.62420  0.33070  0.30130  1.0000 0.1306920286
H   H25       1.0  0.76360  0.13250  0.14020  1.0000 0.1393078614
H   H26       1.0  0.74560  0.06970  0.11930  1.0000 0.1393078614
H   H27       1.0  0.69400  0.06650  0.56380  1.0000 0.1306920286
H   H28       1.0  0.68290  0.13100  0.65710  1.0000 0.1306920286
H   H29       1.0  0.33070  0.38070  0.69360  1.0000 0.1194039247
H   H30       1.0  0.33070  0.30130  0.62420  1.0000 0.1306920286
H   H31       1.0  0.13250  0.14020  0.76360  1.0000 0.1393078614
H   H32       1.0  0.06970  0.11930  0.74560  1.0000 0.1393078614
H   H33       1.0  0.06650  0.56380  0.69400  1.0000 0.1306920286
H   H34       1.0  0.13100  0.65710  0.68290  1.0000 0.1306920286
H   H35       1.0  0.38070  0.69360  0.33070  1.0000 0.1194039247
H   H36       1.0  0.30130  0.62420  0.33070  1.0000 0.1306920286
C   C1        1.0  0.28940  0.82430  0.90100  1.0000 -0.1667163634
C   C2        1.0  0.42180  0.81030  0.79940  1.0000 0.673644899
C   C3        1.0  0.48620  0.41420  0.82540  1.0000 -0.0158703924
C   C4        1.0  0.38120  0.40570  0.87320  1.0000 -0.0829575175
C   C5        1.0  0.38650  0.35310  0.83170  1.0000 -0.1495179647
C   C6        1.0  0.49660  0.31560  0.73390  1.0000 0.0770268613
C   C7        1.0  0.59680  0.32850  0.68590  1.0000 -0.1416480505
C   C8        1.0  0.59700  0.37340  0.73110  1.0000 -0.0644759574
C   C9        1.0  0.48050  0.46720  0.87200  1.0000 0.5654199904
C   C10       1.0  0.90100  0.28940  0.82430  1.0000 -0.1667163634
C   C11       1.0  0.79940  0.42180  0.81030  1.0000 0.673644899
C   C12       1.0  0.82540  0.48620  0.41420  1.0000 -0.0158703924
C   C13       1.0  0.87320  0.38120  0.40570  1.0000 -0.0829575175
C   C14       1.0  0.83170  0.38650  0.35310  1.0000 -0.1495179647
C   C15       1.0  0.73390  0.49660  0.31560  1.0000 0.0770268613
C   C16       1.0  0.68590  0.59680  0.32850  1.0000 -0.1416480505
C   C17       1.0  0.73110  0.59700  0.37340  1.0000 -0.0644759574
C   C18       1.0  0.87200  0.48050  0.46720  1.0000 0.5654199904
C   C19       1.0  0.82430  0.90100  0.28940  1.0000 -0.1667163634
C   C20       1.0  0.81030  0.79940  0.42180  1.0000 0.673644899
C   C21       1.0  0.41420  0.82540  0.48620  1.0000 -0.0158703924
C   C22       1.0  0.40570  0.87320  0.38120  1.0000 -0.0829575175
C   C23       1.0  0.35310  0.83170  0.38650  1.0000 -0.1495179647
C   C24       1.0  0.31560  0.73390  0.49660  1.0000 0.0770268613
C   C25       1.0  0.32850  0.68590  0.59680  1.0000 -0.1416480505
C   C26       1.0  0.37340  0.73110  0.59700  1.0000 -0.0644759574
C   C27       1.0  0.46720  0.87200  0.48050  1.0000 0.5654199904
C   C28       1.0  0.17570  0.71060  0.09900  1.0000 -0.1667163634
C   C29       1.0  0.18970  0.57820  0.20060  1.0000 0.673644899
C   C30       1.0  0.58580  0.51380  0.17460  1.0000 -0.0158703924
C   C31       1.0  0.59430  0.61880  0.12680  1.0000 -0.0829575175
C   C32       1.0  0.64690  0.61350  0.16830  1.0000 -0.1495179647
C   C33       1.0  0.68440  0.50340  0.26610  1.0000 0.0770268613
C   C34       1.0  0.67150  0.40320  0.31410  1.0000 -0.1416480505
C   C35       1.0  0.62660  0.40300  0.26890  1.0000 -0.0644759574
C   C36       1.0  0.53280  0.51950  0.12800  1.0000 0.5654199904
C   C37       1.0  0.71060  0.09900  0.17570  1.0000 -0.1667163634
C   C38       1.0  0.57820  0.20060  0.18970  1.0000 0.673644899
C   C39       1.0  0.51380  0.17460  0.58580  1.0000 -0.0158703924
C   C40       1.0  0.61880  0.12680  0.59430  1.0000 -0.0829575175
C   C41       1.0  0.61350  0.16830  0.64690  1.0000 -0.1495179647
C   C42       1.0  0.50340  0.26610  0.68440  1.0000 0.0770268613
C   C43       1.0  0.40320  0.31410  0.67150  1.0000 -0.1416480505
C   C44       1.0  0.40300  0.26890  0.62660  1.0000 -0.0644759574
C   C45       1.0  0.51950  0.12800  0.53280  1.0000 0.5654199904
C   C46       1.0  0.09900  0.17570  0.71060  1.0000 -0.1667163634
C   C47       1.0  0.20060  0.18970  0.57820  1.0000 0.673644899
C   C48       1.0  0.17460  0.58580  0.51380  1.0000 -0.0158703924
C   C49       1.0  0.12680  0.59430  0.61880  1.0000 -0.0829575175
C   C50       1.0  0.16830  0.64690  0.61350  1.0000 -0.1495179647
C   C51       1.0  0.26610  0.68440  0.50340  1.0000 0.0770268613
C   C52       1.0  0.31410  0.67150  0.40320  1.0000 -0.1416480505
C   C53       1.0  0.26890  0.62660  0.40300  1.0000 -0.0644759574
C   C54       1.0  0.12800  0.53280  0.51950  1.0000 0.5654199904
O   O1        1.0  0.50604  0.69924  0.81284  1.0000 -0.568339687
O   O2        1.0  0.38171  0.49311  0.96621  1.0000 -0.623242618
O   O3        1.0  0.57668  0.47678  0.82408  1.0000 -0.5753236824
O   O4        1.0  0.44016  0.90736  0.70846  1.0000 -0.6088717792
O   O5        1.0  0.81284  0.50604  0.69924  1.0000 -0.568339687
O   O6        1.0  0.96621  0.38171  0.49311  1.0000 -0.623242618
O   O7        1.0  0.82408  0.57668  0.47678  1.0000 -0.5753236824
O   O8        1.0  0.70846  0.44016  0.90736  1.0000 -0.6088717792
O   O9        1.0  0.69924  0.81284  0.50604  1.0000 -0.568339687
O   O10       1.0  0.49311  0.96621  0.38171  1.0000 -0.623242618
O   O11       1.0  0.47678  0.82408  0.57668  1.0000 -0.568339687
O   O12       1.0  0.90736  0.70846  0.44016  1.0000 -0.6088717792
O   O13       1.0  0.30076  0.49396  0.18716  1.0000 -0.568339687
O   O14       1.0  0.50689  0.61829  0.03379  1.0000 -0.623242618
O   O15       1.0  0.52322  0.42332  0.17592  1.0000 -0.5753236824
O   O16       1.0  0.09264  0.55984  0.29154  1.0000 -0.6088717792
O   O17       1.0  0.49396  0.18716  0.30076  1.0000 -0.568339687
O   O18       1.0  0.61829  0.03379  0.50689  1.0000 -0.623242618
O   O19       1.0  0.42332  0.17592  0.52322  1.0000 -0.5753236824
O   O20       1.0  0.55984  0.29154  0.09264  1.0000 -0.6088717792
O   O21       1.0  0.18716  0.30076  0.49396  1.0000 -0.568339687
O   O22       1.0  0.03379  0.50689  0.61829  1.0000 -0.623242618
O   O23       1.0  0.17592  0.52322  0.42332  1.0000 -0.568339687
O   O24       1.0  0.29154  0.09264  0.55984  1.0000 -0.6088717792
O   O25       1.0  0.29290  0.70710  0.00000  1.0000 -0.2095161789
O   O26       1.0  0.00000  0.29290  0.70710  1.0000 -0.2095161789
O   O27       1.0  0.70710  0.00000  0.29290  1.0000 -0.2095161789
