# DDEC6 charges by PACMAN v1.1 (https://github.com/mtap-research/PACMAN-charge/)
data_2017[Zr][fof]3[FSR]1
_chemical_formula_sum              "Zr12 H84 C180 O96"
_cell_length_a       21.505
_cell_length_b       21.505
_cell_length_c       21.505
_cell_angle_alpha    54.4516
_cell_angle_beta     54.4516
_cell_angle_gamma    54.4516

_symmetry_space_group_name_H-M    "P 1"
_symmetry_Int_Tables_number       1

loop_
  _symmetry_equiv_pos_as_xyz
  'x, y, z'

loop_
  _atom_site_type_symbol
  _atom_site_label
  _atom_site_symmetry_multiplicity
  _atom_site_fract_x
  _atom_site_fract_y
  _atom_site_fract_z
  _atom_site_occupancy
  _atom_site_charge
Zr  Zr1       1.0  0.73246  0.44880  0.78736  1.0000 2.1670187452
Zr  Zr2       1.0  0.71655  0.05170  0.77467  1.0000 2.1623690663
Zr  Zr3       1.0  0.78736  0.73246  0.44880  1.0000 2.1670187452
Zr  Zr4       1.0  0.77467  0.71655  0.05170  1.0000 2.1623690663
Zr  Zr5       1.0  0.44880  0.78736  0.73246  1.0000 2.1670187452
Zr  Zr6       1.0  0.05170  0.77467  0.71655  1.0000 2.1623690663
Zr  Zr7       1.0  0.26754  0.55120  0.21264  1.0000 2.1670187452
Zr  Zr8       1.0  0.28345  0.94830  0.22533  1.0000 2.1623690663
Zr  Zr9       1.0  0.21264  0.26754  0.55120  1.0000 2.1670187452
Zr  Zr10      1.0  0.22533  0.28345  0.94830  1.0000 2.1623690663
Zr  Zr11      1.0  0.55120  0.21264  0.26754  1.0000 2.1670187452
Zr  Zr12      1.0  0.94830  0.22533  0.28345  1.0000 2.1623690663
H   H1        1.0  0.99640  0.37320  0.76780  1.0000 0.1380361819
H   H2        1.0  0.09740  0.39150  0.76160  1.0000 0.1165384372
H   H3        1.0  0.05880  0.47570  0.82310  1.0000 0.1289567076
H   H4        1.0  0.92050  0.55600  0.87360  1.0000 0.1289567076
H   H5        1.0  0.81910  0.54850  0.86730  1.0000 0.1289567076
H   H6        1.0  0.65670  0.93390  0.69180  1.0000 0.1289567076
H   H7        1.0  0.59570  0.94150  0.62640  1.0000 0.1380361819
H   H8        1.0  0.53910  0.06290  0.54090  1.0000 0.1165384372
H   H9        1.0  0.53960  0.18700  0.51170  1.0000 0.1289567076
H   H10       1.0  0.60680  0.18070  0.57380  1.0000 0.1380361819
H   H11       1.0  0.67140  0.31900  0.67930  1.0000 0.1540067085
H   H12       1.0  0.81290  0.18030  0.85320  1.0000 0.1596481565
H   H13       1.0  0.57770  0.36220  0.05590  1.0000 0.1596481565
H   H14       1.0  0.44430  0.13490  0.91710  1.0000 0.1596481565
H   H15       1.0  0.76780  0.99640  0.37320  1.0000 0.1380361819
H   H16       1.0  0.76160  0.09740  0.39150  1.0000 0.1165384372
H   H17       1.0  0.82310  0.05880  0.47570  1.0000 0.1289567076
H   H18       1.0  0.87360  0.92050  0.55600  1.0000 0.1289567076
H   H19       1.0  0.86730  0.81910  0.54850  1.0000 0.1289567076
H   H20       1.0  0.69180  0.65670  0.93390  1.0000 0.1289567076
H   H21       1.0  0.62640  0.59570  0.94150  1.0000 0.1380361819
H   H22       1.0  0.54090  0.53910  0.06290  1.0000 0.1165384372
H   H23       1.0  0.51170  0.53960  0.18700  1.0000 0.1289567076
H   H24       1.0  0.57380  0.60680  0.18070  1.0000 0.1380361819
H   H25       1.0  0.67930  0.67140  0.31900  1.0000 0.1540067085
H   H26       1.0  0.85320  0.81290  0.18030  1.0000 0.1596481565
H   H27       1.0  0.05590  0.57770  0.36220  1.0000 0.1596481565
H   H28       1.0  0.91710  0.44430  0.13490  1.0000 0.1596481565
H   H29       1.0  0.37320  0.76780  0.99640  1.0000 0.1380361819
H   H30       1.0  0.39150  0.76160  0.09740  1.0000 0.1165384372
H   H31       1.0  0.47570  0.82310  0.05880  1.0000 0.1289567076
H   H32       1.0  0.55600  0.87360  0.92050  1.0000 0.1289567076
H   H33       1.0  0.54850  0.86730  0.81910  1.0000 0.1289567076
H   H34       1.0  0.93390  0.69180  0.65670  1.0000 0.1289567076
H   H35       1.0  0.94150  0.62640  0.59570  1.0000 0.1380361819
H   H36       1.0  0.06290  0.54090  0.53910  1.0000 0.1165384372
H   H37       1.0  0.18700  0.51170  0.53960  1.0000 0.1289567076
H   H38       1.0  0.18070  0.57380  0.60680  1.0000 0.1380361819
H   H39       1.0  0.31900  0.67930  0.67140  1.0000 0.1540067085
H   H40       1.0  0.18030  0.85320  0.81290  1.0000 0.1596481565
H   H41       1.0  0.36220  0.05590  0.57770  1.0000 0.1596481565
H   H42       1.0  0.13490  0.91710  0.44430  1.0000 0.1596481565
H   H43       1.0  0.00360  0.62680  0.23220  1.0000 0.1380361819
H   H44       1.0  0.90260  0.60850  0.23840  1.0000 0.1165384372
H   H45       1.0  0.94120  0.52430  0.17690  1.0000 0.1289567076
H   H46       1.0  0.07950  0.44400  0.12640  1.0000 0.1289567076
H   H47       1.0  0.18090  0.45150  0.13270  1.0000 0.1289567076
H   H48       1.0  0.34330  0.06610  0.30820  1.0000 0.1289567076
H   H49       1.0  0.40430  0.05850  0.37360  1.0000 0.1380361819
H   H50       1.0  0.46090  0.93710  0.45910  1.0000 0.1165384372
H   H51       1.0  0.46040  0.81300  0.48830  1.0000 0.1380361819
H   H52       1.0  0.39320  0.81930  0.42620  1.0000 0.1380361819
H   H53       1.0  0.32860  0.68100  0.32070  1.0000 0.1540067085
H   H54       1.0  0.18710  0.81970  0.14680  1.0000 0.1596481565
H   H55       1.0  0.42230  0.63780  0.94410  1.0000 0.1596481565
H   H56       1.0  0.55570  0.86510  0.08290  1.0000 0.1596481565
H   H57       1.0  0.23220  0.00360  0.62680  1.0000 0.1380361819
H   H58       1.0  0.23840  0.90260  0.60850  1.0000 0.1165384372
H   H59       1.0  0.17690  0.94120  0.52430  1.0000 0.1289567076
H   H60       1.0  0.12640  0.07950  0.44400  1.0000 0.1289567076
H   H61       1.0  0.13270  0.18090  0.45150  1.0000 0.1289567076
H   H62       1.0  0.30820  0.34330  0.06610  1.0000 0.1289567076
H   H63       1.0  0.37360  0.40430  0.05850  1.0000 0.1380361819
H   H64       1.0  0.45910  0.46090  0.93710  1.0000 0.1165384372
H   H65       1.0  0.48830  0.46040  0.81300  1.0000 0.1289567076
H   H66       1.0  0.42620  0.39320  0.81930  1.0000 0.1380361819
H   H67       1.0  0.32070  0.32860  0.68100  1.0000 0.1540067085
H   H68       1.0  0.14680  0.18710  0.81970  1.0000 0.1596481565
H   H69       1.0  0.94410  0.42230  0.63780  1.0000 0.1596481565
H   H70       1.0  0.08290  0.55570  0.86510  1.0000 0.1596481565
H   H71       1.0  0.62680  0.23220  0.00360  1.0000 0.1380361819
H   H72       1.0  0.60850  0.23840  0.90260  1.0000 0.1165384372
H   H73       1.0  0.52430  0.17690  0.94120  1.0000 0.1289567076
H   H74       1.0  0.44400  0.12640  0.07950  1.0000 0.1289567076
H   H75       1.0  0.45150  0.13270  0.18090  1.0000 0.1289567076
H   H76       1.0  0.06610  0.30820  0.34330  1.0000 0.1289567076
H   H77       1.0  0.05850  0.37360  0.40430  1.0000 0.1380361819
H   H78       1.0  0.93710  0.45910  0.46090  1.0000 0.1165384372
H   H79       1.0  0.81300  0.48830  0.46040  1.0000 0.1289567076
H   H80       1.0  0.81930  0.42620  0.39320  1.0000 0.1380361819
H   H81       1.0  0.68100  0.32070  0.32860  1.0000 0.1540067085
H   H82       1.0  0.81970  0.14680  0.18710  1.0000 0.1596481565
H   H83       1.0  0.63780  0.94410  0.42230  1.0000 0.1596481565
H   H84       1.0  0.86510  0.08290  0.55570  1.0000 0.1596481565
C   C1        1.0  0.83364  0.45284  0.81684  1.0000 0.5803789435
C   C2        1.0  0.89811  0.45981  0.81761  1.0000 -0.0101506495
C   C3        1.0  0.98098  0.41188  0.78738  1.0000 -0.0832202508
C   C4        1.0  0.04089  0.42089  0.78599  1.0000 -0.0667419141
C   C5        1.0  0.01818  0.47268  0.82048  1.0000 -0.0667419141
C   C6        1.0  0.93594  0.51994  0.85084  1.0000 -0.0667419141
C   C7        1.0  0.87507  0.51477  0.84827  1.0000 -0.090159472
C   C8        1.0  0.67470  0.05100  0.68210  1.0000 0.5654420295
C   C9        1.0  0.63803  0.05693  0.63823  1.0000 -0.0254558697
C   C10       1.0  0.63386  0.98526  0.65446  1.0000 -0.090159472
C   C11       1.0  0.59732  0.98972  0.61652  1.0000 -0.0832202508
C   C12       1.0  0.56455  0.06115  0.56625  1.0000 -0.0667419141
C   C13       1.0  0.56485  0.13635  0.54775  1.0000 -0.0417978297
C   C14       1.0  0.60394  0.13264  0.58494  1.0000 -0.090159472
C   C15       1.0  0.75889  0.29400  0.78043  1.0000 0.3138275085
C   C16       1.0  0.71428  0.33420  0.73096  1.0000 -0.1389460526
C   C17       1.0  0.70028  0.28995  0.71481  1.0000 -0.1834349694
C   C18       1.0  0.72748  0.20433  0.74929  1.0000 0.3215918554
C   C19       1.0  0.76771  0.16389  0.80407  1.0000 -0.1330322746
C   C20       1.0  0.78417  0.20881  0.81784  1.0000 -0.1927462753
C   C21       1.0  0.67662  0.42452  0.69672  1.0000 0.6103245356
C   C22       1.0  0.78996  0.07486  0.85216  1.0000 0.6103245356
C   C23       1.0  0.57882  0.46161  0.94877  1.0000 0.3309539296
C   C24       1.0  0.54617  0.41828  0.03294  1.0000 -0.1992055885
C   C25       1.0  0.46905  0.45427  0.08430  1.0000 -0.152675764
C   C26       1.0  0.43971  0.40310  0.17249  1.0000 0.6814001638
C   C27       1.0  0.55225  0.03829  0.92316  1.0000 0.3215918554
C   C28       1.0  0.46719  0.08016  0.95087  1.0000 -0.1992055885
C   C29       1.0  0.58495  0.95630  0.97305  1.0000 -0.1330322746
C   C30       1.0  0.67515  0.90639  0.94665  1.0000 0.6868859269
C   C31       1.0  0.81684  0.83364  0.45284  1.0000 0.5803789435
C   C32       1.0  0.81761  0.89811  0.45981  1.0000 -0.0101506495
C   C33       1.0  0.78738  0.98098  0.41188  1.0000 -0.0832202508
C   C34       1.0  0.78599  0.04089  0.42089  1.0000 -0.0667419141
C   C35       1.0  0.82048  0.01818  0.47268  1.0000 -0.0667419141
C   C36       1.0  0.85084  0.93594  0.51994  1.0000 -0.0667419141
C   C37       1.0  0.84827  0.87507  0.51477  1.0000 -0.090159472
C   C38       1.0  0.68210  0.67470  0.05100  1.0000 0.5654420295
C   C39       1.0  0.63823  0.63803  0.05693  1.0000 -0.0254558697
C   C40       1.0  0.65446  0.63386  0.98526  1.0000 -0.090159472
C   C41       1.0  0.61652  0.59732  0.98972  1.0000 -0.0832202508
C   C42       1.0  0.56625  0.56455  0.06115  1.0000 -0.0667419141
C   C43       1.0  0.54775  0.56485  0.13635  1.0000 -0.0417978297
C   C44       1.0  0.58494  0.60394  0.13264  1.0000 -0.090159472
C   C45       1.0  0.78043  0.75889  0.29400  1.0000 0.3138275085
C   C46       1.0  0.73096  0.71428  0.33420  1.0000 -0.1389460526
C   C47       1.0  0.71481  0.70028  0.28995  1.0000 -0.1834349694
C   C48       1.0  0.74929  0.72748  0.20433  1.0000 0.3215918554
C   C49       1.0  0.80407  0.76771  0.16389  1.0000 -0.1330322746
C   C50       1.0  0.81784  0.78417  0.20881  1.0000 -0.1927462753
C   C51       1.0  0.69672  0.67662  0.42452  1.0000 0.6103245356
C   C52       1.0  0.85216  0.78996  0.07486  1.0000 0.6103245356
C   C53       1.0  0.94877  0.57882  0.46161  1.0000 0.3309539296
C   C54       1.0  0.03294  0.54617  0.41828  1.0000 -0.1992055885
C   C55       1.0  0.08430  0.46905  0.45427  1.0000 -0.152675764
C   C56       1.0  0.17249  0.43971  0.40310  1.0000 0.6814001638
C   C57       1.0  0.92316  0.55225  0.03829  1.0000 0.3215918554
C   C58       1.0  0.95087  0.46719  0.08016  1.0000 -0.1992055885
C   C59       1.0  0.97305  0.58495  0.95630  1.0000 -0.1330322746
C   C60       1.0  0.94665  0.67515  0.90639  1.0000 0.6868859269
C   C61       1.0  0.45284  0.81684  0.83364  1.0000 0.5803789435
C   C62       1.0  0.45981  0.81761  0.89811  1.0000 -0.0101506495
C   C63       1.0  0.41188  0.78738  0.98098  1.0000 -0.0832202508
C   C64       1.0  0.42089  0.78599  0.04089  1.0000 -0.0667419141
C   C65       1.0  0.47268  0.82048  0.01818  1.0000 -0.0667419141
C   C66       1.0  0.51994  0.85084  0.93594  1.0000 -0.0667419141
C   C67       1.0  0.51477  0.84827  0.87507  1.0000 -0.090159472
C   C68       1.0  0.05100  0.68210  0.67470  1.0000 0.5654420295
C   C69       1.0  0.05693  0.63823  0.63803  1.0000 -0.0254558697
C   C70       1.0  0.98526  0.65446  0.63386  1.0000 -0.090159472
C   C71       1.0  0.98972  0.61652  0.59732  1.0000 -0.0832202508
C   C72       1.0  0.06115  0.56625  0.56455  1.0000 -0.0667419141
C   C73       1.0  0.13635  0.54775  0.56485  1.0000 -0.0417978297
C   C74       1.0  0.13264  0.58494  0.60394  1.0000 -0.090159472
C   C75       1.0  0.29400  0.78043  0.75889  1.0000 0.3138275085
C   C76       1.0  0.33420  0.73096  0.71428  1.0000 -0.1389460526
C   C77       1.0  0.28995  0.71481  0.70028  1.0000 -0.1834349694
C   C78       1.0  0.20433  0.74929  0.72748  1.0000 0.3215918554
C   C79       1.0  0.16389  0.80407  0.76771  1.0000 -0.1330322746
C   C80       1.0  0.20881  0.81784  0.78417  1.0000 -0.1927462753
C   C81       1.0  0.42452  0.69672  0.67662  1.0000 0.6103245356
C   C82       1.0  0.07486  0.85216  0.78996  1.0000 0.6103245356
C   C83       1.0  0.46161  0.94877  0.57882  1.0000 0.3309539296
C   C84       1.0  0.41828  0.03294  0.54617  1.0000 -0.1992055885
C   C85       1.0  0.45427  0.08430  0.46905  1.0000 -0.152675764
C   C86       1.0  0.40310  0.17249  0.43971  1.0000 0.6814001638
C   C87       1.0  0.03829  0.92316  0.55225  1.0000 0.3215918554
C   C88       1.0  0.08016  0.95087  0.46719  1.0000 -0.1992055885
C   C89       1.0  0.95630  0.97305  0.58495  1.0000 -0.1330322746
C   C90       1.0  0.90639  0.94665  0.67515  1.0000 0.6868859269
C   C91       1.0  0.16636  0.54716  0.18316  1.0000 0.5803789435
C   C92       1.0  0.10189  0.54019  0.18239  1.0000 -0.0101506495
C   C93       1.0  0.01902  0.58812  0.21262  1.0000 -0.0832202508
C   C94       1.0  0.95911  0.57911  0.21401  1.0000 -0.0667419141
C   C95       1.0  0.98182  0.52732  0.17952  1.0000 -0.0667419141
C   C96       1.0  0.06406  0.48006  0.14916  1.0000 -0.0667419141
C   C97       1.0  0.12493  0.48523  0.15173  1.0000 -0.090159472
C   C98       1.0  0.32530  0.94900  0.31790  1.0000 0.5654420295
C   C99       1.0  0.36197  0.94307  0.36177  1.0000 -0.0254558697
C   C100      1.0  0.36614  0.01474  0.34554  1.0000 -0.090159472
C   C101      1.0  0.40268  0.01028  0.38348  1.0000 -0.0832202508
C   C102      1.0  0.43545  0.93885  0.43375  1.0000 -0.0667419141
C   C103      1.0  0.43515  0.86365  0.45225  1.0000 -0.0417978297
C   C104      1.0  0.39606  0.86736  0.41506  1.0000 -0.090159472
C   C105      1.0  0.24111  0.70600  0.21957  1.0000 0.3138275085
C   C106      1.0  0.28572  0.66580  0.26904  1.0000 -0.1389460526
C   C107      1.0  0.29972  0.71005  0.28519  1.0000 -0.1834349694
C   C108      1.0  0.27252  0.79567  0.25071  1.0000 0.3215918554
C   C109      1.0  0.23229  0.83611  0.19593  1.0000 -0.1330322746
C   C110      1.0  0.21583  0.79119  0.18216  1.0000 -0.1927462753
C   C111      1.0  0.32338  0.57548  0.30328  1.0000 0.6103245356
C   C112      1.0  0.21004  0.92514  0.14784  1.0000 0.6103245356
C   C113      1.0  0.42118  0.53839  0.05123  1.0000 0.3309539296
C   C114      1.0  0.45383  0.58172  0.96706  1.0000 -0.1992055885
C   C115      1.0  0.53095  0.54573  0.91570  1.0000 -0.152675764
C   C116      1.0  0.56029  0.59690  0.82751  1.0000 0.6814001638
C   C117      1.0  0.44775  0.96171  0.07684  1.0000 0.3215918554
C   C118      1.0  0.53281  0.91984  0.04913  1.0000 -0.1992055885
C   C119      1.0  0.41505  0.04370  0.02695  1.0000 -0.1330322746
C   C120      1.0  0.32485  0.09361  0.05335  1.0000 0.6868859269
C   C121      1.0  0.18316  0.16636  0.54716  1.0000 0.5803789435
C   C122      1.0  0.18239  0.10189  0.54019  1.0000 -0.0101506495
C   C123      1.0  0.21262  0.01902  0.58812  1.0000 -0.0832202508
C   C124      1.0  0.21401  0.95911  0.57911  1.0000 -0.0667419141
C   C125      1.0  0.17952  0.98182  0.52732  1.0000 -0.0667419141
C   C126      1.0  0.14916  0.06406  0.48006  1.0000 -0.0667419141
C   C127      1.0  0.15173  0.12493  0.48523  1.0000 -0.090159472
C   C128      1.0  0.31790  0.32530  0.94900  1.0000 0.5654420295
C   C129      1.0  0.36177  0.36197  0.94307  1.0000 -0.0254558697
C   C130      1.0  0.34554  0.36614  0.01474  1.0000 -0.090159472
C   C131      1.0  0.38348  0.40268  0.01028  1.0000 -0.0832202508
C   C132      1.0  0.43375  0.43545  0.93885  1.0000 -0.0667419141
C   C133      1.0  0.45225  0.43515  0.86365  1.0000 -0.0417978297
C   C134      1.0  0.41506  0.39606  0.86736  1.0000 -0.090159472
C   C135      1.0  0.21957  0.24111  0.70600  1.0000 0.3138275085
C   C136      1.0  0.26904  0.28572  0.66580  1.0000 -0.1389460526
C   C137      1.0  0.28519  0.29972  0.71005  1.0000 -0.1834349694
C   C138      1.0  0.25071  0.27252  0.79567  1.0000 0.3215918554
C   C139      1.0  0.19593  0.23229  0.83611  1.0000 -0.1330322746
C   C140      1.0  0.18216  0.21583  0.79119  1.0000 -0.1927462753
C   C141      1.0  0.30328  0.32338  0.57548  1.0000 0.6103245356
C   C142      1.0  0.14784  0.21004  0.92514  1.0000 0.6103245356
C   C143      1.0  0.05123  0.42118  0.53839  1.0000 0.3309539296
C   C144      1.0  0.96706  0.45383  0.58172  1.0000 -0.1992055885
C   C145      1.0  0.91570  0.53095  0.54573  1.0000 -0.152675764
C   C146      1.0  0.82751  0.56029  0.59690  1.0000 0.6814001638
C   C147      1.0  0.07684  0.44775  0.96171  1.0000 0.3215918554
C   C148      1.0  0.04913  0.53281  0.91984  1.0000 -0.1992055885
C   C149      1.0  0.02695  0.41505  0.04370  1.0000 -0.1330322746
C   C150      1.0  0.05335  0.32485  0.09361  1.0000 0.6868859269
C   C151      1.0  0.54716  0.18316  0.16636  1.0000 0.5803789435
C   C152      1.0  0.54019  0.18239  0.10189  1.0000 -0.0101506495
C   C153      1.0  0.58812  0.21262  0.01902  1.0000 -0.0832202508
C   C154      1.0  0.57911  0.21401  0.95911  1.0000 -0.0667419141
C   C155      1.0  0.52732  0.17952  0.98182  1.0000 -0.0667419141
C   C156      1.0  0.48006  0.14916  0.06406  1.0000 -0.0667419141
C   C157      1.0  0.48523  0.15173  0.12493  1.0000 -0.090159472
C   C158      1.0  0.94900  0.31790  0.32530  1.0000 0.5654420295
C   C159      1.0  0.94307  0.36177  0.36197  1.0000 -0.0254558697
C   C160      1.0  0.01474  0.34554  0.36614  1.0000 -0.090159472
C   C161      1.0  0.01028  0.38348  0.40268  1.0000 -0.0832202508
C   C162      1.0  0.93885  0.43375  0.43545  1.0000 -0.0667419141
C   C163      1.0  0.86365  0.45225  0.43515  1.0000 -0.0417978297
C   C164      1.0  0.86736  0.41506  0.39606  1.0000 -0.090159472
C   C165      1.0  0.70600  0.21957  0.24111  1.0000 0.3138275085
C   C166      1.0  0.66580  0.26904  0.28572  1.0000 -0.1389460526
C   C167      1.0  0.71005  0.28519  0.29972  1.0000 -0.1834349694
C   C168      1.0  0.79567  0.25071  0.27252  1.0000 0.3215918554
C   C169      1.0  0.83611  0.19593  0.23229  1.0000 -0.1330322746
C   C170      1.0  0.79119  0.18216  0.21583  1.0000 -0.1927462753
C   C171      1.0  0.57548  0.30328  0.32338  1.0000 0.6103245356
C   C172      1.0  0.92514  0.14784  0.21004  1.0000 0.6103245356
C   C173      1.0  0.53839  0.05123  0.42118  1.0000 0.3309539296
C   C174      1.0  0.58172  0.96706  0.45383  1.0000 -0.1992055885
C   C175      1.0  0.54573  0.91570  0.53095  1.0000 -0.152675764
C   C176      1.0  0.59690  0.82751  0.56029  1.0000 0.6814001638
C   C177      1.0  0.96171  0.07684  0.44775  1.0000 0.3215918554
C   C178      1.0  0.91984  0.04913  0.53281  1.0000 -0.1992055885
C   C179      1.0  0.04370  0.02695  0.41505  1.0000 -0.1330322746
C   C180      1.0  0.09361  0.05335  0.32485  1.0000 0.6868859269
O   O1        1.0  0.76271  0.50937  0.82167  1.0000 -0.5785643718
O   O2        1.0  0.84929  0.39063  0.80772  1.0000 -0.5785643718
O   O3        1.0  0.69473  0.98553  0.73903  1.0000 -0.5593830111
O   O4        1.0  0.68138  0.11389  0.66737  1.0000 -0.5724662604
O   O5        1.0  0.77918  0.33339  0.79218  1.0000 -0.5961235028
O   O6        1.0  0.67155  0.46465  0.72793  1.0000 -0.6218015315
O   O7        1.0  0.65163  0.45982  0.64054  1.0000 -0.4236592314
O   O8        1.0  0.71406  0.16526  0.72948  1.0000 -0.6099611185
O   O9        1.0  0.76685  0.03431  0.84706  1.0000 -0.635374274
O   O10       1.0  0.82864  0.03874  0.89694  1.0000 -0.3935733747
O   O11       1.0  0.65182  0.42203  0.90296  1.0000 -0.6284067295
O   O12       1.0  0.48969  0.33238  0.19836  1.0000 -0.6099611185
O   O13       1.0  0.36764  0.42987  0.22004  1.0000 -0.5593830111
O   O14       1.0  0.59933  0.07776  0.85152  1.0000 -0.6284067295
O   O15       1.0  0.70101  0.83878  0.99920  1.0000 -0.6099611185
O   O16       1.0  0.72267  0.93009  0.87390  1.0000 -0.5593830111
O   O17       1.0  0.82167  0.76271  0.50937  1.0000 -0.5785643718
O   O18       1.0  0.80772  0.84929  0.39063  1.0000 -0.5785643718
O   O19       1.0  0.73903  0.69473  0.98553  1.0000 -0.5593830111
O   O20       1.0  0.66737  0.68138  0.11389  1.0000 -0.5724662604
O   O21       1.0  0.79218  0.77918  0.33339  1.0000 -0.5961235028
O   O22       1.0  0.72793  0.67155  0.46465  1.0000 -0.6218015315
O   O23       1.0  0.64054  0.65163  0.45982  1.0000 -0.4236592314
O   O24       1.0  0.72948  0.71406  0.16526  1.0000 -0.6099611185
O   O25       1.0  0.84706  0.76685  0.03431  1.0000 -0.635374274
O   O26       1.0  0.89694  0.82864  0.03874  1.0000 -0.3935733747
O   O27       1.0  0.90296  0.65182  0.42203  1.0000 -0.6284067295
O   O28       1.0  0.19836  0.48969  0.33238  1.0000 -0.6099611185
O   O29       1.0  0.22004  0.36764  0.42987  1.0000 -0.5593830111
O   O30       1.0  0.85152  0.59933  0.07776  1.0000 -0.6284067295
O   O31       1.0  0.99920  0.70101  0.83878  1.0000 -0.6099611185
O   O32       1.0  0.87390  0.72267  0.93009  1.0000 -0.5593830111
O   O33       1.0  0.50937  0.82167  0.76271  1.0000 -0.5785643718
O   O34       1.0  0.39063  0.80772  0.84929  1.0000 -0.5785643718
O   O35       1.0  0.98553  0.73903  0.69473  1.0000 -0.5593830111
O   O36       1.0  0.11389  0.66737  0.68138  1.0000 -0.5724662604
O   O37       1.0  0.33339  0.79218  0.77918  1.0000 -0.5961235028
O   O38       1.0  0.46465  0.72793  0.67155  1.0000 -0.6218015315
O   O39       1.0  0.45982  0.64054  0.65163  1.0000 -0.4236592314
O   O40       1.0  0.16526  0.72948  0.71406  1.0000 -0.6099611185
O   O41       1.0  0.03431  0.84706  0.76685  1.0000 -0.635374274
O   O42       1.0  0.03874  0.89694  0.82864  1.0000 -0.3935733747
O   O43       1.0  0.42203  0.90296  0.65182  1.0000 -0.6284067295
O   O44       1.0  0.33238  0.19836  0.48969  1.0000 -0.6099611185
O   O45       1.0  0.42987  0.22004  0.36764  1.0000 -0.5593830111
O   O46       1.0  0.07776  0.85152  0.59933  1.0000 -0.6284067295
O   O47       1.0  0.83878  0.99920  0.70101  1.0000 -0.6099611185
O   O48       1.0  0.93009  0.87390  0.72267  1.0000 -0.5593830111
O   O49       1.0  0.23729  0.49063  0.17833  1.0000 -0.5785643718
O   O50       1.0  0.15071  0.60937  0.19228  1.0000 -0.5785643718
O   O51       1.0  0.30527  0.01447  0.26097  1.0000 -0.5593830111
O   O52       1.0  0.31862  0.88611  0.33263  1.0000 -0.5724662604
O   O53       1.0  0.22082  0.66667  0.20782  1.0000 -0.5961235028
O   O54       1.0  0.32845  0.53535  0.27207  1.0000 -0.6218015315
O   O55       1.0  0.34837  0.54018  0.35946  1.0000 -0.4236592314
O   O56       1.0  0.28594  0.83474  0.27052  1.0000 -0.6099611185
O   O57       1.0  0.23315  0.96569  0.15294  1.0000 -0.635374274
O   O58       1.0  0.17136  0.96126  0.10306  1.0000 -0.3935733747
O   O59       1.0  0.34818  0.57797  0.09704  1.0000 -0.6284067295
O   O60       1.0  0.51031  0.66762  0.80164  1.0000 -0.6099611185
O   O61       1.0  0.63236  0.57013  0.77996  1.0000 -0.5593830111
O   O62       1.0  0.40067  0.92224  0.14848  1.0000 -0.6284067295
O   O63       1.0  0.29899  0.16122  0.00080  1.0000 -0.6099611185
O   O64       1.0  0.27733  0.06991  0.12610  1.0000 -0.5593830111
O   O65       1.0  0.17833  0.23729  0.49063  1.0000 -0.5785643718
O   O66       1.0  0.19228  0.15071  0.60937  1.0000 -0.5785643718
O   O67       1.0  0.26097  0.30527  0.01447  1.0000 -0.5593830111
O   O68       1.0  0.33263  0.31862  0.88611  1.0000 -0.5724662604
O   O69       1.0  0.20782  0.22082  0.66667  1.0000 -0.5961235028
O   O70       1.0  0.27207  0.32845  0.53535  1.0000 -0.6218015315
O   O71       1.0  0.35946  0.34837  0.54018  1.0000 -0.4236592314
O   O72       1.0  0.27052  0.28594  0.83474  1.0000 -0.6099611185
O   O73       1.0  0.15294  0.23315  0.96569  1.0000 -0.635374274
O   O74       1.0  0.10306  0.17136  0.96126  1.0000 -0.3935733747
O   O75       1.0  0.09704  0.34818  0.57797  1.0000 -0.6284067295
O   O76       1.0  0.80164  0.51031  0.66762  1.0000 -0.6099611185
O   O77       1.0  0.77996  0.63236  0.57013  1.0000 -0.5593830111
O   O78       1.0  0.14848  0.40067  0.92224  1.0000 -0.6284067295
O   O79       1.0  0.00080  0.29899  0.16122  1.0000 -0.6099611185
O   O80       1.0  0.12610  0.27733  0.06991  1.0000 -0.5593830111
O   O81       1.0  0.49063  0.17833  0.23729  1.0000 -0.5785643718
O   O82       1.0  0.60937  0.19228  0.15071  1.0000 -0.5785643718
O   O83       1.0  0.01447  0.26097  0.30527  1.0000 -0.5593830111
O   O84       1.0  0.88611  0.33263  0.31862  1.0000 -0.5724662604
O   O85       1.0  0.66667  0.20782  0.22082  1.0000 -0.5961235028
O   O86       1.0  0.53535  0.27207  0.32845  1.0000 -0.6218015315
O   O87       1.0  0.54018  0.35946  0.34837  1.0000 -0.4236592314
O   O88       1.0  0.83474  0.27052  0.28594  1.0000 -0.6099611185
O   O89       1.0  0.96569  0.15294  0.23315  1.0000 -0.635374274
O   O90       1.0  0.96126  0.10306  0.17136  1.0000 -0.3935733747
O   O91       1.0  0.57797  0.09704  0.34818  1.0000 -0.6284067295
O   O92       1.0  0.66762  0.80164  0.51031  1.0000 -0.6099611185
O   O93       1.0  0.57013  0.77996  0.63236  1.0000 -0.5593830111
O   O94       1.0  0.92224  0.14848  0.40067  1.0000 -0.6284067295
O   O95       1.0  0.16122  0.00080  0.29899  1.0000 -0.6099611185
O   O96       1.0  0.06991  0.12610  0.27733  1.0000 -0.5593830111
