# DDEC6 charges by PACMAN v1.1 (https://github.com/mtap-research/PACMAN-charge/)
data_2017[Cu][ths]3[FSR]10
_chemical_formula_sum              "Cu8 C24 O48"
_cell_length_a       8.8737
_cell_length_b       33.6507
_cell_length_c       8.8839
_cell_angle_alpha    90
_cell_angle_beta     108.061
_cell_angle_gamma    90

_symmetry_space_group_name_H-M    "P 1"
_symmetry_Int_Tables_number       1

loop_
  _symmetry_equiv_pos_as_xyz
  'x, y, z'

loop_
  _atom_site_type_symbol
  _atom_site_label
  _atom_site_symmetry_multiplicity
  _atom_site_fract_x
  _atom_site_fract_y
  _atom_site_fract_z
  _atom_site_occupancy
  _atom_site_charge
Cu  Cu1       1.0  0.49038  0.79560  0.25870  1.0000 0.9119492996
Cu  Cu2       1.0  0.00962  0.29560  0.74130  1.0000 0.9119492996
Cu  Cu3       1.0  0.50962  0.20440  0.74130  1.0000 0.9119492996
Cu  Cu4       1.0  0.99038  0.70440  0.25870  1.0000 0.9119492996
Cu  Cu5       1.0  0.49595  0.95457  0.25668  1.0000 0.9119492996
Cu  Cu6       1.0  0.00405  0.45457  0.74332  1.0000 0.9119492996
Cu  Cu7       1.0  0.50405  0.04543  0.74332  1.0000 0.9119492996
Cu  Cu8       1.0  0.99595  0.54543  0.25668  1.0000 0.9119492996
C   C1        1.0  0.42120  0.87595  0.18440  1.0000 0.5684693514
C   C2        1.0  0.07880  0.37595  0.81560  1.0000 0.5684693514
C   C3        1.0  0.57880  0.12405  0.81560  1.0000 0.5684693514
C   C4        1.0  0.92120  0.62405  0.18440  1.0000 0.5684693514
C   C5        1.0  0.57160  0.87388  0.33260  1.0000 0.5684693514
C   C6        1.0  0.92840  0.37388  0.66740  1.0000 0.5684693514
C   C7        1.0  0.42840  0.12612  0.66740  1.0000 0.5684693514
C   C8        1.0  0.07160  0.62612  0.33260  1.0000 0.5684693514
C   C9        1.0  0.24780  0.74087  0.18980  1.0000 0.5601225141
C   C10       1.0  0.25220  0.24087  0.81020  1.0000 0.5601225141
C   C11       1.0  0.75220  0.25913  0.81020  1.0000 0.5601225141
C   C12       1.0  0.74780  0.75913  0.18980  1.0000 0.5601225141
C   C13       1.0  0.23640  0.76264  0.34000  1.0000 0.5519336615
C   C14       1.0  0.26360  0.26264  0.66000  1.0000 0.5519336615
C   C15       1.0  0.76360  0.23736  0.66000  1.0000 0.5519336615
C   C16       1.0  0.73640  0.73736  0.34000  1.0000 0.5519336615
C   C17       1.0  0.57650  0.98909  0.99860  1.0000 0.5684693514
C   C18       1.0  0.92350  0.48909  0.00140  1.0000 0.5601225141
C   C19       1.0  0.42350  0.01091  0.00140  1.0000 0.5684693514
C   C20       1.0  0.07650  0.51091  0.99860  1.0000 0.5684693514
C   C21       1.0  0.42780  0.98884  0.51060  1.0000 0.5407044146
C   C22       1.0  0.07220  0.48884  0.48940  1.0000 0.5407044146
C   C23       1.0  0.57220  0.01116  0.48940  1.0000 0.5407044146
C   C24       1.0  0.92780  0.51116  0.51060  1.0000 0.5407044146
O   O1        1.0  0.36781  0.84441  0.12037  1.0000 -0.4210691001
O   O2        1.0  0.13219  0.34441  0.87963  1.0000 -0.4210691001
O   O3        1.0  0.63219  0.15559  0.87963  1.0000 -0.4210691001
O   O4        1.0  0.86781  0.65559  0.12037  1.0000 -0.4210691001
O   O5        1.0  0.36584  0.90962  0.14197  1.0000 -0.4290521458
O   O6        1.0  0.13416  0.40962  0.85803  1.0000 -0.4290521458
O   O7        1.0  0.63416  0.09038  0.85803  1.0000 -0.4290521458
O   O8        1.0  0.86584  0.59038  0.14197  1.0000 -0.4290521458
O   O9        1.0  0.61308  0.84026  0.38670  1.0000 -0.4290521458
O   O10       1.0  0.88692  0.34026  0.61330  1.0000 -0.4290521458
O   O11       1.0  0.38692  0.15974  0.61330  1.0000 -0.4290521458
O   O12       1.0  0.11308  0.65974  0.38670  1.0000 -0.4290521458
O   O13       1.0  0.63700  0.90552  0.38410  1.0000 -0.4210691001
O   O14       1.0  0.86300  0.40552  0.61590  1.0000 -0.4210691001
O   O15       1.0  0.36300  0.09448  0.61590  1.0000 -0.4210691001
O   O16       1.0  0.13700  0.59448  0.38410  1.0000 -0.4210691001
O   O17       1.0  0.32832  0.79152  0.38646  1.0000 -0.4479787611
O   O18       1.0  0.17168  0.29152  0.61354  1.0000 -0.4479787611
O   O19       1.0  0.67168  0.20848  0.61354  1.0000 -0.4479787611
O   O20       1.0  0.82832  0.70848  0.38646  1.0000 -0.4479787611
O   O21       1.0  0.14080  0.75064  0.40480  1.0000 -0.4210691001
O   O22       1.0  0.35920  0.25064  0.59520  1.0000 -0.4210691001
O   O23       1.0  0.85920  0.24936  0.59520  1.0000 -0.4210691001
O   O24       1.0  0.64080  0.74936  0.40480  1.0000 -0.4210691001
O   O25       1.0  0.34810  0.75362  0.13150  1.0000 -0.4408819075
O   O26       1.0  0.15190  0.25362  0.86850  1.0000 -0.4408819075
O   O27       1.0  0.65190  0.24638  0.86850  1.0000 -0.4408819075
O   O28       1.0  0.84810  0.74638  0.13150  1.0000 -0.4408819075
O   O29       1.0  0.15540  0.71288  0.14040  1.0000 -0.4290521458
O   O30       1.0  0.34460  0.21288  0.85960  1.0000 -0.4290521458
O   O31       1.0  0.84460  0.28712  0.85960  1.0000 -0.4290521458
O   O32       1.0  0.65540  0.78712  0.14040  1.0000 -0.4290521458
O   O33       1.0  0.61758  0.95998  0.09010  1.0000 -0.4479787611
O   O34       1.0  0.88242  0.45998  0.90990  1.0000 -0.4408819075
O   O35       1.0  0.38242  0.04002  0.90990  1.0000 -0.4479787611
O   O36       1.0  0.11758  0.54002  0.09010  1.0000 -0.4479787611
O   O37       1.0  0.64740  0.00149  0.90920  1.0000 -0.4210691001
O   O38       1.0  0.85260  0.50149  0.09080  1.0000 -0.4210691001
O   O39       1.0  0.35260  0.99851  0.09080  1.0000 -0.4210691001
O   O40       1.0  0.14740  0.49851  0.90920  1.0000 -0.4210691001
O   O41       1.0  0.37474  0.96049  0.42120  1.0000 -0.4290521458
O   O42       1.0  0.12526  0.46049  0.57880  1.0000 -0.4290521458
O   O43       1.0  0.62526  0.03951  0.57880  1.0000 -0.4290521458
O   O44       1.0  0.87474  0.53951  0.42120  1.0000 -0.4290521458
O   O45       1.0  0.37480  0.00157  0.61620  1.0000 -0.4408819075
O   O46       1.0  0.12520  0.50157  0.38380  1.0000 -0.4479787611
O   O47       1.0  0.62520  0.99843  0.38380  1.0000 -0.4479787611
O   O48       1.0  0.87480  0.49843  0.61620  1.0000 -0.4408819075
