# DDEC6 charges by PACMAN v1.1 (https://github.com/mtap-research/PACMAN-charge/)
data_2017[Er][nan]2[FSR]1
_chemical_formula_sum              "Er4 H24 C68 O36"
_cell_length_a       13.8851
_cell_length_b       13.8851
_cell_length_c       21.938
_cell_angle_alpha    64.6153
_cell_angle_beta     115.385
_cell_angle_gamma    145.876

_symmetry_space_group_name_H-M    "P 1"
_symmetry_Int_Tables_number       1

loop_
  _symmetry_equiv_pos_as_xyz
  'x, y, z'

loop_
  _atom_site_type_symbol
  _atom_site_label
  _atom_site_symmetry_multiplicity
  _atom_site_fract_x
  _atom_site_fract_y
  _atom_site_fract_z
  _atom_site_occupancy
  _atom_site_charge
Er  Er1       1.0  0.31282  0.82166  0.96440  1.0000 2.1005148417
Er  Er2       1.0  0.82166  0.31282  0.03560  1.0000 2.1005148417
Er  Er3       1.0  0.52870  0.03242  0.52657  1.0000 2.1005148417
Er  Er4       1.0  0.03242  0.52870  0.47343  1.0000 2.1005148417
H   H1        1.0  0.76820  0.65060  0.95710  1.0000 0.1312183625
H   H2        1.0  0.21460  0.40340  0.94790  1.0000 0.1486979271
H   H3        1.0  0.61990  0.91450  0.89090  1.0000 0.1486979271
H   H4        1.0  0.09500  0.16880  0.92510  1.0000 0.1214566307
H   H5        1.0  0.10340  0.04080  0.78240  1.0000 0.1312183625
H   H6        1.0  0.98750  0.06730  0.81360  1.0000 0.1214566307
H   H7        1.0  0.65060  0.76820  0.04290  1.0000 0.1312183625
H   H8        1.0  0.40340  0.21460  0.05210  1.0000 0.1486979271
H   H9        1.0  0.91450  0.61990  0.10910  1.0000 0.1486979271
H   H10       1.0  0.16880  0.09500  0.07490  1.0000 0.1214566307
H   H11       1.0  0.04080  0.10340  0.21760  1.0000 0.1312183625
H   H12       1.0  0.06730  0.98750  0.18640  1.0000 0.1214566307
H   H13       1.0  0.60730  0.42950  0.55060  1.0000 0.1486979271
H   H14       1.0  0.19630  0.93370  0.60540  1.0000 0.1486979271
H   H15       1.0  0.70920  0.64780  0.58000  1.0000 0.1214566307
H   H16       1.0  0.78290  0.72850  0.68330  1.0000 0.1312183625
H   H17       1.0  0.06080  0.18960  0.56360  1.0000 0.1312183625
H   H18       1.0  0.66390  0.75030  0.71540  1.0000 0.1312183625
H   H19       1.0  0.42950  0.60730  0.44940  1.0000 0.1486979271
H   H20       1.0  0.93370  0.19630  0.39460  1.0000 0.1486979271
H   H21       1.0  0.64780  0.70920  0.42000  1.0000 0.1214566307
H   H22       1.0  0.72850  0.78290  0.31670  1.0000 0.1312183625
H   H23       1.0  0.18960  0.06080  0.43640  1.0000 0.1312183625
H   H24       1.0  0.75030  0.66390  0.28460  1.0000 0.1312183625
C   C1        1.0  0.07221  0.44659  0.95890  1.0000 0.6463307665
C   C2        1.0  0.68687  0.13873  0.91355  1.0000 0.6463307665
C   C3        1.0  0.98807  0.29893  0.93472  1.0000 0.015780129
C   C4        1.0  0.83818  0.73122  0.92288  1.0000 -0.0836571789
C   C5        1.0  0.09490  0.30490  0.93708  1.0000 -0.1004611401
C   C6        1.0  0.73915  0.01245  0.90281  1.0000 -0.0646177777
C   C7        1.0  0.89248  0.58592  0.94791  1.0000 0.6169682718
C   C8        1.0  0.91822  0.72238  0.90706  1.0000 -0.0374009018
C   C9        1.0  0.02288  0.16392  0.92334  1.0000 -0.1055942276
C   C10       1.0  0.86247  0.85933  0.88778  1.0000 -0.0108639891
C   C11       1.0  0.01581  0.83679  0.85355  1.0000 0.0054551988
C   C12       1.0  0.03874  0.96406  0.81836  1.0000 -0.1004611401
C   C13       1.0  0.96653  0.97807  0.83619  1.0000 -0.0907756598
C   C14       1.0  0.76084  0.85196  0.90282  1.0000 0.3592984802
C   C15       1.0  0.08158  0.81322  0.82889  1.0000 0.6089404798
C   C16       1.0  0.80789  0.15251  0.91602  1.0000 -0.0473619686
C   C17       1.0  0.84515  0.01625  0.90709  1.0000 -0.0026899902
C   C18       1.0  0.44659  0.07221  0.04110  1.0000 0.6463307665
C   C19       1.0  0.13873  0.68687  0.08645  1.0000 0.6463307665
C   C20       1.0  0.29893  0.98807  0.06528  1.0000 0.015780129
C   C21       1.0  0.73122  0.83818  0.07712  1.0000 -0.0836571789
C   C22       1.0  0.30490  0.09490  0.06292  1.0000 -0.1004611401
C   C23       1.0  0.01245  0.73915  0.09719  1.0000 -0.0646177777
C   C24       1.0  0.58592  0.89248  0.05209  1.0000 0.6169682718
C   C25       1.0  0.72238  0.91822  0.09294  1.0000 -0.0374009018
C   C26       1.0  0.16392  0.02288  0.07666  1.0000 -0.1055942276
C   C27       1.0  0.85933  0.86247  0.11222  1.0000 -0.0108639891
C   C28       1.0  0.83679  0.01581  0.14645  1.0000 0.0054551988
C   C29       1.0  0.96406  0.03874  0.18164  1.0000 -0.1004611401
C   C30       1.0  0.97807  0.96653  0.16381  1.0000 -0.0907756598
C   C31       1.0  0.85196  0.76084  0.09718  1.0000 0.3592984802
C   C32       1.0  0.81322  0.08158  0.17111  1.0000 0.6089404798
C   C33       1.0  0.15251  0.80789  0.08398  1.0000 -0.0473619686
C   C34       1.0  0.01625  0.84515  0.09291  1.0000 -0.0026899902
C   C35       1.0  0.76505  0.41375  0.53011  1.0000 0.6463307665
C   C36       1.0  0.84142  0.55298  0.55798  1.0000 0.0054551988
C   C37       1.0  0.01999  0.70381  0.57561  1.0000 -0.0374009018
C   C38       1.0  0.72609  0.53191  0.56080  1.0000 -0.0907756598
C   C39       1.0  0.15356  0.73684  0.57425  1.0000 0.6426123804
C   C40       1.0  0.07787  0.83273  0.59364  1.0000 -0.0836571789
C   C41       1.0  0.78686  0.66234  0.57860  1.0000 -0.1055942276
C   C42       1.0  0.96388  0.81412  0.59440  1.0000 0.0054551988
C   C43       1.0  0.04196  0.97064  0.60520  1.0000 0.3592984802
C   C44       1.0  0.93660  0.95780  0.62069  1.0000 -0.0108639891
C   C45       1.0  0.81447  0.82493  0.66540  1.0000 -0.1004611401
C   C46       1.0  0.97729  0.09851  0.59268  1.0000 -0.0836571789
C   C47       1.0  0.73983  0.83637  0.68322  1.0000 -0.0907756598
C   C48       1.0  0.89381  0.10399  0.60791  1.0000 -0.0333499597
C   C49       1.0  0.77551  0.97349  0.65418  1.0000 -0.0026899902
C   C50       1.0  0.94536  0.25884  0.57217  1.0000 0.6169682718
C   C51       1.0  0.69015  0.97585  0.67936  1.0000 0.6089404798
C   C52       1.0  0.41375  0.76505  0.46989  1.0000 0.6463307665
C   C53       1.0  0.55298  0.84142  0.44202  1.0000 0.0054551988
C   C54       1.0  0.70381  0.01999  0.42439  1.0000 -0.0374009018
C   C55       1.0  0.53191  0.72609  0.43920  1.0000 -0.0907756598
C   C56       1.0  0.73684  0.15356  0.42575  1.0000 0.6426123804
C   C57       1.0  0.83273  0.07787  0.40636  1.0000 -0.0836571789
C   C58       1.0  0.66234  0.78686  0.42140  1.0000 -0.1055942276
C   C59       1.0  0.81412  0.96388  0.40560  1.0000 0.0054551988
C   C60       1.0  0.97064  0.04196  0.39480  1.0000 0.3592984802
C   C61       1.0  0.95780  0.93660  0.37931  1.0000 -0.0108639891
C   C62       1.0  0.82493  0.81447  0.33460  1.0000 -0.1004611401
C   C63       1.0  0.09851  0.97729  0.40732  1.0000 -0.0836571789
C   C64       1.0  0.83637  0.73983  0.31678  1.0000 -0.0907756598
C   C65       1.0  0.10399  0.89381  0.39209  1.0000 -0.0333499597
C   C66       1.0  0.97349  0.77551  0.34582  1.0000 -0.0026899902
C   C67       1.0  0.25884  0.94536  0.42783  1.0000 0.6169682718
C   C68       1.0  0.97585  0.69015  0.32064  1.0000 0.6089404798
O   O1        1.0  0.01289  0.61491  0.95885  1.0000 -0.717153179
O   O2        1.0  0.75024  0.26476  0.92635  1.0000 -0.5937319272
O   O3        1.0  0.16592  0.59008  0.92154  1.0000 -0.5590906464
O   O4        1.0  0.52632  0.99888  0.89971  1.0000 -0.6001174324
O   O5        1.0  0.22666  0.88254  0.85649  1.0000 -0.6139758461
O   O6        1.0  0.75362  0.44438  0.97172  1.0000 -0.5590906464
O   O7        1.0  0.04841  0.41539  0.01767  1.0000 -0.6702416861
O   O8        1.0  0.61306  0.71394  0.91373  1.0000 -0.3620632761
O   O9        1.0  0.98830  0.72930  0.78113  1.0000 -0.459870013
O   O10       1.0  0.61491  0.01289  0.04115  1.0000 -0.717153179
O   O11       1.0  0.26476  0.75024  0.07365  1.0000 -0.5937319272
O   O12       1.0  0.59008  0.16592  0.07846  1.0000 -0.5590906464
O   O13       1.0  0.99888  0.52632  0.10029  1.0000 -0.6001174324
O   O14       1.0  0.88254  0.22666  0.14351  1.0000 -0.6139758461
O   O15       1.0  0.44438  0.75362  0.02828  1.0000 -0.5590906464
O   O16       1.0  0.41539  0.04841  0.98233  1.0000 -0.6702416861
O   O17       1.0  0.71394  0.61306  0.08627  1.0000 -0.3620632761
O   O18       1.0  0.72930  0.98830  0.21887  1.0000 -0.459870013
O   O19       1.0  0.30855  0.89105  0.57549  1.0000 -0.6001174324
O   O20       1.0  0.58660  0.96660  0.63841  1.0000 -0.6139758461
O   O21       1.0  0.65056  0.26124  0.56006  1.0000 -0.5771168047
O   O22       1.0  0.45652  0.81468  0.52286  1.0000 -0.6702416861
O   O23       1.0  0.40158  0.09782  0.43934  1.0000 -0.5449745529
O   O24       1.0  0.24260  0.83140  0.44946  1.0000 -0.7266313308
O   O25       1.0  0.61275  0.10525  0.42866  1.0000 -0.6139758461
O   O26       1.0  0.19446  0.11214  0.59960  1.0000 -0.374366703
O   O27       1.0  0.72515  0.98245  0.74012  1.0000 -0.459870013
O   O28       1.0  0.89105  0.30855  0.42451  1.0000 -0.6001174324
O   O29       1.0  0.96660  0.58660  0.36159  1.0000 -0.6139758461
O   O30       1.0  0.26124  0.65056  0.43994  1.0000 -0.5771168047
O   O31       1.0  0.81468  0.45652  0.47714  1.0000 -0.6702416861
O   O32       1.0  0.09782  0.40158  0.56066  1.0000 -0.5449745529
O   O33       1.0  0.83140  0.24260  0.55054  1.0000 -0.7266313308
O   O34       1.0  0.10525  0.61275  0.57134  1.0000 -0.615442323
O   O35       1.0  0.11214  0.19446  0.40040  1.0000 -0.374366703
O   O36       1.0  0.98245  0.72515  0.25988  1.0000 -0.459870013
