# DDEC6 charges by PACMAN v1.1 (https://github.com/mtap-research/PACMAN-charge/)
data_2017[Co][nan]3[FSR]16
_chemical_formula_sum              "Co6 H16 C28 N12 O12"
_cell_length_a       10.8437
_cell_length_b       10.8437
_cell_length_c       11.034
_cell_angle_alpha    86.3996
_cell_angle_beta     93.6004
_cell_angle_gamma    115.811

_symmetry_space_group_name_H-M    "P 1"
_symmetry_Int_Tables_number       1

loop_
  _symmetry_equiv_pos_as_xyz
  'x, y, z'

loop_
  _atom_site_type_symbol
  _atom_site_label
  _atom_site_symmetry_multiplicity
  _atom_site_fract_x
  _atom_site_fract_y
  _atom_site_fract_z
  _atom_site_occupancy
  _atom_site_charge
Co  Co1       1.0  0.10433  0.10433  0.75000  1.0000 0.9145641978
Co  Co2       1.0  0.89567  0.89567  0.25000  1.0000 0.9145641978
Co  Co3       1.0  0.99448  0.14508  0.00715  1.0000 0.8386679049
Co  Co4       1.0  0.14508  0.99448  0.49285  1.0000 0.8386679049
Co  Co5       1.0  0.00552  0.85492  0.99285  1.0000 0.8386679049
Co  Co6       1.0  0.85492  0.00552  0.50715  1.0000 0.8386679049
H   H1        1.0  0.15050  0.47330  0.60640  1.0000 0.1206747926
H   H2        1.0  0.47330  0.15050  0.89360  1.0000 0.1206747926
H   H3        1.0  0.84950  0.52670  0.39360  1.0000 0.1206747926
H   H4        1.0  0.52670  0.84950  0.10640  1.0000 0.1206747926
H   H5        1.0  0.13940  0.66600  0.51140  1.0000 0.1370001639
H   H6        1.0  0.66600  0.13940  0.98860  1.0000 0.1370001639
H   H7        1.0  0.86060  0.33400  0.48860  1.0000 0.1370001639
H   H8        1.0  0.33400  0.86060  0.01140  1.0000 0.1370001639
H   H9        1.0  0.07630  0.57070  0.93490  1.0000 0.1370001639
H   H10       1.0  0.57070  0.07630  0.56510  1.0000 0.1370001639
H   H11       1.0  0.92370  0.42930  0.06510  1.0000 0.1370001639
H   H12       1.0  0.42930  0.92370  0.43490  1.0000 0.1370001639
H   H13       1.0  0.18530  0.10030  0.96200  1.0000 0.3779884632
H   H14       1.0  0.10030  0.18530  0.53800  1.0000 0.3779884632
H   H15       1.0  0.81470  0.89970  0.03800  1.0000 0.3779884632
H   H16       1.0  0.89970  0.81470  0.46200  1.0000 0.3779884632
C   C1        1.0  0.11980  0.37580  0.83420  1.0000 0.5815336163
C   C2        1.0  0.37580  0.11980  0.66580  1.0000 0.5815336163
C   C3        1.0  0.88020  0.62420  0.16580  1.0000 0.5815336163
C   C4        1.0  0.62420  0.88020  0.33420  1.0000 0.5815336163
C   C5        1.0  0.11700  0.50780  0.77900  1.0000 -0.0102148681
C   C6        1.0  0.50780  0.11700  0.72100  1.0000 -0.0102148681
C   C7        1.0  0.88300  0.49220  0.22100  1.0000 -0.0102148681
C   C8        1.0  0.49220  0.88300  0.27900  1.0000 -0.0102148681
C   C9        1.0  0.13450  0.53530  0.65310  1.0000 -0.1131817756
C   C10       1.0  0.53530  0.13450  0.84690  1.0000 -0.1131817756
C   C11       1.0  0.86550  0.46470  0.34690  1.0000 -0.1131817756
C   C12       1.0  0.46470  0.86550  0.15310  1.0000 -0.1131817756
C   C13       1.0  0.12910  0.64810  0.59650  1.0000 -0.1664300059
C   C14       1.0  0.64810  0.12910  0.90350  1.0000 -0.1664300059
C   C15       1.0  0.87090  0.35190  0.40350  1.0000 -0.1664300059
C   C16       1.0  0.35190  0.87090  0.09650  1.0000 -0.1664300059
C   C17       1.0  0.10780  0.73400  0.66890  1.0000 0.1113331447
C   C18       1.0  0.73400  0.10780  0.83110  1.0000 0.1113331447
C   C19       1.0  0.89220  0.26600  0.33110  1.0000 0.1113331447
C   C20       1.0  0.26600  0.89220  0.16890  1.0000 0.1113331447
C   C21       1.0  0.08760  0.70860  0.79150  1.0000 0.1206747926
C   C22       1.0  0.70860  0.08760  0.70850  1.0000 0.1206747926
C   C23       1.0  0.91240  0.29140  0.20850  1.0000 0.1206747926
C   C24       1.0  0.29140  0.91240  0.29150  1.0000 0.1206747926
C   C25       1.0  0.09110  0.59070  0.85050  1.0000 -0.1645765995
C   C26       1.0  0.59070  0.09110  0.64950  1.0000 -0.1645765995
C   C27       1.0  0.90890  0.40930  0.14950  1.0000 -0.1645765995
C   C28       1.0  0.40930  0.90890  0.35050  1.0000 -0.1645765995
N   N1        1.0  0.09910  0.85330  0.63850  1.0000 -0.2423369233
N   N2        1.0  0.85330  0.09910  0.86150  1.0000 -0.2423369233
N   N3        1.0  0.90090  0.14670  0.36150  1.0000 -0.2423369233
N   N4        1.0  0.14670  0.90090  0.13850  1.0000 -0.2423369233
N   N5        1.0  0.07540  0.89840  0.74000  1.0000 -0.0481005293
N   N6        1.0  0.89840  0.07540  0.76000  1.0000 -0.0481005293
N   N7        1.0  0.92460  0.10160  0.26000  1.0000 -0.0481005293
N   N8        1.0  0.10160  0.92460  0.24000  1.0000 -0.0481005293
N   N9        1.0  0.06770  0.81330  0.83390  1.0000 -0.232404085
N   N10       1.0  0.81330  0.06770  0.66610  1.0000 -0.232404085
N   N11       1.0  0.93230  0.18670  0.16610  1.0000 -0.232404085
N   N12       1.0  0.18670  0.93230  0.33390  1.0000 -0.232404085
O   O1        1.0  0.10680  0.06600  0.93240  1.0000 -0.8069019858
O   O2        1.0  0.06600  0.10680  0.56760  1.0000 -0.8069019858
O   O3        1.0  0.89320  0.93400  0.06760  1.0000 -0.8069019858
O   O4        1.0  0.93400  0.89320  0.43240  1.0000 -0.8069019858
O   O5        1.0  0.15510  0.31050  0.76650  1.0000 -0.5392432754
O   O6        1.0  0.31050  0.15510  0.73350  1.0000 -0.5392432754
O   O7        1.0  0.84490  0.68950  0.23350  1.0000 -0.5392432754
O   O8        1.0  0.68950  0.84490  0.26650  1.0000 -0.5392432754
O   O9        1.0  0.08350  0.34410  0.94300  1.0000 -0.5587650929
O   O10       1.0  0.34410  0.08350  0.55700  1.0000 -0.5587650929
O   O11       1.0  0.91650  0.65590  0.05700  1.0000 -0.5587650929
O   O12       1.0  0.65590  0.91650  0.44300  1.0000 -0.5587650929
