# DDEC6 charges by PACMAN v1.1 (https://github.com/mtap-research/PACMAN-charge/)
data_2017[Cd][sql]2[FSR]7
_chemical_formula_sum              "Cd2 H32 C46 N4 O12"
_cell_length_a       10.2818
_cell_length_b       10.53
_cell_length_c       14.1216
_cell_angle_alpha    81.299
_cell_angle_beta     74.815
_cell_angle_gamma    72.465

_symmetry_space_group_name_H-M    "P 1"
_symmetry_Int_Tables_number       1

loop_
  _symmetry_equiv_pos_as_xyz
  'x, y, z'

loop_
  _atom_site_type_symbol
  _atom_site_label
  _atom_site_symmetry_multiplicity
  _atom_site_fract_x
  _atom_site_fract_y
  _atom_site_fract_z
  _atom_site_occupancy
  _atom_site_charge
Cd  Cd1       1.0  0.40812  0.91060  0.43206  1.0000 0.8614712308
Cd  Cd2       1.0  0.59188  0.08940  0.56794  1.0000 0.8614712308
H   H1        1.0  0.99700  0.72700  0.98600  1.0000 0.3533110718
H   H2        1.0  0.28370  0.23310  0.38230  1.0000 0.1098705096
H   H3        1.0  0.26100  0.39170  0.25470  1.0000 0.1384109984
H   H4        1.0  0.50830  0.11360  0.07150  1.0000 0.1384109984
H   H5        1.0  0.52260  0.96340  0.20440  1.0000 0.1098705096
H   H6        1.0  0.30940  0.46080  0.08140  1.0000 0.1204350045
H   H7        1.0  0.47800  0.27430  0.95090  1.0000 0.1098705096
H   H8        1.0  0.34890  0.55030  0.91140  1.0000 0.1098705096
H   H9        1.0  0.51870  0.36450  0.78040  1.0000 0.1384109984
H   H10       1.0  0.30230  0.70470  0.79360  1.0000 0.1339060615
H   H11       1.0  0.28630  0.85890  0.66340  1.0000 0.1098705096
H   H12       1.0  0.57920  0.61460  0.48740  1.0000 0.1098705096
H   H13       1.0  0.59730  0.44910  0.61110  1.0000 0.1384109984
H   H14       1.0  0.92930  0.90230  0.43120  1.0000 0.1384109984
H   H15       1.0  0.82960  0.80330  0.19980  1.0000 0.1204350045
H   H16       1.0  0.22890  0.78900  0.18750  1.0000 0.1204350045
H   H17       1.0  0.00300  0.27300  0.01400  1.0000 0.3533110718
H   H18       1.0  0.71630  0.76690  0.61770  1.0000 0.1098705096
H   H19       1.0  0.73900  0.60830  0.74530  1.0000 0.1384109984
H   H20       1.0  0.49170  0.88640  0.92850  1.0000 0.1384109984
H   H21       1.0  0.47740  0.03660  0.79560  1.0000 0.1098705096
H   H22       1.0  0.69060  0.53920  0.91860  1.0000 0.1204350045
H   H23       1.0  0.52200  0.72570  0.04910  1.0000 0.1098705096
H   H24       1.0  0.65110  0.44970  0.08860  1.0000 0.1098705096
H   H25       1.0  0.48130  0.63550  0.21960  1.0000 0.1384109984
H   H26       1.0  0.69770  0.29530  0.20640  1.0000 0.1339060615
H   H27       1.0  0.71370  0.14110  0.33660  1.0000 0.1098705096
H   H28       1.0  0.42080  0.38540  0.51260  1.0000 0.1098705096
H   H29       1.0  0.40270  0.55090  0.38890  1.0000 0.1384109984
H   H30       1.0  0.07070  0.09770  0.56880  1.0000 0.1384109984
H   H31       1.0  0.17040  0.19670  0.80020  1.0000 0.1204350045
H   H32       1.0  0.77110  0.21100  0.81250  1.0000 0.1204350045
C   C1        1.0  0.32940  0.20830  0.31814  1.0000 0.0839008193
C   C2        1.0  0.31540  0.30410  0.24192  1.0000 -0.1967913558
C   C3        1.0  0.38070  0.27360  0.14573  1.0000 0.1617018382
C   C4        1.0  0.46020  0.14110  0.13462  1.0000 -0.1923112398
C   C5        1.0  0.46840  0.05180  0.21466  1.0000 0.0709124804
C   C6        1.0  0.36560  0.37500  0.06496  1.0000 -0.1603916039
C   C7        1.0  0.42280  0.35970  0.96922  1.0000 -0.0722869908
C   C8        1.0  0.40530  0.46520  0.89322  1.0000 -0.0722869908
C   C9        1.0  0.46400  0.45040  0.79783  1.0000 -0.1603916039
C   C10       1.0  0.45060  0.55560  0.71890  1.0000 0.1617018382
C   C11       1.0  0.35880  0.68260  0.73112  1.0000 -0.1923112398
C   C12       1.0  0.35080  0.77460  0.65296  1.0000 0.0709124804
C   C13       1.0  0.52040  0.63200  0.55005  1.0000 0.0709124804
C   C14       1.0  0.53310  0.53290  0.62395  1.0000 -0.1967913558
C   C15       1.0  0.20550  0.86060  0.36463  1.0000 0.5384100924
C   C16       1.0  0.70790  0.86720  0.38163  1.0000 0.5549287449
C   C17       1.0  0.07700  0.75950  0.07185  1.0000 0.5384100924
C   C18       1.0  0.09634  0.84560  0.31744  1.0000 -0.0054633289
C   C19       1.0  0.95671  0.87120  0.36799  1.0000 -0.1130476494
C   C20       1.0  0.85755  0.85110  0.32594  1.0000 -0.0256469318
C   C21       1.0  0.89700  0.81450  0.22937  1.0000 -0.1362906968
C   C22       1.0  0.03510  0.79450  0.17657  1.0000 -0.0396863346
C   C23       1.0  0.13450  0.80690  0.22182  1.0000 -0.1159466703
C   C24       1.0  0.67060  0.79170  0.68186  1.0000 0.0839008193
C   C25       1.0  0.68460  0.69590  0.75808  1.0000 -0.1967913558
C   C26       1.0  0.61930  0.72640  0.85427  1.0000 0.1617018382
C   C27       1.0  0.53980  0.85890  0.86538  1.0000 -0.1923112398
C   C28       1.0  0.53160  0.94820  0.78534  1.0000 0.0709124804
C   C29       1.0  0.63440  0.62500  0.93504  1.0000 -0.1603916039
C   C30       1.0  0.57720  0.64030  0.03078  1.0000 -0.0722869908
C   C31       1.0  0.59470  0.53480  0.10678  1.0000 -0.0722869908
C   C32       1.0  0.53600  0.54960  0.20217  1.0000 -0.1603916039
C   C33       1.0  0.54940  0.44440  0.28110  1.0000 0.1617018382
C   C34       1.0  0.64120  0.31740  0.26888  1.0000 -0.1923112398
C   C35       1.0  0.64920  0.22540  0.34704  1.0000 0.0709124804
C   C36       1.0  0.47960  0.36800  0.44995  1.0000 0.0709124804
C   C37       1.0  0.46690  0.46710  0.37605  1.0000 -0.1967913558
C   C38       1.0  0.79450  0.13940  0.63537  1.0000 0.5384100924
C   C39       1.0  0.29210  0.13280  0.61837  1.0000 0.5549287449
C   C40       1.0  0.92300  0.24050  0.92815  1.0000 0.5384100924
C   C41       1.0  0.90366  0.15440  0.68256  1.0000 -0.0054633289
C   C42       1.0  0.04329  0.12880  0.63201  1.0000 -0.1130476494
C   C43       1.0  0.14245  0.14890  0.67406  1.0000 -0.0256469318
C   C44       1.0  0.10300  0.18550  0.77063  1.0000 -0.1362906968
C   C45       1.0  0.96490  0.20550  0.82343  1.0000 -0.0396863346
C   C46       1.0  0.86550  0.19310  0.77818  1.0000 -0.1159466703
N   N1        1.0  0.40380  0.08206  0.30703  1.0000 -0.2337737133
N   N2        1.0  0.42947  0.75234  0.56151  1.0000 -0.238915508
N   N3        1.0  0.59620  0.91794  0.69297  1.0000 -0.2337737133
N   N4        1.0  0.57053  0.24766  0.43849  1.0000 -0.238915508
O   O1        1.0  0.33160  0.80737  0.32707  1.0000 -0.5580864896
O   O2        1.0  0.16804  0.92549  0.43854  1.0000 -0.5198845019
O   O3        1.0  0.66398  0.92578  0.45944  1.0000 -0.5821890582
O   O4        1.0  0.63415  0.81960  0.34747  1.0000 -0.5306120266
O   O5        1.0  0.97369  0.74880  0.04025  1.0000 -0.4500725021
O   O6        1.0  0.19516  0.74150  0.02364  1.0000 -0.5198845019
O   O7        1.0  0.66840  0.19263  0.67293  1.0000 -0.5580864896
O   O8        1.0  0.83196  0.07451  0.56146  1.0000 -0.5198845019
O   O9        1.0  0.33602  0.07422  0.54056  1.0000 -0.5821890582
O   O10       1.0  0.36585  0.18040  0.65253  1.0000 -0.5306120266
O   O11       1.0  0.02631  0.25120  0.95975  1.0000 -0.4500725021
O   O12       1.0  0.80484  0.25850  0.97636  1.0000 -0.5198845019
