# DDEC6 charges by PACMAN v1.1 (https://github.com/mtap-research/PACMAN-charge/)
data_2017[Co][pcu]2[FSR]11
_chemical_formula_sum              "Co8 H88 C144 N56 O48"
_cell_length_a       10.088
_cell_length_b       19.229
_cell_length_c       20.815
_cell_angle_alpha    90
_cell_angle_beta     90
_cell_angle_gamma    90

_symmetry_space_group_name_H-M    "P 1"
_symmetry_Int_Tables_number       1

loop_
  _symmetry_equiv_pos_as_xyz
  'x, y, z'

loop_
  _atom_site_type_symbol
  _atom_site_label
  _atom_site_symmetry_multiplicity
  _atom_site_fract_x
  _atom_site_fract_y
  _atom_site_fract_z
  _atom_site_occupancy
  _atom_site_charge
Co  Co1       1.0  0.57761  0.05306  0.56263  1.0000 0.8444476851
Co  Co2       1.0  0.57761  0.44694  0.06263  1.0000 0.8444476851
Co  Co3       1.0  0.92239  0.94694  0.06263  1.0000 0.8444476851
Co  Co4       1.0  0.92239  0.55306  0.56263  1.0000 0.8444476851
Co  Co5       1.0  0.42239  0.55306  0.93737  1.0000 0.8444476851
Co  Co6       1.0  0.42239  0.94694  0.43737  1.0000 0.8444476851
Co  Co7       1.0  0.07761  0.44694  0.43737  1.0000 0.8444476851
Co  Co8       1.0  0.07761  0.05306  0.93737  1.0000 0.8444476851
H   H1        1.0  0.04490  0.06350  0.56710  1.0000 0.1212710729
H   H2        1.0  0.27790  0.89890  0.59860  1.0000 0.1319764905
H   H3        1.0  0.88220  0.87880  0.60730  1.0000 0.1319764905
H   H4        1.0  0.42050  0.13040  0.45130  1.0000 0.1319764905
H   H5        1.0  0.42690  0.35230  0.16740  1.0000 0.114328332
H   H6        1.0  0.60940  0.31940  0.36200  1.0000 0.1589951792
H   H7        1.0  0.22140  0.22660  0.29730  1.0000 0.0924294718
H   H8        1.0  0.71710  0.20460  0.55050  1.0000 0.1212710729
H   H9        1.0  0.66820  0.28980  0.46890  1.0000 0.1396888678
H   H10       1.0  0.67670  0.41790  0.30200  1.0000 0.1319764905
H   H11       1.0  0.72450  0.47650  0.20150  1.0000 0.1212710729
H   H12       1.0  0.04490  0.43650  0.06710  1.0000 0.1212710729
H   H13       1.0  0.27790  0.60110  0.09860  1.0000 0.1319764905
H   H14       1.0  0.88220  0.62120  0.10730  1.0000 0.1319764905
H   H15       1.0  0.42050  0.36960  0.95130  1.0000 0.1319764905
H   H16       1.0  0.42690  0.14770  0.66740  1.0000 0.114328332
H   H17       1.0  0.60940  0.18060  0.86200  1.0000 0.1589951792
H   H18       1.0  0.22140  0.27340  0.79730  1.0000 0.0924294718
H   H19       1.0  0.71710  0.29540  0.05050  1.0000 0.1212710729
H   H20       1.0  0.66820  0.21020  0.96890  1.0000 0.1396888678
H   H21       1.0  0.67670  0.08210  0.80200  1.0000 0.1319764905
H   H22       1.0  0.72450  0.02350  0.70150  1.0000 0.1212710729
H   H23       1.0  0.45510  0.93650  0.06710  1.0000 0.1212710729
H   H24       1.0  0.22210  0.10110  0.09860  1.0000 0.1319764905
H   H25       1.0  0.61780  0.12120  0.10730  1.0000 0.1319764905
H   H26       1.0  0.07950  0.86960  0.95130  1.0000 0.1319764905
H   H27       1.0  0.07310  0.64770  0.66740  1.0000 0.114328332
H   H28       1.0  0.89060  0.68060  0.86200  1.0000 0.1589951792
H   H29       1.0  0.27860  0.77340  0.79730  1.0000 0.0924294718
H   H30       1.0  0.78290  0.79540  0.05050  1.0000 0.1212710729
H   H31       1.0  0.83180  0.71020  0.96890  1.0000 0.1396888678
H   H32       1.0  0.82330  0.58210  0.80200  1.0000 0.1319764905
H   H33       1.0  0.77550  0.52350  0.70150  1.0000 0.1212710729
H   H34       1.0  0.45510  0.56350  0.56710  1.0000 0.1212710729
H   H35       1.0  0.22210  0.39890  0.59860  1.0000 0.1319764905
H   H36       1.0  0.61780  0.37880  0.60730  1.0000 0.1319764905
H   H37       1.0  0.07950  0.63040  0.45130  1.0000 0.1319764905
H   H38       1.0  0.07310  0.85230  0.16740  1.0000 0.114328332
H   H39       1.0  0.89060  0.81940  0.36200  1.0000 0.1589951792
H   H40       1.0  0.27860  0.72660  0.29730  1.0000 0.0924294718
H   H41       1.0  0.78290  0.70460  0.55050  1.0000 0.1212710729
H   H42       1.0  0.83180  0.78980  0.46890  1.0000 0.1396888678
H   H43       1.0  0.82330  0.91790  0.30200  1.0000 0.1319764905
H   H44       1.0  0.77550  0.97650  0.20150  1.0000 0.1212710729
H   H45       1.0  0.95510  0.56350  0.93290  1.0000 0.1212710729
H   H46       1.0  0.72210  0.39890  0.90140  1.0000 0.1319764905
H   H47       1.0  0.11780  0.37880  0.89270  1.0000 0.1319764905
H   H48       1.0  0.57950  0.63040  0.04870  1.0000 0.1319764905
H   H49       1.0  0.57310  0.85230  0.33260  1.0000 0.114328332
H   H50       1.0  0.39060  0.81940  0.13800  1.0000 0.1589951792
H   H51       1.0  0.77860  0.72660  0.20270  1.0000 0.0924294718
H   H52       1.0  0.28290  0.70460  0.94950  1.0000 0.1212710729
H   H53       1.0  0.33180  0.78980  0.03110  1.0000 0.1396888678
H   H54       1.0  0.32330  0.91790  0.19800  1.0000 0.1319764905
H   H55       1.0  0.27550  0.97650  0.29850  1.0000 0.1212710729
H   H56       1.0  0.95510  0.93650  0.43290  1.0000 0.1212710729
H   H57       1.0  0.72210  0.10110  0.40140  1.0000 0.1319764905
H   H58       1.0  0.11780  0.12120  0.39270  1.0000 0.1319764905
H   H59       1.0  0.57950  0.86960  0.54870  1.0000 0.1319764905
H   H60       1.0  0.57310  0.64770  0.83260  1.0000 0.114328332
H   H61       1.0  0.39060  0.68060  0.63800  1.0000 0.1589951792
H   H62       1.0  0.77860  0.77340  0.70270  1.0000 0.0924294718
H   H63       1.0  0.28290  0.79540  0.44950  1.0000 0.1212710729
H   H64       1.0  0.33180  0.71020  0.53110  1.0000 0.1396888678
H   H65       1.0  0.32330  0.58210  0.69800  1.0000 0.1319764905
H   H66       1.0  0.27550  0.52350  0.79850  1.0000 0.1212710729
H   H67       1.0  0.54490  0.43650  0.43290  1.0000 0.1212710729
H   H68       1.0  0.77790  0.60110  0.40140  1.0000 0.1319764905
H   H69       1.0  0.38220  0.62120  0.39270  1.0000 0.1319764905
H   H70       1.0  0.92050  0.36960  0.54870  1.0000 0.1319764905
H   H71       1.0  0.92690  0.14770  0.83260  1.0000 0.114328332
H   H72       1.0  0.10940  0.18060  0.63800  1.0000 0.1589951792
H   H73       1.0  0.72140  0.27340  0.70270  1.0000 0.0924294718
H   H74       1.0  0.21710  0.29540  0.44950  1.0000 0.1212710729
H   H75       1.0  0.16820  0.21020  0.53110  1.0000 0.1396888678
H   H76       1.0  0.17670  0.08210  0.69800  1.0000 0.1319764905
H   H77       1.0  0.22450  0.02350  0.79850  1.0000 0.1212710729
H   H78       1.0  0.54490  0.06350  0.93290  1.0000 0.1212710729
H   H79       1.0  0.77790  0.89890  0.90140  1.0000 0.1319764905
H   H80       1.0  0.38220  0.87880  0.89270  1.0000 0.1319764905
H   H81       1.0  0.92050  0.13040  0.04870  1.0000 0.1319764905
H   H82       1.0  0.92690  0.35230  0.33260  1.0000 0.114328332
H   H83       1.0  0.10940  0.31940  0.13800  1.0000 0.1589951792
H   H84       1.0  0.72140  0.22660  0.20270  1.0000 0.0924294718
H   H85       1.0  0.21710  0.20460  0.94950  1.0000 0.1212710729
H   H86       1.0  0.16820  0.28980  0.03110  1.0000 0.1396888678
H   H87       1.0  0.17670  0.41790  0.19800  1.0000 0.1319764905
H   H88       1.0  0.22450  0.47650  0.29850  1.0000 0.1212710729
C   C1        1.0  0.05470  0.01645  0.57638  1.0000 -0.1098231043
C   C2        1.0  0.94280  0.97608  0.58536  1.0000 -0.0040340633
C   C3        1.0  0.29960  0.03370  0.57066  1.0000 0.558581514
C   C4        1.0  0.80950  0.00780  0.57693  1.0000 0.5240719892
C   C5        1.0  0.18090  0.98852  0.58083  1.0000 -0.0124370347
C   C6        1.0  0.08210  0.88080  0.60771  1.0000 0.0648580172
C   C7        1.0  0.19440  0.91924  0.59613  1.0000 -0.1368545203
C   C8        1.0  0.95610  0.90690  0.60122  1.0000 -0.1489233173
C   C9        1.0  0.48820  0.15911  0.46608  1.0000 0.1396888678
C   C10       1.0  0.49520  0.37596  0.18791  1.0000 0.1396888678
C   C11       1.0  0.46490  0.24968  0.38356  1.0000 0.3391479511
C   C12       1.0  0.52980  0.29979  0.34864  1.0000 -0.314512851
C   C13       1.0  0.30120  0.24590  0.31080  1.0000 0.2334247433
C   C14       1.0  0.46850  0.31861  0.29260  1.0000 0.3391479511
C   C15       1.0  0.65070  0.20060  0.51970  1.0000 -0.0326769467
C   C16       1.0  0.62430  0.24781  0.47523  1.0000 -0.0936386123
C   C17       1.0  0.63270  0.41180  0.26314  1.0000 -0.0936386123
C   C18       1.0  0.65800  0.44360  0.20750  1.0000 -0.0237388875
C   C19       1.0  0.05470  0.48355  0.07638  1.0000 -0.1098231043
C   C20       1.0  0.94280  0.52392  0.08536  1.0000 -0.0040340633
C   C21       1.0  0.29960  0.46630  0.07066  1.0000 0.558581514
C   C22       1.0  0.80950  0.49220  0.07693  1.0000 0.5240719892
C   C23       1.0  0.18090  0.51148  0.08083  1.0000 -0.0124370347
C   C24       1.0  0.08210  0.61920  0.10771  1.0000 0.0648580172
C   C25       1.0  0.19440  0.58076  0.09613  1.0000 -0.1368545203
C   C26       1.0  0.95610  0.59310  0.10122  1.0000 -0.1489233173
C   C27       1.0  0.48820  0.34089  0.96608  1.0000 0.1396888678
C   C28       1.0  0.49520  0.12404  0.68791  1.0000 0.1396888678
C   C29       1.0  0.46490  0.25032  0.88356  1.0000 0.3391479511
C   C30       1.0  0.52980  0.20021  0.84864  1.0000 -0.314512851
C   C31       1.0  0.30120  0.25410  0.81080  1.0000 0.2334247433
C   C32       1.0  0.46850  0.18139  0.79260  1.0000 0.3391479511
C   C33       1.0  0.65070  0.29940  0.01970  1.0000 -0.0326769467
C   C34       1.0  0.62430  0.25219  0.97523  1.0000 -0.0936386123
C   C35       1.0  0.63270  0.08820  0.76314  1.0000 -0.0936386123
C   C36       1.0  0.65800  0.05640  0.70750  1.0000 -0.0237388875
C   C37       1.0  0.44530  0.98355  0.07638  1.0000 -0.1098231043
C   C38       1.0  0.55720  0.02392  0.08536  1.0000 -0.0040340633
C   C39       1.0  0.20040  0.96630  0.07066  1.0000 0.558581514
C   C40       1.0  0.69050  0.99220  0.07693  1.0000 0.5240719892
C   C41       1.0  0.31910  0.01148  0.08083  1.0000 -0.0124370347
C   C42       1.0  0.41790  0.11920  0.10771  1.0000 0.0648580172
C   C43       1.0  0.30560  0.08076  0.09613  1.0000 -0.1368545203
C   C44       1.0  0.54390  0.09310  0.10122  1.0000 -0.1489233173
C   C45       1.0  0.01180  0.84089  0.96608  1.0000 0.1396888678
C   C46       1.0  0.00480  0.62404  0.68791  1.0000 0.1396888678
C   C47       1.0  0.03510  0.75032  0.88356  1.0000 0.3391479511
C   C48       1.0  0.97020  0.70021  0.84864  1.0000 -0.314512851
C   C49       1.0  0.19880  0.75410  0.81080  1.0000 0.2334247433
C   C50       1.0  0.03150  0.68139  0.79260  1.0000 0.3391479511
C   C51       1.0  0.84930  0.79940  0.01970  1.0000 -0.0326769467
C   C52       1.0  0.87570  0.75219  0.97523  1.0000 -0.0936386123
C   C53       1.0  0.86730  0.58820  0.76314  1.0000 -0.0936386123
C   C54       1.0  0.84200  0.55640  0.70750  1.0000 -0.0237388875
C   C55       1.0  0.44530  0.51645  0.57638  1.0000 -0.1098231043
C   C56       1.0  0.55720  0.47608  0.58536  1.0000 -0.0040340633
C   C57       1.0  0.20040  0.53370  0.57066  1.0000 0.558581514
C   C58       1.0  0.69050  0.50780  0.57693  1.0000 0.5240719892
C   C59       1.0  0.31910  0.48852  0.58083  1.0000 -0.0124370347
C   C60       1.0  0.41790  0.38080  0.60771  1.0000 0.0648580172
C   C61       1.0  0.30560  0.41924  0.59613  1.0000 -0.1368545203
C   C62       1.0  0.54390  0.40690  0.60122  1.0000 -0.1489233173
C   C63       1.0  0.01180  0.65911  0.46608  1.0000 0.1396888678
C   C64       1.0  0.00480  0.87596  0.18791  1.0000 0.1396888678
C   C65       1.0  0.03510  0.74968  0.38356  1.0000 0.3391479511
C   C66       1.0  0.97020  0.79979  0.34864  1.0000 -0.314512851
C   C67       1.0  0.19880  0.74590  0.31080  1.0000 0.2334247433
C   C68       1.0  0.03150  0.81861  0.29260  1.0000 0.3391479511
C   C69       1.0  0.84930  0.70060  0.51970  1.0000 -0.0326769467
C   C70       1.0  0.87570  0.74781  0.47523  1.0000 -0.0936386123
C   C71       1.0  0.86730  0.91180  0.26314  1.0000 -0.0936386123
C   C72       1.0  0.84200  0.94360  0.20750  1.0000 -0.0237388875
C   C73       1.0  0.94530  0.51645  0.92362  1.0000 -0.1098231043
C   C74       1.0  0.05720  0.47608  0.91464  1.0000 -0.0040340633
C   C75       1.0  0.70040  0.53370  0.92934  1.0000 0.558581514
C   C76       1.0  0.19050  0.50780  0.92307  1.0000 0.5240719892
C   C77       1.0  0.81910  0.48852  0.91917  1.0000 -0.0124370347
C   C78       1.0  0.91790  0.38080  0.89229  1.0000 0.0648580172
C   C79       1.0  0.80560  0.41924  0.90387  1.0000 -0.1368545203
C   C80       1.0  0.04390  0.40690  0.89878  1.0000 -0.1489233173
C   C81       1.0  0.51180  0.65911  0.03392  1.0000 0.1396888678
C   C82       1.0  0.50480  0.87596  0.31209  1.0000 0.1396888678
C   C83       1.0  0.53510  0.74968  0.11644  1.0000 0.3391479511
C   C84       1.0  0.47020  0.79979  0.15136  1.0000 -0.314512851
C   C85       1.0  0.69880  0.74590  0.18920  1.0000 0.2334247433
C   C86       1.0  0.53150  0.81861  0.20740  1.0000 0.3391479511
C   C87       1.0  0.34930  0.70060  0.98030  1.0000 -0.0326769467
C   C88       1.0  0.37570  0.74781  0.02477  1.0000 -0.0936386123
C   C89       1.0  0.36730  0.91180  0.23686  1.0000 -0.0936386123
C   C90       1.0  0.34200  0.94360  0.29250  1.0000 -0.0237388875
C   C91       1.0  0.94530  0.98355  0.42362  1.0000 -0.1098231043
C   C92       1.0  0.05720  0.02392  0.41464  1.0000 -0.0040340633
C   C93       1.0  0.70040  0.96630  0.42934  1.0000 0.558581514
C   C94       1.0  0.19050  0.99220  0.42307  1.0000 0.5240719892
C   C95       1.0  0.81910  0.01148  0.41917  1.0000 -0.0124370347
C   C96       1.0  0.91790  0.11920  0.39229  1.0000 0.0648580172
C   C97       1.0  0.80560  0.08076  0.40387  1.0000 -0.1368545203
C   C98       1.0  0.04390  0.09310  0.39878  1.0000 -0.1489233173
C   C99       1.0  0.51180  0.84089  0.53392  1.0000 0.1396888678
C   C100      1.0  0.50480  0.62404  0.81209  1.0000 0.1396888678
C   C101      1.0  0.53510  0.75032  0.61644  1.0000 0.3391479511
C   C102      1.0  0.47020  0.70021  0.65136  1.0000 -0.314512851
C   C103      1.0  0.69880  0.75410  0.68920  1.0000 0.2334247433
C   C104      1.0  0.53150  0.68139  0.70740  1.0000 0.3391479511
C   C105      1.0  0.34930  0.79940  0.48030  1.0000 -0.0326769467
C   C106      1.0  0.37570  0.75219  0.52477  1.0000 -0.0936386123
C   C107      1.0  0.36730  0.58820  0.73686  1.0000 -0.0936386123
C   C108      1.0  0.34200  0.55640  0.79250  1.0000 -0.0237388875
C   C109      1.0  0.55470  0.48355  0.42362  1.0000 -0.1098231043
C   C110      1.0  0.44280  0.52392  0.41464  1.0000 -0.0040340633
C   C111      1.0  0.79960  0.46630  0.42934  1.0000 0.558581514
C   C112      1.0  0.30950  0.49220  0.42307  1.0000 0.5240719892
C   C113      1.0  0.68090  0.51148  0.41917  1.0000 -0.0124370347
C   C114      1.0  0.58210  0.61920  0.39229  1.0000 0.0648580172
C   C115      1.0  0.69440  0.58076  0.40387  1.0000 -0.1368545203
C   C116      1.0  0.45610  0.59310  0.39878  1.0000 -0.1489233173
C   C117      1.0  0.98820  0.34089  0.53392  1.0000 0.1396888678
C   C118      1.0  0.99520  0.12404  0.81209  1.0000 0.1396888678
C   C119      1.0  0.96490  0.25032  0.61644  1.0000 0.3391479511
C   C120      1.0  0.02980  0.20021  0.65136  1.0000 -0.314512851
C   C121      1.0  0.80120  0.25410  0.68920  1.0000 0.2334247433
C   C122      1.0  0.96850  0.18139  0.70740  1.0000 0.3391479511
C   C123      1.0  0.15070  0.29940  0.48030  1.0000 -0.0326769467
C   C124      1.0  0.12430  0.25219  0.52477  1.0000 -0.0936386123
C   C125      1.0  0.13270  0.08820  0.73686  1.0000 -0.0936386123
C   C126      1.0  0.15800  0.05640  0.79250  1.0000 -0.0237388875
C   C127      1.0  0.55470  0.01645  0.92362  1.0000 -0.1098231043
C   C128      1.0  0.44280  0.97608  0.91464  1.0000 -0.0040340633
C   C129      1.0  0.79960  0.03370  0.92934  1.0000 0.558581514
C   C130      1.0  0.30950  0.00780  0.92307  1.0000 0.5240719892
C   C131      1.0  0.68090  0.98852  0.91917  1.0000 -0.0124370347
C   C132      1.0  0.58210  0.88080  0.89229  1.0000 0.0648580172
C   C133      1.0  0.69440  0.91924  0.90387  1.0000 -0.1368545203
C   C134      1.0  0.45610  0.90690  0.89878  1.0000 -0.1489233173
C   C135      1.0  0.98820  0.15911  0.03392  1.0000 0.1396888678
C   C136      1.0  0.99520  0.37596  0.31209  1.0000 0.1396888678
C   C137      1.0  0.96490  0.24968  0.11644  1.0000 0.3391479511
C   C138      1.0  0.02980  0.29979  0.15136  1.0000 -0.314512851
C   C139      1.0  0.80120  0.24590  0.18920  1.0000 0.2334247433
C   C140      1.0  0.96850  0.31861  0.20740  1.0000 0.3391479511
C   C141      1.0  0.15070  0.20060  0.98030  1.0000 -0.0326769467
C   C142      1.0  0.12430  0.24781  0.02477  1.0000 -0.0936386123
C   C143      1.0  0.13270  0.41180  0.23686  1.0000 -0.0936386123
C   C144      1.0  0.15800  0.44360  0.29250  1.0000 -0.0237388875
N   N1        1.0  0.51950  0.22273  0.44028  1.0000 -0.0237388875
N   N2        1.0  0.57200  0.42107  0.15981  1.0000 -0.288279163
N   N3        1.0  0.56590  0.14458  0.51390  1.0000 -0.288279163
N   N4        1.0  0.34930  0.22300  0.36627  1.0000 -0.3583174668
N   N5        1.0  0.52700  0.36774  0.25085  1.0000 -0.0237388875
N   N6        1.0  0.09650  0.80754  0.62792  1.0000 0.5089220234
N   N7        1.0  0.35490  0.29331  0.27286  1.0000 -0.3583174668
N   N8        1.0  0.51950  0.27727  0.94028  1.0000 -0.0237388875
N   N9        1.0  0.57200  0.07893  0.65981  1.0000 -0.288279163
N   N10       1.0  0.56590  0.35542  0.01390  1.0000 -0.288279163
N   N11       1.0  0.34930  0.27700  0.86627  1.0000 -0.3583174668
N   N12       1.0  0.52700  0.13226  0.75085  1.0000 -0.0237388875
N   N13       1.0  0.09650  0.69246  0.12792  1.0000 0.5089220234
N   N14       1.0  0.35490  0.20669  0.77286  1.0000 -0.3583174668
N   N15       1.0  0.98050  0.77727  0.94028  1.0000 -0.0237388875
N   N16       1.0  0.92800  0.57893  0.65981  1.0000 -0.288279163
N   N17       1.0  0.93410  0.85542  0.01390  1.0000 -0.288279163
N   N18       1.0  0.15070  0.77700  0.86627  1.0000 -0.3583174668
N   N19       1.0  0.97300  0.63226  0.75085  1.0000 -0.0237388875
N   N20       1.0  0.40350  0.19246  0.12792  1.0000 0.5089220234
N   N21       1.0  0.14510  0.70669  0.77286  1.0000 -0.3583174668
N   N22       1.0  0.98050  0.72273  0.44028  1.0000 -0.0237388875
N   N23       1.0  0.92800  0.92107  0.15981  1.0000 -0.288279163
N   N24       1.0  0.93410  0.64458  0.51390  1.0000 -0.288279163
N   N25       1.0  0.15070  0.72300  0.36627  1.0000 -0.3583174668
N   N26       1.0  0.97300  0.86774  0.25085  1.0000 -0.0237388875
N   N27       1.0  0.40350  0.30754  0.62792  1.0000 0.5089220234
N   N28       1.0  0.14510  0.79331  0.27286  1.0000 -0.3583174668
N   N29       1.0  0.48050  0.72273  0.05972  1.0000 -0.0237388875
N   N30       1.0  0.42800  0.92107  0.34019  1.0000 -0.288279163
N   N31       1.0  0.43410  0.64458  0.98610  1.0000 -0.288279163
N   N32       1.0  0.65070  0.72300  0.13373  1.0000 -0.3583174668
N   N33       1.0  0.47300  0.86774  0.24915  1.0000 -0.0237388875
N   N34       1.0  0.90350  0.30754  0.87208  1.0000 0.5089220234
N   N35       1.0  0.64510  0.79331  0.22714  1.0000 -0.3583174668
N   N36       1.0  0.48050  0.77727  0.55972  1.0000 -0.0237388875
N   N37       1.0  0.42800  0.57893  0.84019  1.0000 -0.288279163
N   N38       1.0  0.43410  0.85542  0.48610  1.0000 -0.288279163
N   N39       1.0  0.65070  0.77700  0.63373  1.0000 -0.3583174668
N   N40       1.0  0.47300  0.63226  0.74915  1.0000 -0.0237388875
N   N41       1.0  0.90350  0.19246  0.37208  1.0000 0.5089220234
N   N42       1.0  0.64510  0.70669  0.72714  1.0000 -0.3583174668
N   N43       1.0  0.01950  0.27727  0.55972  1.0000 -0.0237388875
N   N44       1.0  0.07200  0.07893  0.84019  1.0000 -0.288279163
N   N45       1.0  0.06590  0.35542  0.48610  1.0000 -0.288279163
N   N46       1.0  0.84930  0.27700  0.63373  1.0000 -0.3583174668
N   N47       1.0  0.02700  0.13226  0.74915  1.0000 -0.0237388875
N   N48       1.0  0.59650  0.69246  0.37208  1.0000 0.5089220234
N   N49       1.0  0.85490  0.20669  0.72714  1.0000 -0.3583174668
N   N50       1.0  0.01950  0.22273  0.05972  1.0000 -0.0237388875
N   N51       1.0  0.07200  0.42107  0.34019  1.0000 -0.288279163
N   N52       1.0  0.06590  0.14458  0.98610  1.0000 -0.288279163
N   N53       1.0  0.84930  0.22300  0.13373  1.0000 -0.3583174668
N   N54       1.0  0.02700  0.36774  0.24915  1.0000 -0.0237388875
N   N55       1.0  0.59650  0.80754  0.87208  1.0000 0.5089220234
N   N56       1.0  0.85490  0.29331  0.22714  1.0000 -0.3583174668
O   O1        1.0  0.40710  0.00250  0.55314  1.0000 -0.5809225909
O   O2        1.0  0.70790  0.96930  0.57782  1.0000 -0.5180760793
O   O3        1.0  0.79890  0.07214  0.56977  1.0000 -0.5297040663
O   O4        1.0  0.29020  0.09661  0.58096  1.0000 -0.550888615
O   O5        1.0  0.20700  0.78620  0.63932  1.0000 -0.2993001531
O   O6        1.0  0.99820  0.77448  0.63740  1.0000 -0.2993001531
O   O7        1.0  0.40710  0.49750  0.05314  1.0000 -0.5809225909
O   O8        1.0  0.70790  0.53070  0.07782  1.0000 -0.5180760793
O   O9        1.0  0.79890  0.42786  0.06977  1.0000 -0.5297040663
O   O10       1.0  0.29020  0.40339  0.08096  1.0000 -0.550888615
O   O11       1.0  0.20700  0.71380  0.13932  1.0000 -0.2993001531
O   O12       1.0  0.99820  0.72552  0.13740  1.0000 -0.2993001531
O   O13       1.0  0.09290  0.99750  0.05314  1.0000 -0.5809225909
O   O14       1.0  0.79210  0.03070  0.07782  1.0000 -0.5180760793
O   O15       1.0  0.70110  0.92786  0.06977  1.0000 -0.5297040663
O   O16       1.0  0.20980  0.90339  0.08096  1.0000 -0.550888615
O   O17       1.0  0.29300  0.21380  0.13932  1.0000 -0.2993001531
O   O18       1.0  0.50180  0.22552  0.13740  1.0000 -0.2993001531
O   O19       1.0  0.09290  0.50250  0.55314  1.0000 -0.5809225909
O   O20       1.0  0.79210  0.46930  0.57782  1.0000 -0.5180760793
O   O21       1.0  0.70110  0.57214  0.56977  1.0000 -0.5297040663
O   O22       1.0  0.20980  0.59661  0.58096  1.0000 -0.550888615
O   O23       1.0  0.29300  0.28620  0.63932  1.0000 -0.2993001531
O   O24       1.0  0.50180  0.27448  0.63740  1.0000 -0.2993001531
O   O25       1.0  0.59290  0.50250  0.94686  1.0000 -0.5809225909
O   O26       1.0  0.29210  0.46930  0.92218  1.0000 -0.5180760793
O   O27       1.0  0.20110  0.57214  0.93023  1.0000 -0.5297040663
O   O28       1.0  0.70980  0.59661  0.91904  1.0000 -0.550888615
O   O29       1.0  0.79300  0.28620  0.86068  1.0000 -0.2993001531
O   O30       1.0  0.00180  0.27448  0.86260  1.0000 -0.2993001531
O   O31       1.0  0.59290  0.99750  0.44686  1.0000 -0.5809225909
O   O32       1.0  0.29210  0.03070  0.42218  1.0000 -0.5180760793
O   O33       1.0  0.20110  0.92786  0.43023  1.0000 -0.5297040663
O   O34       1.0  0.70980  0.90339  0.41904  1.0000 -0.550888615
O   O35       1.0  0.79300  0.21380  0.36068  1.0000 -0.2993001531
O   O36       1.0  0.00180  0.22552  0.36260  1.0000 -0.2993001531
O   O37       1.0  0.90710  0.49750  0.44686  1.0000 -0.5809225909
O   O38       1.0  0.20790  0.53070  0.42218  1.0000 -0.5180760793
O   O39       1.0  0.29890  0.42786  0.43023  1.0000 -0.5297040663
O   O40       1.0  0.79020  0.40339  0.41904  1.0000 -0.550888615
O   O41       1.0  0.70700  0.71380  0.36068  1.0000 -0.2993001531
O   O42       1.0  0.49820  0.72552  0.36260  1.0000 -0.2993001531
O   O43       1.0  0.90710  0.00250  0.94686  1.0000 -0.5809225909
O   O44       1.0  0.20790  0.96930  0.92218  1.0000 -0.5180760793
O   O45       1.0  0.29890  0.07214  0.93023  1.0000 -0.5297040663
O   O46       1.0  0.79020  0.09661  0.91904  1.0000 -0.550888615
O   O47       1.0  0.70700  0.78620  0.86068  1.0000 -0.2993001531
O   O48       1.0  0.49820  0.77448  0.86260  1.0000 -0.2993001531
