# DDEC6 charges by PACMAN v1.1 (https://github.com/mtap-research/PACMAN-charge/)
data_2017[Co][nan]3[FSR]20
_chemical_formula_sum              "Co6 H6 C24 N12 O18"
_cell_length_a       15.0779
_cell_length_b       15.0779
_cell_length_c       15.0779
_cell_angle_alpha    117.716
_cell_angle_beta     117.716
_cell_angle_gamma    117.716

_symmetry_space_group_name_H-M    "P 1"
_symmetry_Int_Tables_number       1

loop_
  _symmetry_equiv_pos_as_xyz
  'x, y, z'

loop_
  _atom_site_type_symbol
  _atom_site_label
  _atom_site_symmetry_multiplicity
  _atom_site_fract_x
  _atom_site_fract_y
  _atom_site_fract_z
  _atom_site_occupancy
  _atom_site_charge
Co  Co1       1.0  0.38600  0.70733  0.97087  1.0000 0.9675822676
Co  Co2       1.0  0.70733  0.97087  0.38600  1.0000 0.9675822676
Co  Co3       1.0  0.97087  0.38600  0.70733  1.0000 0.9675822676
Co  Co4       1.0  0.61400  0.29267  0.02913  1.0000 0.9675822676
Co  Co5       1.0  0.29267  0.02913  0.61400  1.0000 0.9675822676
Co  Co6       1.0  0.02913  0.61400  0.29267  1.0000 0.9675822676
H   H1        1.0  0.17270  0.15330  0.70020  1.0000 0.1503801416
H   H2        1.0  0.15330  0.70020  0.17270  1.0000 0.1503801416
H   H3        1.0  0.70020  0.17270  0.15330  1.0000 0.1503801416
H   H4        1.0  0.82730  0.84670  0.29980  1.0000 0.1503801416
H   H5        1.0  0.84670  0.29980  0.82730  1.0000 0.1503801416
H   H6        1.0  0.29980  0.82730  0.84670  1.0000 0.1503801416
C   C1        1.0  0.53260  0.63340  0.06680  1.0000 0.2960876793
C   C2        1.0  0.63340  0.06680  0.53260  1.0000 0.2960876793
C   C3        1.0  0.06680  0.53260  0.63340  1.0000 0.2960876793
C   C4        1.0  0.46740  0.36660  0.93320  1.0000 0.2960876793
C   C5        1.0  0.36660  0.93320  0.46740  1.0000 0.2960876793
C   C6        1.0  0.93320  0.46740  0.36660  1.0000 0.2960876793
C   C7        1.0  0.33390  0.42130  0.88480  1.0000 -0.1415209551
C   C8        1.0  0.42130  0.88480  0.33390  1.0000 -0.1415209551
C   C9        1.0  0.88480  0.33390  0.42130  1.0000 -0.1415209551
C   C10       1.0  0.66610  0.57870  0.11520  1.0000 -0.1415209551
C   C11       1.0  0.57870  0.11520  0.66610  1.0000 -0.1415209551
C   C12       1.0  0.11520  0.66610  0.57870  1.0000 -0.1415209551
C   C13       1.0  0.30690  0.29510  0.82320  1.0000 -0.2119703248
C   C14       1.0  0.29510  0.82320  0.30690  1.0000 -0.2119703248
C   C15       1.0  0.82320  0.30690  0.29510  1.0000 -0.2119703248
C   C16       1.0  0.69310  0.70490  0.17680  1.0000 -0.2119703248
C   C17       1.0  0.70490  0.17680  0.69310  1.0000 -0.2119703248
C   C18       1.0  0.17680  0.69310  0.70490  1.0000 -0.2119703248
C   C19       1.0  0.14910  0.32410  0.75790  1.0000 0.6299747746
C   C20       1.0  0.32410  0.75790  0.14910  1.0000 0.6299747746
C   C21       1.0  0.75790  0.14910  0.32410  1.0000 0.6299747746
C   C22       1.0  0.85090  0.67590  0.24210  1.0000 0.6299747746
C   C23       1.0  0.67590  0.24210  0.85090  1.0000 0.6299747746
C   C24       1.0  0.24210  0.85090  0.67590  1.0000 0.6299747746
N   N1        1.0  0.36080  0.60470  0.78190  1.0000 -0.1991175939
N   N2        1.0  0.60470  0.78190  0.36080  1.0000 -0.1991175939
N   N3        1.0  0.78190  0.36080  0.60470  1.0000 -0.1991175939
N   N4        1.0  0.63920  0.39530  0.21810  1.0000 -0.1991175939
N   N5        1.0  0.39530  0.21810  0.63920  1.0000 -0.1991175939
N   N6        1.0  0.21810  0.63920  0.39530  1.0000 -0.1991175939
N   N7        1.0  0.36920  0.58150  0.70910  1.0000 0.2458498896
N   N8        1.0  0.58150  0.70910  0.36920  1.0000 0.2458498896
N   N9        1.0  0.70910  0.36920  0.58150  1.0000 0.2458498896
N   N10       1.0  0.63080  0.41850  0.29090  1.0000 0.2458498896
N   N11       1.0  0.41850  0.29090  0.63080  1.0000 0.2458498896
N   N12       1.0  0.29090  0.63080  0.41850  1.0000 0.2458498896
O   O1        1.0  0.57773  0.77052  0.13985  1.0000 -0.6228860994
O   O2        1.0  0.77052  0.13985  0.57773  1.0000 -0.6228860994
O   O3        1.0  0.13985  0.57773  0.77052  1.0000 -0.6228860994
O   O4        1.0  0.42227  0.22948  0.86015  1.0000 -0.6228860994
O   O5        1.0  0.22948  0.86015  0.42227  1.0000 -0.6228860994
O   O6        1.0  0.86015  0.42227  0.22948  1.0000 -0.6228860994
O   O7        1.0  0.17073  0.43745  0.81552  1.0000 -0.5821459074
O   O8        1.0  0.43745  0.81552  0.17073  1.0000 -0.5821459074
O   O9        1.0  0.81552  0.17073  0.43745  1.0000 -0.5821459074
O   O10       1.0  0.82927  0.56255  0.18448  1.0000 -0.5821459074
O   O11       1.0  0.56255  0.18448  0.82927  1.0000 -0.5821459074
O   O12       1.0  0.18448  0.82927  0.56255  1.0000 -0.5821459074
O   O13       1.0  0.97811  0.13496  0.60113  1.0000 -0.532233872
O   O14       1.0  0.13496  0.60113  0.97811  1.0000 -0.532233872
O   O15       1.0  0.60113  0.97811  0.13496  1.0000 -0.532233872
O   O16       1.0  0.02189  0.86504  0.39887  1.0000 -0.532233872
O   O17       1.0  0.86504  0.39887  0.02189  1.0000 -0.532233872
O   O18       1.0  0.39887  0.02189  0.86504  1.0000 -0.532233872
