# DDEC6 charges by PACMAN v1.1 (https://github.com/mtap-research/PACMAN-charge/)
data_2017[Co][nan]2[FSR]6
_chemical_formula_sum              "Co4 H36 C52 N8 O16"
_cell_length_a       12.631
_cell_length_b       7.5996
_cell_length_c       16.109
_cell_angle_alpha    90
_cell_angle_beta     109.223
_cell_angle_gamma    90

_symmetry_space_group_name_H-M    "P 1"
_symmetry_Int_Tables_number       1

loop_
  _symmetry_equiv_pos_as_xyz
  'x, y, z'

loop_
  _atom_site_type_symbol
  _atom_site_label
  _atom_site_symmetry_multiplicity
  _atom_site_fract_x
  _atom_site_fract_y
  _atom_site_fract_z
  _atom_site_occupancy
  _atom_site_charge
Co  Co1       1.0  0.81957  0.49709  0.67981  1.0000 0.7962531809
Co  Co2       1.0  0.18043  0.99709  0.82019  1.0000 0.7962531809
Co  Co3       1.0  0.18043  0.50291  0.32019  1.0000 0.7962531809
Co  Co4       1.0  0.81957  0.00291  0.17981  1.0000 0.7962531809
H   H1        1.0  0.00750  0.34400  0.71040  1.0000 0.3103861574
H   H2        1.0  0.99750  0.46690  0.64000  1.0000 0.3103861574
H   H3        1.0  0.82270  0.87930  0.43830  1.0000 0.1190623431
H   H4        1.0  0.91160  0.06620  0.68500  1.0000 0.1373468478
H   H5        1.0  0.93210  0.37840  0.48960  1.0000 0.1373468478
H   H6        1.0  0.65320  0.43260  0.49310  1.0000 0.1190623431
H   H7        1.0  0.52760  0.22480  0.42000  1.0000 0.1373468478
H   H8        1.0  0.58400  0.96980  0.64310  1.0000 0.1373468478
H   H9        1.0  0.70040  0.19120  0.71280  1.0000 0.1190623431
H   H10       1.0  0.99250  0.84400  0.78960  1.0000 0.3103861574
H   H11       1.0  0.00250  0.96690  0.86000  1.0000 0.3103861574
H   H12       1.0  0.17730  0.37930  0.06170  1.0000 0.1190623431
H   H13       1.0  0.08840  0.56620  0.81500  1.0000 0.1373468478
H   H14       1.0  0.06790  0.87840  0.01040  1.0000 0.1373468478
H   H15       1.0  0.34680  0.93260  0.00690  1.0000 0.1190623431
H   H16       1.0  0.47240  0.72480  0.08000  1.0000 0.1373468478
H   H17       1.0  0.41600  0.46980  0.85690  1.0000 0.1373468478
H   H18       1.0  0.29960  0.69120  0.78720  1.0000 0.1190623431
H   H19       1.0  0.99250  0.65600  0.28960  1.0000 0.3103861574
H   H20       1.0  0.00250  0.53310  0.36000  1.0000 0.3103861574
H   H21       1.0  0.17730  0.12070  0.56170  1.0000 0.1190623431
H   H22       1.0  0.08840  0.93380  0.31500  1.0000 0.1373468478
H   H23       1.0  0.06790  0.62160  0.51040  1.0000 0.1373468478
H   H24       1.0  0.34680  0.56740  0.50690  1.0000 0.1190623431
H   H25       1.0  0.47240  0.77520  0.58000  1.0000 0.1373468478
H   H26       1.0  0.41600  0.03020  0.35690  1.0000 0.1373468478
H   H27       1.0  0.29960  0.80880  0.28720  1.0000 0.1190623431
H   H28       1.0  0.00750  0.15600  0.21040  1.0000 0.3103861574
H   H29       1.0  0.99750  0.03310  0.14000  1.0000 0.3103861574
H   H30       1.0  0.82270  0.62070  0.93830  1.0000 0.1190623431
H   H31       1.0  0.91160  0.43380  0.18500  1.0000 0.1373468478
H   H32       1.0  0.93210  0.12160  0.98960  1.0000 0.1373468478
H   H33       1.0  0.65320  0.06740  0.99310  1.0000 0.1190623431
H   H34       1.0  0.52760  0.27520  0.92000  1.0000 0.1373468478
H   H35       1.0  0.58400  0.53020  0.14310  1.0000 0.1373468478
H   H36       1.0  0.70040  0.30880  0.21280  1.0000 0.1190623431
C   C1        1.0  0.86720  0.15770  0.35380  1.0000 0.5375596348
C   C2        1.0  0.87630  0.13190  0.44900  1.0000 -0.008861146
C   C3        1.0  0.84940  0.97090  0.47800  1.0000 -0.1384594936
C   C4        1.0  0.86230  0.94710  0.56630  1.0000 -0.008861146
C   C5        1.0  0.83590  0.77410  0.59890  1.0000 0.5375596348
C   C6        1.0  0.90210  0.08330  0.62580  1.0000 -0.2027382657
C   C7        1.0  0.92770  0.24500  0.59720  1.0000 0.2538438801
C   C8        1.0  0.91500  0.27010  0.50880  1.0000 -0.2027382657
C   C9        1.0  0.63690  0.34040  0.52490  1.0000 0.0756710533
C   C10       1.0  0.56250  0.21400  0.48040  1.0000 -0.189980739
C   C11       1.0  0.53870  0.07220  0.52340  1.0000 0.1117347319
C   C12       1.0  0.59420  0.06570  0.61070  1.0000 -0.181730726
C   C13       1.0  0.66540  0.19910  0.65230  1.0000 0.0865397312
C   C14       1.0  0.13280  0.65770  0.14620  1.0000 0.5375596348
C   C15       1.0  0.12370  0.63190  0.05100  1.0000 -0.008861146
C   C16       1.0  0.15060  0.47090  0.02200  1.0000 -0.1384594936
C   C17       1.0  0.13770  0.44710  0.93370  1.0000 -0.008861146
C   C18       1.0  0.16410  0.27410  0.90110  1.0000 0.5375596348
C   C19       1.0  0.09790  0.58330  0.87420  1.0000 -0.2027382657
C   C20       1.0  0.07230  0.74500  0.90280  1.0000 0.2538438801
C   C21       1.0  0.08500  0.77010  0.99120  1.0000 -0.2027382657
C   C22       1.0  0.36310  0.84040  0.97510  1.0000 0.0756710533
C   C23       1.0  0.43750  0.71400  0.01960  1.0000 -0.189980739
C   C24       1.0  0.46130  0.57220  0.97660  1.0000 0.1117347319
C   C25       1.0  0.40580  0.56570  0.88930  1.0000 -0.181730726
C   C26       1.0  0.33460  0.69910  0.84770  1.0000 0.0865397312
C   C27       1.0  0.13280  0.84230  0.64620  1.0000 0.5375596348
C   C28       1.0  0.12370  0.86810  0.55100  1.0000 -0.008861146
C   C29       1.0  0.15060  0.02910  0.52200  1.0000 -0.1384594936
C   C30       1.0  0.13770  0.05290  0.43370  1.0000 -0.008861146
C   C31       1.0  0.16410  0.22590  0.40110  1.0000 0.5375596348
C   C32       1.0  0.09790  0.91670  0.37420  1.0000 -0.2027382657
C   C33       1.0  0.07230  0.75500  0.40280  1.0000 0.2538438801
C   C34       1.0  0.08500  0.72990  0.49120  1.0000 -0.2027382657
C   C35       1.0  0.36310  0.65960  0.47510  1.0000 0.0756710533
C   C36       1.0  0.43750  0.78600  0.51960  1.0000 -0.189980739
C   C37       1.0  0.46130  0.92780  0.47660  1.0000 0.1117347319
C   C38       1.0  0.40580  0.93430  0.38930  1.0000 -0.181730726
C   C39       1.0  0.33460  0.80090  0.34770  1.0000 0.0865397312
C   C40       1.0  0.86720  0.34230  0.85380  1.0000 0.5375596348
C   C41       1.0  0.87630  0.36810  0.94900  1.0000 -0.008861146
C   C42       1.0  0.84940  0.52910  0.97800  1.0000 -0.1384594936
C   C43       1.0  0.86230  0.55290  0.06630  1.0000 -0.008861146
C   C44       1.0  0.83590  0.72590  0.09890  1.0000 0.5375596348
C   C45       1.0  0.90210  0.41670  0.12580  1.0000 -0.2027382657
C   C46       1.0  0.92770  0.25500  0.09720  1.0000 0.2538438801
C   C47       1.0  0.91500  0.22990  0.00880  1.0000 -0.2027382657
C   C48       1.0  0.63690  0.15960  0.02490  1.0000 0.0756710533
C   C49       1.0  0.56250  0.28600  0.98040  1.0000 -0.189980739
C   C50       1.0  0.53870  0.42780  0.02340  1.0000 0.1117347319
C   C51       1.0  0.59420  0.43430  0.11070  1.0000 -0.181730726
C   C52       1.0  0.66540  0.30090  0.15230  1.0000 0.0865397312
N   N1        1.0  0.96120  0.38510  0.65970  1.0000 -0.5917328235
N   N2        1.0  0.68690  0.33700  0.61150  1.0000 -0.2359704349
N   N3        1.0  0.03880  0.88510  0.84030  1.0000 -0.5917328235
N   N4        1.0  0.31310  0.83700  0.88850  1.0000 -0.2359704349
N   N5        1.0  0.03880  0.61490  0.34030  1.0000 -0.5917328235
N   N6        1.0  0.31310  0.66300  0.38850  1.0000 -0.2359704349
N   N7        1.0  0.96120  0.11490  0.15970  1.0000 -0.5917328235
N   N8        1.0  0.68690  0.16300  0.11150  1.0000 -0.2359704349
O   O1        1.0  0.82340  0.03180  0.30180  1.0000 -0.5592596616
O   O2        1.0  0.90210  0.29510  0.33110  1.0000 -0.5477476354
O   O3        1.0  0.80500  0.64650  0.54820  1.0000 -0.5318256732
O   O4        1.0  0.84650  0.75760  0.68000  1.0000 -0.5318256732
O   O5        1.0  0.17660  0.53180  0.19820  1.0000 -0.5592596616
O   O6        1.0  0.09790  0.79510  0.16890  1.0000 -0.5477476354
O   O7        1.0  0.19500  0.14650  0.95180  1.0000 -0.5318256732
O   O8        1.0  0.15350  0.25760  0.82000  1.0000 -0.524861538
O   O9        1.0  0.17660  0.96820  0.69820  1.0000 -0.5592596616
O   O10       1.0  0.09790  0.70490  0.66890  1.0000 -0.5477476354
O   O11       1.0  0.19500  0.35350  0.45180  1.0000 -0.5318256732
O   O12       1.0  0.15350  0.24240  0.32000  1.0000 -0.524861538
O   O13       1.0  0.82340  0.46820  0.80180  1.0000 -0.5592596616
O   O14       1.0  0.90210  0.20490  0.83110  1.0000 -0.5477476354
O   O15       1.0  0.80500  0.85350  0.04820  1.0000 -0.5318256732
O   O16       1.0  0.84650  0.74240  0.18000  1.0000 -0.524861538
