# DDEC6 charges by PACMAN v1.1 (https://github.com/mtap-research/PACMAN-charge/)
data_2017[Co][pcu]2[FSR]7
_chemical_formula_sum              "Co8 H88 C144 N56 O48"
_cell_length_a       10.0463
_cell_length_b       19.637
_cell_length_c       20.374
_cell_angle_alpha    90
_cell_angle_beta     90
_cell_angle_gamma    90

_symmetry_space_group_name_H-M    "P 1"
_symmetry_Int_Tables_number       1

loop_
  _symmetry_equiv_pos_as_xyz
  'x, y, z'

loop_
  _atom_site_type_symbol
  _atom_site_label
  _atom_site_symmetry_multiplicity
  _atom_site_fract_x
  _atom_site_fract_y
  _atom_site_fract_z
  _atom_site_occupancy
  _atom_site_charge
Co  Co1       1.0  0.07587  0.45604  0.44116  1.0000 0.84315485
Co  Co2       1.0  0.08232  0.05534  0.93812  1.0000 0.8463613117
Co  Co3       1.0  0.42413  0.54396  0.94116  1.0000 0.84315485
Co  Co4       1.0  0.41768  0.94466  0.43812  1.0000 0.8463613117
Co  Co5       1.0  0.92413  0.95604  0.05884  1.0000 0.84315485
Co  Co6       1.0  0.91768  0.55534  0.56188  1.0000 0.8463613117
Co  Co7       1.0  0.57587  0.04396  0.55884  1.0000 0.84315485
Co  Co8       1.0  0.58232  0.44466  0.06188  1.0000 0.8463613117
H   H1        1.0  0.90690  0.36940  0.54770  1.0000 0.1312794949
H   H2        1.0  0.22520  0.31160  0.45080  1.0000 0.1204810155
H   H3        1.0  0.17070  0.21990  0.52700  1.0000 0.1375237006
H   H4        1.0  0.10820  0.18690  0.63460  1.0000 0.1607614853
H   H5        1.0  0.70000  0.26360  0.69510  1.0000 0.0918519818
H   H6        1.0  0.18010  0.09100  0.69330  1.0000 0.1312794949
H   H7        1.0  0.24040  0.03630  0.79620  1.0000 0.1204810155
H   H8        1.0  0.91760  0.14520  0.83090  1.0000 0.1137174242
H   H9        1.0  0.93420  0.35340  0.33940  1.0000 0.1204810155
H   H10       1.0  0.21640  0.48570  0.29690  1.0000 0.1204810155
H   H11       1.0  0.17300  0.42170  0.19650  1.0000 0.1312794949
H   H12       1.0  0.11030  0.32370  0.13590  1.0000 0.1607614853
H   H13       1.0  0.73900  0.21980  0.21380  1.0000 0.0957089537
H   H14       1.0  0.92610  0.13250  0.05160  1.0000 0.1312794949
H   H15       1.0  0.20650  0.20970  0.94010  1.0000 0.1204810155
H   H16       1.0  0.15940  0.29450  0.02470  1.0000 0.1375237006
H   H17       1.0  0.53990  0.06120  0.93050  1.0000 0.1204810155
H   H18       1.0  0.38990  0.87550  0.89300  1.0000 0.1312794949
H   H19       1.0  0.78540  0.90350  0.89930  1.0000 0.1312794949
H   H20       1.0  0.54480  0.44540  0.43120  1.0000 0.1204810155
H   H21       1.0  0.77700  0.60930  0.39970  1.0000 0.1312794949
H   H22       1.0  0.37530  0.62600  0.38750  1.0000 0.1312794949
H   H23       1.0  0.59310  0.63060  0.04770  1.0000 0.1312794949
H   H24       1.0  0.27480  0.68840  0.95080  1.0000 0.1204810155
H   H25       1.0  0.32930  0.78010  0.02700  1.0000 0.1375237006
H   H26       1.0  0.39180  0.81310  0.13460  1.0000 0.1607614853
H   H27       1.0  0.80000  0.73640  0.19510  1.0000 0.0918519818
H   H28       1.0  0.31990  0.90900  0.19330  1.0000 0.1312794949
H   H29       1.0  0.25960  0.96370  0.29620  1.0000 0.1204810155
H   H30       1.0  0.58240  0.85480  0.33090  1.0000 0.1137174242
H   H31       1.0  0.56580  0.64660  0.83940  1.0000 0.1204810155
H   H32       1.0  0.28360  0.51430  0.79690  1.0000 0.1204810155
H   H33       1.0  0.32700  0.57830  0.69650  1.0000 0.1312794949
H   H34       1.0  0.38970  0.67630  0.63590  1.0000 0.1607614853
H   H35       1.0  0.76100  0.78020  0.71380  1.0000 0.0957089537
H   H36       1.0  0.57390  0.86750  0.55160  1.0000 0.1312794949
H   H37       1.0  0.29350  0.79030  0.44010  1.0000 0.1204810155
H   H38       1.0  0.34060  0.70550  0.52470  1.0000 0.1375237006
H   H39       1.0  0.96010  0.93880  0.43050  1.0000 0.1204810155
H   H40       1.0  0.11010  0.12450  0.39300  1.0000 0.1312794949
H   H41       1.0  0.71460  0.09650  0.39930  1.0000 0.1312794949
H   H42       1.0  0.95520  0.55460  0.93120  1.0000 0.1204810155
H   H43       1.0  0.72300  0.39070  0.89970  1.0000 0.1312794949
H   H44       1.0  0.12470  0.37400  0.88750  1.0000 0.1312794949
H   H45       1.0  0.09310  0.86940  0.95230  1.0000 0.1312794949
H   H46       1.0  0.77480  0.81160  0.04920  1.0000 0.1204810155
H   H47       1.0  0.82930  0.71990  0.97300  1.0000 0.1375237006
H   H48       1.0  0.89180  0.68690  0.86540  1.0000 0.1607614853
H   H49       1.0  0.30000  0.76360  0.80490  1.0000 0.0918519818
H   H50       1.0  0.81990  0.59100  0.80670  1.0000 0.1312794949
H   H51       1.0  0.75960  0.53630  0.70380  1.0000 0.1204810155
H   H52       1.0  0.08240  0.64520  0.66910  1.0000 0.1137174242
H   H53       1.0  0.06580  0.85340  0.16060  1.0000 0.1204810155
H   H54       1.0  0.78360  0.98570  0.20310  1.0000 0.1204810155
H   H55       1.0  0.82700  0.92170  0.30350  1.0000 0.1312794949
H   H56       1.0  0.88970  0.82370  0.36410  1.0000 0.1607614853
H   H57       1.0  0.26100  0.71980  0.28620  1.0000 0.0957089537
H   H58       1.0  0.07390  0.63250  0.44840  1.0000 0.1312794949
H   H59       1.0  0.79350  0.70970  0.55990  1.0000 0.1204810155
H   H60       1.0  0.84060  0.79450  0.47530  1.0000 0.1375237006
H   H61       1.0  0.46010  0.56120  0.56950  1.0000 0.1204810155
H   H62       1.0  0.61010  0.37550  0.60700  1.0000 0.1312794949
H   H63       1.0  0.21460  0.40350  0.60070  1.0000 0.1312794949
H   H64       1.0  0.45520  0.94540  0.06880  1.0000 0.1204810155
H   H65       1.0  0.22300  0.10930  0.10030  1.0000 0.1312794949
H   H66       1.0  0.62470  0.12600  0.11250  1.0000 0.1312794949
H   H67       1.0  0.40690  0.13060  0.45230  1.0000 0.1312794949
H   H68       1.0  0.72520  0.18840  0.54920  1.0000 0.1204810155
H   H69       1.0  0.67070  0.28010  0.47300  1.0000 0.1375237006
H   H70       1.0  0.60820  0.31310  0.36540  1.0000 0.1607614853
H   H71       1.0  0.20000  0.23640  0.30490  1.0000 0.0918519818
H   H72       1.0  0.68010  0.40900  0.30670  1.0000 0.1312794949
H   H73       1.0  0.74040  0.46370  0.20380  1.0000 0.1204810155
H   H74       1.0  0.41760  0.35480  0.16910  1.0000 0.1137174242
H   H75       1.0  0.43420  0.14660  0.66060  1.0000 0.1204810155
H   H76       1.0  0.71640  0.01430  0.70310  1.0000 0.1204810155
H   H77       1.0  0.67300  0.07830  0.80350  1.0000 0.1312794949
H   H78       1.0  0.61030  0.17630  0.86410  1.0000 0.1607614853
H   H79       1.0  0.23900  0.28020  0.78620  1.0000 0.0957089537
H   H80       1.0  0.42610  0.36750  0.94840  1.0000 0.1312794949
H   H81       1.0  0.70650  0.29030  0.05990  1.0000 0.1204810155
H   H82       1.0  0.65940  0.20550  0.97530  1.0000 0.1375237006
H   H83       1.0  0.03990  0.43880  0.06950  1.0000 0.1204810155
H   H84       1.0  0.88990  0.62450  0.10700  1.0000 0.1312794949
H   H85       1.0  0.28540  0.59650  0.10070  1.0000 0.1312794949
H   H86       1.0  0.04480  0.05460  0.56880  1.0000 0.1204810155
H   H87       1.0  0.27700  0.89070  0.60030  1.0000 0.1312794949
H   H88       1.0  0.87530  0.87400  0.61250  1.0000 0.1312794949
C   C1        1.0  0.98010  0.34380  0.53300  1.0000 0.1463851617
C   C2        1.0  0.15350  0.31180  0.48050  1.0000 -0.0217207138
C   C3        1.0  0.12440  0.26120  0.52200  1.0000 -0.0970551795
C   C4        1.0  0.95600  0.25080  0.61130  1.0000 0.3469775492
C   C5        1.0  0.02390  0.20290  0.64730  1.0000 -0.3284289366
C   C6        1.0  0.96060  0.17960  0.70360  1.0000 0.3624922805
C   C7        1.0  0.78430  0.24740  0.68250  1.0000 0.2393797808
C   C8        1.0  0.13510  0.09520  0.73350  1.0000 -0.0930939678
C   C9        1.0  0.16690  0.06520  0.78990  1.0000 -0.0273924397
C   C10       1.0  0.99050  0.12460  0.81000  1.0000 0.1375237006
C   C11       1.0  0.99850  0.37880  0.31650  1.0000 0.1312794949
C   C12       1.0  0.15300  0.45080  0.29230  1.0000 -0.0217207138
C   C13       1.0  0.13020  0.41590  0.23710  1.0000 -0.0930939678
C   C14       1.0  0.97450  0.31880  0.21120  1.0000 0.3469775492
C   C15       1.0  0.03360  0.30200  0.15210  1.0000 -0.3171252362
C   C16       1.0  0.96840  0.24980  0.11910  1.0000 0.3469775492
C   C17       1.0  0.81590  0.24120  0.19750  1.0000 0.2393797808
C   C18       1.0  0.99100  0.16190  0.03420  1.0000 0.1463851617
C   C19       1.0  0.14360  0.20480  0.97400  1.0000 -0.0273924397
C   C20       1.0  0.11860  0.25170  0.02000  1.0000 -0.0930939678
C   C21       1.0  0.79960  0.03580  0.92830  1.0000 0.5593468868
C   C22       1.0  0.68310  0.98980  0.91730  1.0000 -0.0086629218
C   C23       1.0  0.55340  0.01480  0.92140  1.0000 -0.1086990028
C   C24       1.0  0.44410  0.97300  0.91240  1.0000 -0.0024102969
C   C25       1.0  0.46280  0.90500  0.89830  1.0000 -0.1417871299
C   C26       1.0  0.59230  0.88150  0.89200  1.0000 0.0630115667
C   C27       1.0  0.69930  0.92190  0.90230  1.0000 -0.1275702207
C   C28       1.0  0.30790  0.00190  0.92040  1.0000 0.5234887325
C   C29       1.0  0.30670  0.49980  0.42250  1.0000 0.5234887325
C   C30       1.0  0.43980  0.53090  0.41270  1.0000 -0.0024102969
C   C31       1.0  0.55330  0.49210  0.42200  1.0000 -0.1086990028
C   C32       1.0  0.67880  0.52060  0.41800  1.0000 -0.0024102969
C   C33       1.0  0.69260  0.58870  0.40160  1.0000 -0.1417871299
C   C34       1.0  0.57780  0.62560  0.38820  1.0000 0.065577934
C   C35       1.0  0.45110  0.59900  0.39480  1.0000 -0.1483030147
C   C36       1.0  0.79730  0.47590  0.43050  1.0000 0.5593468868
C   C37       1.0  0.51990  0.65620  0.03300  1.0000 0.1463851617
C   C38       1.0  0.34650  0.68820  0.98050  1.0000 -0.0217207138
C   C39       1.0  0.37560  0.73880  0.02200  1.0000 -0.0970551795
C   C40       1.0  0.54400  0.74920  0.11130  1.0000 0.3469775492
C   C41       1.0  0.47610  0.79710  0.14730  1.0000 -0.3284289366
C   C42       1.0  0.53940  0.82040  0.20360  1.0000 0.3624922805
C   C43       1.0  0.71570  0.75260  0.18250  1.0000 0.2393797808
C   C44       1.0  0.36490  0.90480  0.23350  1.0000 -0.0930939678
C   C45       1.0  0.33310  0.93480  0.28990  1.0000 -0.0273924397
C   C46       1.0  0.50950  0.87540  0.31000  1.0000 0.1375237006
C   C47       1.0  0.50150  0.62120  0.81650  1.0000 0.1312794949
C   C48       1.0  0.34700  0.54920  0.79230  1.0000 -0.0217207138
C   C49       1.0  0.36980  0.58410  0.73710  1.0000 -0.0930939678
C   C50       1.0  0.52550  0.68120  0.71120  1.0000 0.3469775492
C   C51       1.0  0.46640  0.69800  0.65210  1.0000 -0.3171252362
C   C52       1.0  0.53160  0.75020  0.61910  1.0000 0.3469775492
C   C53       1.0  0.68410  0.75880  0.69750  1.0000 0.2393797808
C   C54       1.0  0.50900  0.83810  0.53420  1.0000 0.1463851617
C   C55       1.0  0.35640  0.79520  0.47400  1.0000 -0.0273924397
C   C56       1.0  0.38140  0.74830  0.52000  1.0000 -0.0930939678
C   C57       1.0  0.70040  0.96420  0.42830  1.0000 0.5593468868
C   C58       1.0  0.81690  0.01020  0.41730  1.0000 -0.0086629218
C   C59       1.0  0.94660  0.98520  0.42140  1.0000 -0.1086990028
C   C60       1.0  0.05590  0.02700  0.41240  1.0000 -0.0024102969
C   C61       1.0  0.03720  0.09500  0.39830  1.0000 -0.1417871299
C   C62       1.0  0.90770  0.11850  0.39200  1.0000 0.0630115667
C   C63       1.0  0.80070  0.07810  0.40230  1.0000 -0.1275702207
C   C64       1.0  0.19210  0.99810  0.42040  1.0000 0.5234887325
C   C65       1.0  0.19330  0.50020  0.92250  1.0000 0.5234887325
C   C66       1.0  0.06020  0.46910  0.91270  1.0000 -0.0024102969
C   C67       1.0  0.94670  0.50790  0.92200  1.0000 -0.1086990028
C   C68       1.0  0.82120  0.47940  0.91800  1.0000 -0.0024102969
C   C69       1.0  0.80740  0.41130  0.90160  1.0000 -0.1417871299
C   C70       1.0  0.92220  0.37440  0.88820  1.0000 0.065577934
C   C71       1.0  0.04890  0.40100  0.89480  1.0000 -0.1483030147
C   C72       1.0  0.70270  0.52410  0.93050  1.0000 0.5593468868
C   C73       1.0  0.01990  0.84380  0.96700  1.0000 0.1463851617
C   C74       1.0  0.84650  0.81180  0.01950  1.0000 -0.0217207138
C   C75       1.0  0.87560  0.76120  0.97800  1.0000 -0.0970551795
C   C76       1.0  0.04400  0.75080  0.88870  1.0000 0.3469775492
C   C77       1.0  0.97610  0.70290  0.85270  1.0000 -0.3284289366
C   C78       1.0  0.03940  0.67960  0.79640  1.0000 0.3624922805
C   C79       1.0  0.21570  0.74740  0.81750  1.0000 0.2393797808
C   C80       1.0  0.86490  0.59520  0.76650  1.0000 -0.0930939678
C   C81       1.0  0.83310  0.56520  0.71010  1.0000 -0.0273924397
C   C82       1.0  0.00950  0.62460  0.69000  1.0000 0.1375237006
C   C83       1.0  0.00150  0.87880  0.18350  1.0000 0.1312794949
C   C84       1.0  0.84700  0.95080  0.20770  1.0000 -0.0217207138
C   C85       1.0  0.86980  0.91590  0.26290  1.0000 -0.0930939678
C   C86       1.0  0.02550  0.81880  0.28880  1.0000 0.3469775492
C   C87       1.0  0.96640  0.80200  0.34790  1.0000 -0.3171252362
C   C88       1.0  0.03160  0.74980  0.38090  1.0000 0.3469775492
C   C89       1.0  0.18410  0.74120  0.30250  1.0000 0.2393797808
C   C90       1.0  0.00900  0.66190  0.46580  1.0000 0.1463851617
C   C91       1.0  0.85640  0.70480  0.52600  1.0000 -0.0273924397
C   C92       1.0  0.88140  0.75170  0.48000  1.0000 -0.0930939678
C   C93       1.0  0.20040  0.53580  0.57170  1.0000 0.5593468868
C   C94       1.0  0.31690  0.48980  0.58270  1.0000 -0.0086629218
C   C95       1.0  0.44660  0.51480  0.57860  1.0000 -0.1086990028
C   C96       1.0  0.55590  0.47300  0.58760  1.0000 -0.0024102969
C   C97       1.0  0.53720  0.40500  0.60170  1.0000 -0.1417871299
C   C98       1.0  0.40770  0.38150  0.60800  1.0000 0.0630115667
C   C99       1.0  0.30070  0.42190  0.59770  1.0000 -0.1275702207
C   C100      1.0  0.69210  0.50190  0.57960  1.0000 0.5234887325
C   C101      1.0  0.69330  0.99980  0.07750  1.0000 0.5234887325
C   C102      1.0  0.56020  0.03090  0.08730  1.0000 -0.0024102969
C   C103      1.0  0.44670  0.99210  0.07800  1.0000 -0.1086990028
C   C104      1.0  0.32120  0.02060  0.08200  1.0000 -0.0024102969
C   C105      1.0  0.30740  0.08870  0.09840  1.0000 -0.1417871299
C   C106      1.0  0.42220  0.12560  0.11180  1.0000 0.065577934
C   C107      1.0  0.54890  0.09900  0.10520  1.0000 -0.1483030147
C   C108      1.0  0.20270  0.97590  0.06950  1.0000 0.5593468868
C   C109      1.0  0.48010  0.15620  0.46700  1.0000 0.1463851617
C   C110      1.0  0.65350  0.18820  0.51950  1.0000 -0.0217207138
C   C111      1.0  0.62440  0.23880  0.47800  1.0000 -0.0970551795
C   C112      1.0  0.45600  0.24920  0.38870  1.0000 0.3469775492
C   C113      1.0  0.52390  0.29710  0.35270  1.0000 -0.3284289366
C   C114      1.0  0.46060  0.32040  0.29640  1.0000 0.3624922805
C   C115      1.0  0.28430  0.25260  0.31750  1.0000 0.2393797808
C   C116      1.0  0.63510  0.40480  0.26650  1.0000 -0.0930939678
C   C117      1.0  0.66690  0.43480  0.21010  1.0000 -0.0273924397
C   C118      1.0  0.49050  0.37540  0.19000  1.0000 0.1375237006
C   C119      1.0  0.49850  0.12120  0.68350  1.0000 0.1312794949
C   C120      1.0  0.65300  0.04920  0.70770  1.0000 -0.0217207138
C   C121      1.0  0.63020  0.08410  0.76290  1.0000 -0.0930939678
C   C122      1.0  0.47450  0.18120  0.78880  1.0000 0.3469775492
C   C123      1.0  0.53360  0.19800  0.84790  1.0000 -0.3171252362
C   C124      1.0  0.46840  0.25020  0.88090  1.0000 0.3469775492
C   C125      1.0  0.31590  0.25880  0.80250  1.0000 0.2393797808
C   C126      1.0  0.49100  0.33810  0.96580  1.0000 0.1463851617
C   C127      1.0  0.64360  0.29520  0.02600  1.0000 -0.0273924397
C   C128      1.0  0.61860  0.24830  0.98000  1.0000 -0.0930939678
C   C129      1.0  0.29960  0.46420  0.07170  1.0000 0.5593468868
C   C130      1.0  0.18310  0.51020  0.08270  1.0000 -0.0086629218
C   C131      1.0  0.05340  0.48520  0.07860  1.0000 -0.1086990028
C   C132      1.0  0.94410  0.52700  0.08760  1.0000 -0.0024102969
C   C133      1.0  0.96280  0.59500  0.10170  1.0000 -0.1417871299
C   C134      1.0  0.09230  0.61850  0.10800  1.0000 0.0630115667
C   C135      1.0  0.19930  0.57810  0.09770  1.0000 -0.1275702207
C   C136      1.0  0.80790  0.49810  0.07960  1.0000 0.5234887325
C   C137      1.0  0.80670  0.00020  0.57750  1.0000 0.5234887325
C   C138      1.0  0.93980  0.96910  0.58730  1.0000 -0.0024102969
C   C139      1.0  0.05330  0.00790  0.57800  1.0000 -0.1086990028
C   C140      1.0  0.17880  0.97940  0.58200  1.0000 -0.0024102969
C   C141      1.0  0.19260  0.91130  0.59840  1.0000 -0.1417871299
C   C142      1.0  0.07780  0.87440  0.61180  1.0000 0.065577934
C   C143      1.0  0.95110  0.90100  0.60520  1.0000 -0.1483030147
C   C144      1.0  0.29730  0.02410  0.56950  1.0000 0.5593468868
N   N1        1.0  0.06370  0.36380  0.48750  1.0000 -0.2882796223
N   N2        1.0  0.01290  0.28190  0.55590  1.0000 -0.0217207138
N   N3        1.0  0.83500  0.27360  0.62720  1.0000 -0.3692795388
N   N4        1.0  0.84010  0.20070  0.72180  1.0000 -0.3692795388
N   N5        1.0  0.02320  0.13370  0.74560  1.0000 -0.0217207138
N   N6        1.0  0.07430  0.08320  0.83850  1.0000 -0.2882796223
N   N7        1.0  0.06910  0.42780  0.34220  1.0000 -0.2882796223
N   N8        1.0  0.03020  0.36900  0.25190  1.0000 -0.0273924397
N   N9        1.0  0.86680  0.28920  0.23480  1.0000 -0.3617292992
N   N10       1.0  0.85940  0.21930  0.13970  1.0000 -0.3692795388
N   N11       1.0  0.02020  0.22390  0.05930  1.0000 -0.0217207138
N   N12       1.0  0.06380  0.14800  0.98330  1.0000 -0.2882796223
N   N13       1.0  0.61140  0.80990  0.87390  1.0000 0.5099192583
N   N14       1.0  0.59090  0.69660  0.36570  1.0000 0.5099192583
N   N15       1.0  0.43630  0.63620  0.98750  1.0000 -0.2882796223
N   N16       1.0  0.48710  0.71810  0.05590  1.0000 -0.0217207138
N   N17       1.0  0.66500  0.72640  0.12720  1.0000 -0.3692795388
N   N18       1.0  0.65990  0.79930  0.22180  1.0000 -0.3692795388
N   N19       1.0  0.47680  0.86630  0.24560  1.0000 -0.0217207138
N   N20       1.0  0.42570  0.91680  0.33850  1.0000 -0.2882796223
N   N21       1.0  0.43090  0.57220  0.84220  1.0000 -0.2882796223
N   N22       1.0  0.46980  0.63100  0.75190  1.0000 -0.0273924397
N   N23       1.0  0.63320  0.71080  0.73480  1.0000 -0.3617292992
N   N24       1.0  0.64060  0.78070  0.63970  1.0000 -0.3692795388
N   N25       1.0  0.47980  0.77610  0.55930  1.0000 -0.0217207138
N   N26       1.0  0.43620  0.85200  0.48330  1.0000 -0.2882796223
N   N27       1.0  0.88860  0.19010  0.37390  1.0000 0.5099192583
N   N28       1.0  0.90910  0.30340  0.86570  1.0000 0.5099192583
N   N29       1.0  0.93630  0.86380  0.01250  1.0000 -0.2882796223
N   N30       1.0  0.98710  0.78190  0.94410  1.0000 -0.0217207138
N   N31       1.0  0.16500  0.77360  0.87280  1.0000 -0.3692795388
N   N32       1.0  0.15990  0.70070  0.77820  1.0000 -0.3692795388
N   N33       1.0  0.97680  0.63370  0.75440  1.0000 -0.0217207138
N   N34       1.0  0.92570  0.58320  0.66150  1.0000 -0.2882796223
N   N35       1.0  0.93090  0.92780  0.15780  1.0000 -0.2882796223
N   N36       1.0  0.96980  0.86900  0.24810  1.0000 -0.0273924397
N   N37       1.0  0.13320  0.78920  0.26520  1.0000 -0.3617292992
N   N38       1.0  0.14060  0.71930  0.36030  1.0000 -0.3692795388
N   N39       1.0  0.97980  0.72390  0.44070  1.0000 -0.0217207138
N   N40       1.0  0.93620  0.64800  0.51670  1.0000 -0.2882796223
N   N41       1.0  0.38860  0.30990  0.62610  1.0000 0.5099192583
N   N42       1.0  0.40910  0.19660  0.13430  1.0000 0.5099192583
N   N43       1.0  0.56370  0.13620  0.51250  1.0000 -0.2882796223
N   N44       1.0  0.51290  0.21810  0.44410  1.0000 -0.0217207138
N   N45       1.0  0.33500  0.22640  0.37280  1.0000 -0.3692795388
N   N46       1.0  0.34010  0.29930  0.27820  1.0000 -0.3692795388
N   N47       1.0  0.52320  0.36630  0.25440  1.0000 -0.0217207138
N   N48       1.0  0.57430  0.41680  0.16150  1.0000 -0.2882796223
N   N49       1.0  0.56910  0.07220  0.65780  1.0000 -0.2882796223
N   N50       1.0  0.53020  0.13100  0.74810  1.0000 -0.0273924397
N   N51       1.0  0.36680  0.21080  0.76520  1.0000 -0.3617292992
N   N52       1.0  0.35940  0.28070  0.86030  1.0000 -0.3692795388
N   N53       1.0  0.52020  0.27610  0.94070  1.0000 -0.0217207138
N   N54       1.0  0.56380  0.35200  0.01670  1.0000 -0.2882796223
N   N55       1.0  0.11140  0.69010  0.12610  1.0000 0.5099192583
N   N56       1.0  0.09090  0.80340  0.63430  1.0000 0.5099192583
O   O1        1.0  0.90800  0.00746  0.94680  1.0000 -0.5677732206
O   O2        1.0  0.78430  0.09760  0.91780  1.0000 -0.5497761346
O   O3        1.0  0.29410  0.06360  0.93390  1.0000 -0.5227540112
O   O4        1.0  0.20720  0.96450  0.91280  1.0000 -0.5227540112
O   O5        1.0  0.52040  0.77030  0.87810  1.0000 -0.3073844588
O   O6        1.0  0.72400  0.79370  0.85580  1.0000 -0.3284289366
O   O7        1.0  0.29720  0.43700  0.43240  1.0000 -0.5350240446
O   O8        1.0  0.20340  0.53770  0.42250  1.0000 -0.5308482027
O   O9        1.0  0.79010  0.41450  0.41920  1.0000 -0.5497761346
O   O10       1.0  0.90410  0.50650  0.45180  1.0000 -0.5810686326
O   O11       1.0  0.69790  0.72360  0.36770  1.0000 -0.2980143404
O   O12       1.0  0.49220  0.72360  0.34300  1.0000 -0.3171252362
O   O13       1.0  0.59200  0.99254  0.44680  1.0000 -0.5677732206
O   O14       1.0  0.71570  0.90240  0.41780  1.0000 -0.5497761346
O   O15       1.0  0.20590  0.93640  0.43390  1.0000 -0.5227540112
O   O16       1.0  0.29280  0.03550  0.41280  1.0000 -0.5227540112
O   O17       1.0  0.97960  0.22970  0.37810  1.0000 -0.3073844588
O   O18       1.0  0.77600  0.20630  0.35580  1.0000 -0.3284289366
O   O19       1.0  0.20280  0.56300  0.93240  1.0000 -0.5350240446
O   O20       1.0  0.29660  0.46230  0.92250  1.0000 -0.5308482027
O   O21       1.0  0.70990  0.58550  0.91920  1.0000 -0.5497761346
O   O22       1.0  0.59590  0.49350  0.95180  1.0000 -0.5810686326
O   O23       1.0  0.80210  0.27640  0.86770  1.0000 -0.2980143404
O   O24       1.0  0.00780  0.27640  0.84300  1.0000 -0.3171252362
O   O25       1.0  0.09200  0.50746  0.55320  1.0000 -0.5677732206
O   O26       1.0  0.21570  0.59760  0.58220  1.0000 -0.5497761346
O   O27       1.0  0.70590  0.56360  0.56610  1.0000 -0.5227540112
O   O28       1.0  0.79280  0.46450  0.58720  1.0000 -0.5227540112
O   O29       1.0  0.47960  0.27030  0.62190  1.0000 -0.3073844588
O   O30       1.0  0.27600  0.29370  0.64420  1.0000 -0.3284289366
O   O31       1.0  0.70280  0.93700  0.06760  1.0000 -0.5350240446
O   O32       1.0  0.79660  0.03770  0.07750  1.0000 -0.5308482027
O   O33       1.0  0.20990  0.91450  0.08080  1.0000 -0.5497761346
O   O34       1.0  0.09590  0.00650  0.04820  1.0000 -0.5810686326
O   O35       1.0  0.30210  0.22360  0.13230  1.0000 -0.2980143404
O   O36       1.0  0.50780  0.22360  0.15700  1.0000 -0.3171252362
O   O37       1.0  0.40800  0.49254  0.05320  1.0000 -0.5677732206
O   O38       1.0  0.28430  0.40240  0.08220  1.0000 -0.5497761346
O   O39       1.0  0.79410  0.43640  0.06610  1.0000 -0.5227540112
O   O40       1.0  0.70720  0.53550  0.08720  1.0000 -0.5227540112
O   O41       1.0  0.02040  0.72970  0.12190  1.0000 -0.3073844588
O   O42       1.0  0.22400  0.70630  0.14420  1.0000 -0.3284289366
O   O43       1.0  0.79720  0.06300  0.56760  1.0000 -0.5350240446
O   O44       1.0  0.70340  0.96230  0.57750  1.0000 -0.5308482027
O   O45       1.0  0.29010  0.08550  0.58080  1.0000 -0.5497761346
O   O46       1.0  0.40410  0.99350  0.54820  1.0000 -0.5810686326
O   O47       1.0  0.19790  0.77640  0.63230  1.0000 -0.2980143404
O   O48       1.0  0.99220  0.77640  0.65700  1.0000 -0.3171252362
