# DDEC6 charges by PACMAN v1.1 (https://github.com/mtap-research/PACMAN-charge/)
data_2017[ZnMnMo][sql]2[FSR]1
_chemical_formula_sum              "Mn2 Zn3 Mo12 H124 C72 N16 O60"
_cell_length_a       11.7601
_cell_length_b       14.8366
_cell_length_c       20.9582
_cell_angle_alpha    95.541
_cell_angle_beta     105.037
_cell_angle_gamma    90.987

_symmetry_space_group_name_H-M    "P 1"
_symmetry_Int_Tables_number       1

loop_
  _symmetry_equiv_pos_as_xyz
  'x, y, z'

loop_
  _atom_site_type_symbol
  _atom_site_label
  _atom_site_symmetry_multiplicity
  _atom_site_fract_x
  _atom_site_fract_y
  _atom_site_fract_z
  _atom_site_occupancy
  _atom_site_charge
Mn  Mn1       1.0  0.00000  0.50000  0.50000  1.0000 0.9488928117
Mn  Mn2       1.0  0.00000  0.00000  0.00000  1.0000 0.9488928117
Zn  Zn1       1.0  0.58156  0.41883  0.20425  1.0000 0.8857676781
Zn  Zn2       1.0  0.41844  0.58117  0.79575  1.0000 0.8857676781
Zn  Zn3       1.0  0.50000  0.00000  0.50000  1.0000 0.8032525576
Mo  Mo1       1.0  0.22584  0.65242  0.52218  1.0000 2.0254064597
Mo  Mo2       1.0  0.08468  0.55447  0.36926  1.0000 2.0235701598
Mo  Mo3       1.0  0.86018  0.40392  0.34614  1.0000 2.0543297328
Mo  Mo4       1.0  0.93644  0.85752  0.10135  1.0000 2.0638128317
Mo  Mo5       1.0  0.18138  0.99039  0.15277  1.0000 2.0423662461
Mo  Mo6       1.0  0.24653  0.13147  0.05031  1.0000 2.0423662461
Mo  Mo7       1.0  0.77416  0.34758  0.47782  1.0000 2.0254064597
Mo  Mo8       1.0  0.91532  0.44553  0.63074  1.0000 2.0235701598
Mo  Mo9       1.0  0.13982  0.59608  0.65386  1.0000 2.0543297328
Mo  Mo10      1.0  0.06356  0.14248  0.89865  1.0000 2.0638128317
Mo  Mo11      1.0  0.81862  0.00961  0.84723  1.0000 2.0423662461
Mo  Mo12      1.0  0.75347  0.86853  0.94969  1.0000 2.0423662461
H   H1        1.0  0.49563  0.21302  0.47786  1.0000 0.1088938529
H   H2        1.0  0.37567  0.33446  0.47922  1.0000 0.1328569124
H   H3        1.0  0.17787  0.18709  0.56635  1.0000 0.1328569124
H   H4        1.0  0.30050  0.06847  0.55971  1.0000 0.1088938529
H   H5        1.0  0.03389  0.26632  0.52009  1.0000 0.1088938529
H   H6        1.0  0.09986  0.31635  0.59149  1.0000 0.1008162003
H   H7        1.0  0.19823  0.37900  0.42541  1.0000 0.1008162003
H   H8        1.0  0.09203  0.30678  0.41796  1.0000 0.118422349
H   H9        1.0  0.27313  0.42367  0.60510  1.0000 0.1008162003
H   H10       1.0  0.31101  0.45113  0.54146  1.0000 0.0903455302
H   H11       1.0  0.55041  0.22919  0.13351  1.0000 0.118422349
H   H12       1.0  0.64937  0.12687  0.07983  1.0000 0.139879637
H   H13       1.0  0.91865  0.31339  0.11428  1.0000 0.1328569124
H   H14       1.0  0.81536  0.40862  0.17028  1.0000 0.1088938529
H   H15       1.0  0.71338  0.06057  0.01041  1.0000 0.1008162003
H   H16       1.0  0.74727  0.13185  0.96509  1.0000 0.1088938529
H   H17       1.0  0.96237  0.11583  0.15406  1.0000 0.1088938529
H   H18       1.0  0.84768  0.04975  0.12734  1.0000 0.1088938529
H   H19       1.0  0.93191  0.23177  0.00735  1.0000 0.1088938529
H   H20       1.0  0.01886  0.22120  0.07856  1.0000 0.1008162003
H   H21       1.0  0.64668  0.61750  0.25308  1.0000 0.0903455302
H   H22       1.0  0.73352  0.75370  0.29158  1.0000 0.118422349
H   H23       1.0  0.79337  0.79638  0.24028  1.0000 0.1566779225
H   H24       1.0  0.87370  0.75552  0.30392  1.0000 0.139879637
H   H25       1.0  0.84722  0.64875  0.14951  1.0000 0.139879637
H   H26       1.0  0.89769  0.57512  0.19943  1.0000 0.139879637
H   H27       1.0  0.94883  0.67780  0.21607  1.0000 0.1498571042
H   H28       1.0  0.46046  0.55965  0.12613  1.0000 0.1008162003
H   H29       1.0  0.20343  0.44358  0.99199  1.0000 0.1498571042
H   H30       1.0  0.31579  0.38406  0.01608  1.0000 0.1498571042
H   H31       1.0  0.30568  0.44172  0.95428  1.0000 0.1328569124
H   H32       1.0  0.34786  0.61634  0.98313  1.0000 0.1328569124
H   H33       1.0  0.35524  0.65296  0.05853  1.0000 0.139879637
H   H34       1.0  0.23291  0.61169  0.01033  1.0000 0.139879637
H   H35       1.0  0.53132  0.43871  0.33109  1.0000 0.1008162003
H   H36       1.0  0.49612  0.46692  0.42901  1.0000 0.139879637
H   H37       1.0  0.36174  0.49508  0.41392  1.0000 0.1566779225
H   H38       1.0  0.46530  0.56734  0.45238  1.0000 0.1328569124
H   H39       1.0  0.31058  0.62149  0.32473  1.0000 0.1498571042
H   H40       1.0  0.41815  0.64488  0.29461  1.0000 0.139879637
H   H41       1.0  0.42445  0.67833  0.37041  1.0000 0.1328569124
H   H42       1.0  0.33409  0.31427  0.17031  1.0000 0.1088938529
H   H43       1.0  0.15615  0.20672  0.23410  1.0000 0.1498571042
H   H44       1.0  0.15390  0.28043  0.18290  1.0000 0.139879637
H   H45       1.0  0.14142  0.31130  0.25598  1.0000 0.1498571042
H   H46       1.0  0.32621  0.31318  0.35134  1.0000 0.1328569124
H   H47       1.0  0.44340  0.27828  0.33353  1.0000 0.139879637
H   H48       1.0  0.33727  0.20768  0.33059  1.0000 0.139879637
H   H49       1.0  0.39496  0.88799  0.37855  1.0000 0.0903455302
H   H50       1.0  0.12984  0.92961  0.41036  1.0000 0.1328569124
H   H51       1.0  0.08570  0.82737  0.38210  1.0000 0.139879637
H   H52       1.0  0.05793  0.90650  0.33426  1.0000 0.139879637
H   H53       1.0  0.18858  0.75763  0.28817  1.0000 0.1498571042
H   H54       1.0  0.29530  0.82000  0.28008  1.0000 0.1328569124
H   H55       1.0  0.16242  0.84964  0.25396  1.0000 0.1498571042
H   H56       1.0  0.65057  0.11992  0.42778  1.0000 0.1008162003
H   H57       1.0  0.42333  0.03952  0.29353  1.0000 0.1328569124
H   H58       1.0  0.52194  0.00723  0.25720  1.0000 0.139879637
H   H59       1.0  0.46089  0.10151  0.24335  1.0000 0.139879637
H   H60       1.0  0.72657  0.18725  0.35452  1.0000 0.139879637
H   H61       1.0  0.62396  0.21791  0.29513  1.0000 0.139879637
H   H62       1.0  0.69954  0.13267  0.28215  1.0000 0.139879637
H   H63       1.0  0.50437  0.78698  0.52214  1.0000 0.1088938529
H   H64       1.0  0.62433  0.66554  0.52078  1.0000 0.1328569124
H   H65       1.0  0.82213  0.81291  0.43365  1.0000 0.1328569124
H   H66       1.0  0.69950  0.93153  0.44029  1.0000 0.1088938529
H   H67       1.0  0.96611  0.73368  0.47991  1.0000 0.1088938529
H   H68       1.0  0.90014  0.68365  0.40851  1.0000 0.1008162003
H   H69       1.0  0.80177  0.62100  0.57459  1.0000 0.1008162003
H   H70       1.0  0.90797  0.69322  0.58204  1.0000 0.118422349
H   H71       1.0  0.72687  0.57633  0.39490  1.0000 0.1008162003
H   H72       1.0  0.68899  0.54887  0.45854  1.0000 0.0903455302
H   H73       1.0  0.44959  0.77081  0.86649  1.0000 0.118422349
H   H74       1.0  0.35063  0.87313  0.92017  1.0000 0.139879637
H   H75       1.0  0.08135  0.68661  0.88572  1.0000 0.1328569124
H   H76       1.0  0.18464  0.59138  0.82972  1.0000 0.1088938529
H   H77       1.0  0.28662  0.93943  0.98959  1.0000 0.1088938529
H   H78       1.0  0.25273  0.86815  0.03491  1.0000 0.1088938529
H   H79       1.0  0.03763  0.88417  0.84594  1.0000 0.1088938529
H   H80       1.0  0.15232  0.95025  0.87266  1.0000 0.1088938529
H   H81       1.0  0.06809  0.76823  0.99265  1.0000 0.1088938529
H   H82       1.0  0.98114  0.77880  0.92144  1.0000 0.1008162003
H   H83       1.0  0.35332  0.38250  0.74692  1.0000 0.0903455302
H   H84       1.0  0.26648  0.24630  0.70842  1.0000 0.118422349
H   H85       1.0  0.20663  0.20362  0.75972  1.0000 0.1566779225
H   H86       1.0  0.12630  0.24448  0.69608  1.0000 0.139879637
H   H87       1.0  0.15278  0.35125  0.85049  1.0000 0.139879637
H   H88       1.0  0.10231  0.42488  0.80057  1.0000 0.139879637
H   H89       1.0  0.05117  0.32220  0.78393  1.0000 0.1498571042
H   H90       1.0  0.53954  0.44035  0.87387  1.0000 0.1008162003
H   H91       1.0  0.79657  0.55642  0.00801  1.0000 0.1498571042
H   H92       1.0  0.68421  0.61594  0.98392  1.0000 0.1498571042
H   H93       1.0  0.69432  0.55828  0.04572  1.0000 0.1328569124
H   H94       1.0  0.65214  0.38366  0.01687  1.0000 0.1328569124
H   H95       1.0  0.64476  0.34704  0.94147  1.0000 0.139879637
H   H96       1.0  0.76709  0.38831  0.98967  1.0000 0.139879637
H   H97       1.0  0.46868  0.56129  0.66891  1.0000 0.1008162003
H   H98       1.0  0.50388  0.53308  0.57099  1.0000 0.139879637
H   H99       1.0  0.63826  0.50492  0.58608  1.0000 0.1566779225
H   H100      1.0  0.53470  0.43266  0.54762  1.0000 0.1328569124
H   H101      1.0  0.68942  0.37851  0.67527  1.0000 0.1498571042
H   H102      1.0  0.58185  0.35512  0.70539  1.0000 0.139879637
H   H103      1.0  0.57555  0.32167  0.62959  1.0000 0.1328569124
H   H104      1.0  0.66591  0.68573  0.82969  1.0000 0.1088938529
H   H105      1.0  0.84385  0.79328  0.76590  1.0000 0.1498571042
H   H106      1.0  0.84610  0.71957  0.81710  1.0000 0.139879637
H   H107      1.0  0.85858  0.68870  0.74402  1.0000 0.1498571042
H   H108      1.0  0.67379  0.68682  0.64866  1.0000 0.1328569124
H   H109      1.0  0.55660  0.72172  0.66647  1.0000 0.139879637
H   H110      1.0  0.66273  0.79232  0.66941  1.0000 0.139879637
H   H111      1.0  0.60504  0.11201  0.62145  1.0000 0.0903455302
H   H112      1.0  0.87016  0.07039  0.58964  1.0000 0.1328569124
H   H113      1.0  0.91430  0.17263  0.61790  1.0000 0.139879637
H   H114      1.0  0.94207  0.09350  0.66574  1.0000 0.139879637
H   H115      1.0  0.81142  0.24237  0.71183  1.0000 0.1498571042
H   H116      1.0  0.70470  0.18000  0.71992  1.0000 0.1328569124
H   H117      1.0  0.83758  0.15036  0.74604  1.0000 0.1498571042
H   H118      1.0  0.34943  0.88008  0.57222  1.0000 0.1008162003
H   H119      1.0  0.57667  0.96048  0.70647  1.0000 0.1328569124
H   H120      1.0  0.47806  0.99277  0.74280  1.0000 0.139879637
H   H121      1.0  0.53911  0.89849  0.75665  1.0000 0.139879637
H   H122      1.0  0.27343  0.81275  0.64548  1.0000 0.139879637
H   H123      1.0  0.37604  0.78209  0.70487  1.0000 0.139879637
H   H124      1.0  0.30046  0.86733  0.71785  1.0000 0.139879637
C   C1        1.0  0.42874  0.20679  0.49482  1.0000 0.0903455302
C   C2        1.0  0.35716  0.28014  0.49568  1.0000 -0.2127661012
C   C3        1.0  0.25814  0.27475  0.52055  1.0000 0.1088938529
C   C4        1.0  0.24088  0.19387  0.54631  1.0000 -0.2127661012
C   C5        1.0  0.31581  0.12318  0.54270  1.0000 0.0820102937
C   C6        1.0  0.17294  0.35278  0.51678  1.0000 0.0577613957
C   C7        1.0  0.06928  0.32514  0.54394  1.0000 -0.0225710102
C   C8        1.0  0.12927  0.36493  0.44214  1.0000 -0.0103093527
C   C9        1.0  0.24240  0.43793  0.55872  1.0000 -0.0103093527
C   C10       1.0  0.62684  0.24603  0.13024  1.0000 0.1088938529
C   C11       1.0  0.68523  0.18494  0.09755  1.0000 -0.2024082892
C   C12       1.0  0.79664  0.20789  0.09033  1.0000 0.1088938529
C   C13       1.0  0.84356  0.29380  0.11806  1.0000 -0.2162808978
C   C14       1.0  0.78085  0.35064  0.15112  1.0000 0.1008162003
C   C15       1.0  0.86580  0.13847  0.05856  1.0000 0.0406713931
C   C16       1.0  0.77986  0.08767  0.99685  1.0000 -0.0040388938
C   C17       1.0  0.91488  0.07722  0.11467  1.0000 0.0062125315
C   C18       1.0  0.96629  0.18727  0.03846  1.0000 -0.0103093527
C   C19       1.0  0.70161  0.60204  0.22806  1.0000 0.2896476385
C   C20       1.0  0.79810  0.74870  0.27002  1.0000 -0.348792434
C   C21       1.0  0.87795  0.63873  0.19630  1.0000 -0.3210764431
C   C22       1.0  0.42511  0.50658  0.09858  1.0000 0.2733133681
C   C23       1.0  0.28860  0.44042  0.99753  1.0000 -0.3210764431
C   C24       1.0  0.31870  0.60687  0.02184  1.0000 -0.348792434
C   C25       1.0  0.49757  0.49272  0.31534  1.0000 0.2896476385
C   C26       1.0  0.44277  0.51634  0.41760  1.0000 -0.3634814822
C   C27       1.0  0.39650  0.62941  0.33445  1.0000 -0.3401514096
C   C28       1.0  0.37256  0.30545  0.21493  1.0000 0.3036140002
C   C29       1.0  0.17910  0.26916  0.22970  1.0000 -0.348792434
C   C30       1.0  0.35750  0.26935  0.32292  1.0000 -0.3401514096
C   C31       1.0  0.32621  0.89869  0.39345  1.0000 0.2896476385
C   C32       1.0  0.11580  0.88449  0.37149  1.0000 -0.306927716
C   C33       1.0  0.21720  0.82017  0.28857  1.0000 -0.3330121838
C   C34       1.0  0.58834  0.09008  0.39350  1.0000 0.2833491213
C   C35       1.0  0.48910  0.05980  0.27700  1.0000 -0.3210764431
C   C36       1.0  0.66445  0.16588  0.31450  1.0000 -0.3401514096
C   C37       1.0  0.57126  0.79321  0.50518  1.0000 0.0903455302
C   C38       1.0  0.64284  0.71986  0.50432  1.0000 -0.2127661012
C   C39       1.0  0.74186  0.72525  0.47945  1.0000 0.1088938529
C   C40       1.0  0.75912  0.80613  0.45369  1.0000 -0.2127661012
C   C41       1.0  0.68419  0.87682  0.45730  1.0000 0.0820102937
C   C42       1.0  0.82706  0.64722  0.48322  1.0000 0.0577613957
C   C43       1.0  0.93072  0.67486  0.45606  1.0000 -0.0225710102
C   C44       1.0  0.87073  0.63507  0.55786  1.0000 -0.0103093527
C   C45       1.0  0.75760  0.56207  0.44128  1.0000 -0.0103093527
C   C46       1.0  0.37316  0.75397  0.86976  1.0000 0.1088938529
C   C47       1.0  0.31477  0.81506  0.90245  1.0000 -0.2024082892
C   C48       1.0  0.20336  0.79211  0.90967  1.0000 0.1088938529
C   C49       1.0  0.15644  0.70620  0.88194  1.0000 -0.2162808978
C   C50       1.0  0.21915  0.64936  0.84888  1.0000 0.1008162003
C   C51       1.0  0.13420  0.86153  0.94144  1.0000 0.0406713931
C   C52       1.0  0.22014  0.91233  0.00315  1.0000 -0.0040388938
C   C53       1.0  0.08512  0.92278  0.88533  1.0000 0.0062125315
C   C54       1.0  0.03371  0.81273  0.96154  1.0000 -0.0103093527
C   C55       1.0  0.29839  0.39796  0.77194  1.0000 0.2896476385
C   C56       1.0  0.20190  0.25130  0.72998  1.0000 -0.348792434
C   C57       1.0  0.12205  0.36127  0.80370  1.0000 -0.3210764431
C   C58       1.0  0.57489  0.49342  0.90142  1.0000 0.2733133681
C   C59       1.0  0.71140  0.55958  0.00247  1.0000 -0.3210764431
C   C60       1.0  0.68130  0.39313  0.97816  1.0000 -0.348792434
C   C61       1.0  0.50243  0.50728  0.68466  1.0000 0.2896476385
C   C62       1.0  0.55723  0.48366  0.58240  1.0000 -0.3634814822
C   C63       1.0  0.60350  0.37059  0.66555  1.0000 -0.3401514096
C   C64       1.0  0.62744  0.69455  0.78507  1.0000 0.3036140002
C   C65       1.0  0.82090  0.73084  0.77030  1.0000 -0.348792434
C   C66       1.0  0.64250  0.73065  0.67708  1.0000 -0.3401514096
C   C67       1.0  0.67379  0.10131  0.60655  1.0000 0.2896476385
C   C68       1.0  0.88420  0.11551  0.62851  1.0000 -0.306927716
C   C69       1.0  0.78280  0.17983  0.71143  1.0000 -0.3330121838
C   C70       1.0  0.41166  0.90992  0.60650  1.0000 0.2833491213
C   C71       1.0  0.51090  0.94020  0.72300  1.0000 -0.3210764431
C   C72       1.0  0.33555  0.83412  0.68550  1.0000 -0.3401514096
N   N1        1.0  0.40831  0.12752  0.51670  1.0000 -0.2382318579
N   N2        1.0  0.67394  0.32819  0.15755  1.0000 -0.2333826624
N   N3        1.0  0.78888  0.66031  0.23180  1.0000 0.0406713931
N   N4        1.0  0.34859  0.51680  0.04205  1.0000 0.0406713931
N   N5        1.0  0.45040  0.54548  0.35469  1.0000 0.0479648868
N   N6        1.0  0.30653  0.28258  0.25363  1.0000 0.0479648868
N   N7        1.0  0.22500  0.86973  0.35341  1.0000 0.0479648868
N   N8        1.0  0.58012  0.10611  0.33190  1.0000 0.0406713931
N   N9        1.0  0.59169  0.87248  0.48330  1.0000 -0.2382318579
N   N10       1.0  0.32606  0.67181  0.84245  1.0000 -0.2333826624
N   N11       1.0  0.21112  0.33969  0.76820  1.0000 0.0406713931
N   N12       1.0  0.65141  0.48320  0.95795  1.0000 0.0406713931
N   N13       1.0  0.54960  0.45452  0.64531  1.0000 0.0479648868
N   N14       1.0  0.69347  0.71742  0.74637  1.0000 0.0479648868
N   N15       1.0  0.77500  0.13027  0.64659  1.0000 0.0479648868
N   N16       1.0  0.41988  0.89389  0.66810  1.0000 0.0406713931
O   O1        1.0  0.37169  0.65179  0.56344  1.0000 -0.6984643542
O   O2        1.0  0.20881  0.75429  0.49032  1.0000 -0.6696009241
O   O3        1.0  0.21923  0.57085  0.44547  1.0000 -0.8688953806
O   O4        1.0  0.14568  0.48253  0.32030  1.0000 -0.6580192649
O   O5        1.0  0.08325  0.65758  0.33977  1.0000 -0.6696009241
O   O6        1.0  0.91939  0.52146  0.33799  1.0000 -0.8688953806
O   O7        1.0  0.92839  0.33739  0.29824  1.0000 -0.6334090435
O   O8        1.0  0.85109  0.31947  0.40836  1.0000 -0.8688953806
O   O9        1.0  0.71636  0.40762  0.30008  1.0000 -0.7092566692
O   O10       1.0  0.92402  0.74298  0.08086  1.0000 -0.6488067709
O   O11       1.0  0.79156  0.89302  0.04428  1.0000 -0.8618161582
O   O12       1.0  0.90481  0.87611  0.17639  1.0000 -0.6580192649
O   O13       1.0  0.10455  0.87219  0.12446  1.0000 -0.8618161582
O   O14       1.0  0.32272  0.95669  0.16662  1.0000 -0.6410645746
O   O15       1.0  0.15889  0.01699  0.22929  1.0000 -0.6580192649
O   O16       1.0  0.19708  0.11005  0.12830  1.0000 -0.8688953806
O   O17       1.0  0.38948  0.10055  0.07029  1.0000 -0.6488067709
O   O18       1.0  0.25108  0.24695  0.06101  1.0000 -0.6580192649
O   O19       1.0  0.97883  0.39025  0.53747  1.0000 -0.5993835631
O   O20       1.0  0.04637  0.43491  0.42711  1.0000 -0.5993835631
O   O21       1.0  0.17592  0.51772  0.55912  1.0000 -0.6112789117
O   O22       1.0  0.83261  0.01734  0.96368  1.0000 -0.621791368
O   O23       1.0  0.98554  0.00665  0.09797  1.0000 -0.621791368
O   O24       1.0  0.03524  0.12681  0.00761  1.0000 -0.5993835631
O   O25       1.0  0.68688  0.52720  0.19330  1.0000 -0.4849898421
O   O26       1.0  0.45420  0.43213  0.11832  1.0000 -0.4699655774
O   O27       1.0  0.50066  0.50927  0.25867  1.0000 -0.4926760398
O   O28       1.0  0.48173  0.31617  0.23309  1.0000 -0.4699655774
O   O29       1.0  0.33918  0.93961  0.45018  1.0000 -0.4699655774
O   O30       1.0  0.51841  0.03757  0.40920  1.0000 -0.4953148269
O   O31       1.0  0.62831  0.34821  0.43656  1.0000 -0.6984643542
O   O32       1.0  0.79119  0.24571  0.50968  1.0000 -0.6696009241
O   O33       1.0  0.78077  0.42915  0.55453  1.0000 -0.8688953806
O   O34       1.0  0.85432  0.51747  0.67970  1.0000 -0.6580192649
O   O35       1.0  0.91675  0.34242  0.66023  1.0000 -0.6696009241
O   O36       1.0  0.08061  0.47854  0.66201  1.0000 -0.8688953806
O   O37       1.0  0.07161  0.66261  0.70176  1.0000 -0.6334090435
O   O38       1.0  0.14891  0.68053  0.59164  1.0000 -0.8688953806
O   O39       1.0  0.28364  0.59238  0.69992  1.0000 -0.7092566692
O   O40       1.0  0.07598  0.25702  0.91914  1.0000 -0.6488067709
O   O41       1.0  0.20844  0.10698  0.95572  1.0000 -0.8618161582
O   O42       1.0  0.09519  0.12389  0.82361  1.0000 -0.6580192649
O   O43       1.0  0.89545  0.12781  0.87554  1.0000 -0.8618161582
O   O44       1.0  0.67728  0.04331  0.83338  1.0000 -0.6410645746
O   O45       1.0  0.84111  0.98301  0.77071  1.0000 -0.6580192649
O   O46       1.0  0.80292  0.88995  0.87170  1.0000 -0.8751107656
O   O47       1.0  0.61052  0.89945  0.92971  1.0000 -0.6488067709
O   O48       1.0  0.74892  0.75305  0.93899  1.0000 -0.6580192649
O   O49       1.0  0.02117  0.60975  0.46253  1.0000 -0.5993835631
O   O50       1.0  0.95363  0.56509  0.57289  1.0000 -0.5993835631
O   O51       1.0  0.82408  0.48228  0.44088  1.0000 -0.6112789117
O   O52       1.0  0.16739  0.98266  0.03632  1.0000 -0.621791368
O   O53       1.0  0.01446  0.99335  0.90203  1.0000 -0.621791368
O   O54       1.0  0.96476  0.87319  0.99239  1.0000 -0.5993835631
O   O55       1.0  0.31312  0.47280  0.80670  1.0000 -0.4849898421
O   O56       1.0  0.54580  0.56787  0.88168  1.0000 -0.4699655774
O   O57       1.0  0.49934  0.49073  0.74133  1.0000 -0.4926760398
O   O58       1.0  0.51827  0.68383  0.76691  1.0000 -0.4699655774
O   O59       1.0  0.66082  0.06039  0.54982  1.0000 -0.4699655774
O   O60       1.0  0.48159  0.96243  0.59080  1.0000 -0.4953148269
