# DDEC6 charges by PACMAN v1.1 (https://github.com/mtap-research/PACMAN-charge/)
data_2017[Nd][mog]3[FSR]1
_chemical_formula_sum              "Nd2 H6 C18 N6 O16"
_cell_length_a       6.0736
_cell_length_b       10.4912
_cell_length_c       13.579
_cell_angle_alpha    72.133
_cell_angle_beta     89.023
_cell_angle_gamma    89.009

_symmetry_space_group_name_H-M    "P 1"
_symmetry_Int_Tables_number       1

loop_
  _symmetry_equiv_pos_as_xyz
  'x, y, z'

loop_
  _atom_site_type_symbol
  _atom_site_label
  _atom_site_symmetry_multiplicity
  _atom_site_fract_x
  _atom_site_fract_y
  _atom_site_fract_z
  _atom_site_occupancy
  _atom_site_charge
Nd  Nd1       1.0  0.25094  0.66019  0.70838  1.0000 1.8274708317
Nd  Nd2       1.0  0.74906  0.33981  0.29162  1.0000 1.8274708317
H   H1        1.0  0.81190  0.91330  0.65060  1.0000 0.1588358061
H   H2        1.0  0.70190  0.46680  0.86820  1.0000 0.1487338172
H   H3        1.0  0.35080  0.57310  0.47140  1.0000 0.1487338172
H   H4        1.0  0.18810  0.08670  0.34940  1.0000 0.1588358061
H   H5        1.0  0.29810  0.53320  0.13180  1.0000 0.1487338172
H   H6        1.0  0.64920  0.42690  0.52860  1.0000 0.1487338172
C   C1        1.0  0.18710  0.93930  0.48620  1.0000 0.0708586078
C   C2        1.0  0.89160  0.94720  0.58930  1.0000 0.0883512294
C   C3        1.0  0.31670  0.57420  0.97700  1.0000 0.0584847705
C   C4        1.0  0.61700  0.48180  0.92130  1.0000 0.0708586078
C   C5        1.0  0.88410  0.52900  0.57440  1.0000 0.0883512294
C   C6        1.0  0.20650  0.54390  0.48440  1.0000 0.0708586078
C   C7        1.0  0.39970  0.86900  0.47230  1.0000 0.5350935982
C   C8        1.0  0.10980  0.65800  0.94980  1.0000 0.557976477
C   C9        1.0  0.75400  0.56810  0.65710  1.0000 0.557976477
C   C10       1.0  0.81290  0.06070  0.51380  1.0000 0.0708586078
C   C11       1.0  0.10840  0.05280  0.41070  1.0000 0.0883512294
C   C12       1.0  0.68330  0.42580  0.02300  1.0000 0.0584847705
C   C13       1.0  0.38300  0.51820  0.07870  1.0000 0.0708586078
C   C14       1.0  0.11590  0.47100  0.42560  1.0000 0.0883512294
C   C15       1.0  0.79350  0.45610  0.51560  1.0000 0.0708586078
C   C16       1.0  0.60030  0.13100  0.52770  1.0000 0.5350935982
C   C17       1.0  0.89020  0.34200  0.05020  1.0000 0.557976477
C   C18       1.0  0.24600  0.43190  0.34290  1.0000 0.557976477
N   N1        1.0  0.07840  0.88640  0.57540  1.0000 -0.2523067815
N   N2        1.0  0.43370  0.55680  0.89790  1.0000 -0.2415414824
N   N3        1.0  0.09020  0.57260  0.55910  1.0000 -0.2629144116
N   N4        1.0  0.92160  0.11360  0.42460  1.0000 -0.2523067815
N   N5        1.0  0.56630  0.44320  0.10210  1.0000 -0.2415414824
N   N6        1.0  0.90980  0.42740  0.44090  1.0000 -0.2629144116
O   O1        1.0  0.45410  0.77030  0.54700  1.0000 -0.5759862138
O   O2        1.0  0.06360  0.69950  0.85530  1.0000 -0.5383994652
O   O3        1.0  0.84820  0.64130  0.69930  1.0000 -0.530660577
O   O4        1.0  0.15570  0.41850  0.78200  1.0000 -0.2756322397
O   O5        1.0  0.43940  0.84400  0.74660  1.0000 -0.3363830222
O   O6        1.0  0.55980  0.52420  0.67580  1.0000 -0.561511494
O   O7        1.0  0.50390  0.91230  0.38970  1.0000 -0.4086243881
O   O8        1.0  0.99880  0.68050  0.02010  1.0000 -0.3954633845
O   O9        1.0  0.54590  0.22970  0.45300  1.0000 -0.5759862138
O   O10       1.0  0.93640  0.30050  0.14470  1.0000 -0.5383994652
O   O11       1.0  0.15180  0.35870  0.30070  1.0000 -0.530660577
O   O12       1.0  0.84430  0.58150  0.21800  1.0000 -0.272951342
O   O13       1.0  0.56060  0.15600  0.25340  1.0000 -0.3453847541
O   O14       1.0  0.44020  0.47580  0.32420  1.0000 -0.561511494
O   O15       1.0  0.49610  0.08770  0.61030  1.0000 -0.4086243881
O   O16       1.0  0.00120  0.31950  0.97990  1.0000 -0.3954633845
