# DDEC6 charges by PACMAN v1.1 (https://github.com/mtap-research/PACMAN-charge/)
data_2017[Co][sql]2[FSR]11
_chemical_formula_sum              "Co2 H40 C54 N4 O16"
_cell_length_a       10.173
_cell_length_b       11.281
_cell_length_c       14.564
_cell_angle_alpha    99.93
_cell_angle_beta     105.978
_cell_angle_gamma    104.608

_symmetry_space_group_name_H-M    "P 1"
_symmetry_Int_Tables_number       1

loop_
  _symmetry_equiv_pos_as_xyz
  'x, y, z'

loop_
  _atom_site_type_symbol
  _atom_site_label
  _atom_site_symmetry_multiplicity
  _atom_site_fract_x
  _atom_site_fract_y
  _atom_site_fract_z
  _atom_site_occupancy
  _atom_site_charge
Co  Co1       1.0  0.64943  0.89170  0.55062  1.0000 0.8537976399
Co  Co2       1.0  0.35057  0.10830  0.44938  1.0000 0.8537976399
H   H1        1.0  0.91470  0.12520  0.64610  1.0000 0.1124810284
H   H2        1.0  0.66900  0.94330  0.77140  1.0000 0.1215275039
H   H3        1.0  0.06170  0.26150  0.79590  1.0000 0.1304908518
H   H4        1.0  0.80790  0.07160  0.92320  1.0000 0.1304908518
H   H5        1.0  0.31440  0.65910  0.60860  1.0000 0.1215275039
H   H6        1.0  0.09230  0.89670  0.53630  1.0000 0.1304908518
H   H7        1.0  0.09640  0.41930  0.90970  1.0000 0.1215275039
H   H8        1.0  0.91640  0.59660  0.62640  1.0000 0.1215275039
H   H9        1.0  0.17010  0.32930  0.21350  1.0000 0.1304908518
H   H10       1.0  0.23850  0.39760  0.67090  1.0000 0.3658471957
H   H11       1.0  0.05530  0.13680  0.21010  1.0000 0.1215275039
H   H12       1.0  0.90970  0.03140  0.14490  1.0000 0.1304908518
H   H13       1.0  0.91500  0.17350  0.17230  1.0000 0.1215275039
H   H14       1.0  0.26530  0.59050  0.91530  1.0000 0.1304908518
H   H15       1.0  0.27460  0.73000  0.96080  1.0000 0.1304908518
H   H16       1.0  0.12620  0.62160  0.92250  1.0000 0.1215275039
H   H17       1.0  0.28610  0.72660  0.20640  1.0000 0.1215275039
H   H18       1.0  0.38510  0.44990  0.31970  1.0000 0.1394097463
H   H19       1.0  0.44310  0.86830  0.34680  1.0000 0.1124810284
H   H20       1.0  0.54190  0.59970  0.45810  1.0000 0.1124810284
H   H21       1.0  0.08530  0.87480  0.35390  1.0000 0.1124810284
H   H22       1.0  0.33100  0.05670  0.22860  1.0000 0.1215275039
H   H23       1.0  0.93830  0.73850  0.20410  1.0000 0.1304908518
H   H24       1.0  0.19210  0.92840  0.07680  1.0000 0.1304908518
H   H25       1.0  0.68560  0.34090  0.39140  1.0000 0.1215275039
H   H26       1.0  0.90770  0.10330  0.46370  1.0000 0.1304908518
H   H27       1.0  0.90360  0.58070  0.09030  1.0000 0.1215275039
H   H28       1.0  0.08360  0.40340  0.37360  1.0000 0.1215275039
H   H29       1.0  0.82990  0.67070  0.78650  1.0000 0.1304908518
H   H30       1.0  0.76150  0.60240  0.32910  1.0000 0.3658471957
H   H31       1.0  0.94470  0.86320  0.78990  1.0000 0.1215275039
H   H32       1.0  0.09030  0.96860  0.85510  1.0000 0.1304908518
H   H33       1.0  0.08500  0.82650  0.82770  1.0000 0.1215275039
H   H34       1.0  0.73470  0.40950  0.08470  1.0000 0.1304908518
H   H35       1.0  0.72540  0.27000  0.03920  1.0000 0.1304908518
H   H36       1.0  0.87380  0.37840  0.07750  1.0000 0.1215275039
H   H37       1.0  0.71390  0.27340  0.79360  1.0000 0.1215275039
H   H38       1.0  0.61490  0.55010  0.68030  1.0000 0.1394097463
H   H39       1.0  0.55690  0.13170  0.65320  1.0000 0.1124810284
H   H40       1.0  0.45810  0.40030  0.54190  1.0000 0.1124810284
C   C1        1.0  0.89180  0.11400  0.70220  1.0000 0.0978287787
C   C2        1.0  0.74940  0.00850  0.77590  1.0000 0.0600261867
C   C3        1.0  0.35350  0.87690  0.55780  1.0000 0.5802890316
C   C4        1.0  0.98150  0.19720  0.79300  1.0000 -0.1981754794
C   C5        1.0  0.83210  0.08560  0.86800  1.0000 -0.1981754794
C   C6        1.0  0.22490  0.79230  0.57190  1.0000 -0.0205744936
C   C7        1.0  0.95250  0.18500  0.87830  1.0000 0.1215275039
C   C8        1.0  0.23180  0.68290  0.60180  1.0000 -0.1255733415
C   C9        1.0  0.09910  0.82540  0.55870  1.0000 -0.1146087095
C   C10       1.0  0.04500  0.27890  0.97450  1.0000 -0.0205744936
C   C11       1.0  0.11640  0.60870  0.62150  1.0000 -0.0378325271
C   C12       1.0  0.98250  0.75110  0.57920  1.0000 -0.0205744936
C   C13       1.0  0.11030  0.40120  0.97090  1.0000 -0.2698945447
C   C14       1.0  0.06680  0.25380  0.06680  1.0000 0.1909902349
C   C15       1.0  0.99250  0.64470  0.61130  1.0000 -0.1215321019
C   C16       1.0  0.12780  0.49520  0.65920  1.0000 0.5298292295
C   C17       1.0  0.85120  0.79230  0.56870  1.0000 0.5298292295
C   C18       1.0  0.19560  0.49720  0.05560  1.0000 0.2002218769
C   C19       1.0  0.15520  0.34860  0.15260  1.0000 -0.2698945447
C   C20       1.0  0.22250  0.47260  0.14960  1.0000 -0.0205744936
C   C21       1.0  0.96730  0.11770  0.15620  1.0000 -0.2285850986
C   C22       1.0  0.22820  0.64220  0.95430  1.0000 -0.2439821407
C   C23       1.0  0.31840  0.56830  0.24250  1.0000 0.1304908518
C   C24       1.0  0.33810  0.69800  0.25610  1.0000 -0.1849748239
C   C25       1.0  0.39650  0.53500  0.32270  1.0000 -0.187288855
C   C26       1.0  0.43220  0.78270  0.34110  1.0000 0.0829849795
C   C27       1.0  0.49020  0.62600  0.40660  1.0000 0.0854931131
C   C28       1.0  0.10820  0.88600  0.29780  1.0000 0.0978287787
C   C29       1.0  0.25060  0.99150  0.22410  1.0000 0.0600261867
C   C30       1.0  0.64650  0.12310  0.44220  1.0000 0.5802890316
C   C31       1.0  0.01850  0.80280  0.20700  1.0000 -0.1981754794
C   C32       1.0  0.16790  0.91440  0.13200  1.0000 -0.1981754794
C   C33       1.0  0.77510  0.20770  0.42810  1.0000 -0.0205744936
C   C34       1.0  0.04750  0.81500  0.12170  1.0000 0.1215275039
C   C35       1.0  0.76820  0.31710  0.39820  1.0000 -0.1255733415
C   C36       1.0  0.90090  0.17460  0.44130  1.0000 -0.1146087095
C   C37       1.0  0.95500  0.72110  0.02550  1.0000 -0.0205744936
C   C38       1.0  0.88360  0.39130  0.37850  1.0000 -0.0378325271
C   C39       1.0  0.01750  0.24890  0.42080  1.0000 -0.0205744936
C   C40       1.0  0.88970  0.59880  0.02910  1.0000 -0.2698945447
C   C41       1.0  0.93320  0.74620  0.93320  1.0000 0.1909902349
C   C42       1.0  0.00750  0.35530  0.38870  1.0000 -0.1215321019
C   C43       1.0  0.87220  0.50480  0.34080  1.0000 0.5298292295
C   C44       1.0  0.14880  0.20770  0.43130  1.0000 0.5298292295
C   C45       1.0  0.80440  0.50280  0.94440  1.0000 0.2002218769
C   C46       1.0  0.84480  0.65140  0.84740  1.0000 -0.2698945447
C   C47       1.0  0.77750  0.52740  0.85040  1.0000 -0.0205744936
C   C48       1.0  0.03270  0.88230  0.84380  1.0000 -0.2285850986
C   C49       1.0  0.77180  0.35780  0.04570  1.0000 -0.2439821407
C   C50       1.0  0.68160  0.43170  0.75750  1.0000 0.1304908518
C   C51       1.0  0.66190  0.30200  0.74390  1.0000 -0.1849748239
C   C52       1.0  0.60350  0.46500  0.67730  1.0000 -0.187288855
C   C53       1.0  0.56780  0.21730  0.65890  1.0000 0.0829849795
C   C54       1.0  0.50980  0.37400  0.59340  1.0000 0.0854931131
N   N1        1.0  0.77510  0.01930  0.69110  1.0000 -0.2565204247
N   N2        1.0  0.51120  0.75030  0.41810  1.0000 -0.2509942099
N   N3        1.0  0.22490  0.98070  0.30890  1.0000 -0.2565204247
N   N4        1.0  0.48880  0.24970  0.58190  1.0000 -0.2509942099
O   O1        1.0  0.83950  0.87770  0.52460  1.0000 -0.5279735669
O   O2        1.0  0.75940  0.74650  0.60610  1.0000 -0.5651282414
O   O3        1.0  0.47460  0.86040  0.59590  1.0000 -0.563842003
O   O4        1.0  0.66330  0.04310  0.48860  1.0000 -0.5441071137
O   O5        1.0  0.99930  0.13430  0.07060  1.0000 -0.1422462955
O   O6        1.0  0.23520  0.45830  0.64740  1.0000 -0.4315834984
O   O7        1.0  0.04730  0.44490  0.69710  1.0000 -0.4938028797
O   O8        1.0  0.25590  0.61880  0.05160  1.0000 -0.1526508227
O   O9        1.0  0.16050  0.12230  0.47540  1.0000 -0.5279735669
O   O10       1.0  0.24060  0.25350  0.39390  1.0000 -0.5651282414
O   O11       1.0  0.52540  0.13960  0.40410  1.0000 -0.563842003
O   O12       1.0  0.33670  0.95690  0.51140  1.0000 -0.5441071137
O   O13       1.0  0.00070  0.86570  0.92940  1.0000 -0.1422462955
O   O14       1.0  0.76480  0.54170  0.35260  1.0000 -0.4315834984
O   O15       1.0  0.95270  0.55510  0.30290  1.0000 -0.4938028797
O   O16       1.0  0.74410  0.38120  0.94840  1.0000 -0.1526508227
