# DDEC6 charges by PACMAN v1.1 (https://github.com/mtap-research/PACMAN-charge/)
data_2017[Mn][nan]3[FSR]1
_chemical_formula_sum              "Mn12 H48 C60 N24 O36"
_cell_length_a       14.208
_cell_length_b       14.095
_cell_length_c       15.117
_cell_angle_alpha    90
_cell_angle_beta     105.31
_cell_angle_gamma    90

_symmetry_space_group_name_H-M    "P 1"
_symmetry_Int_Tables_number       1

loop_
  _symmetry_equiv_pos_as_xyz
  'x, y, z'

loop_
  _atom_site_type_symbol
  _atom_site_label
  _atom_site_symmetry_multiplicity
  _atom_site_fract_x
  _atom_site_fract_y
  _atom_site_fract_z
  _atom_site_occupancy
  _atom_site_charge
Mn  Mn1       1.0  0.33025  0.14504  0.84044  1.0000 0.9312412851
Mn  Mn2       1.0  0.24797  0.97585  0.98343  1.0000 0.8644792253
Mn  Mn3       1.0  0.66975  0.64504  0.65956  1.0000 0.9312412851
Mn  Mn4       1.0  0.75203  0.47585  0.51657  1.0000 0.8655805105
Mn  Mn5       1.0  0.66975  0.85496  0.15956  1.0000 0.9312412851
Mn  Mn6       1.0  0.75203  0.02415  0.01657  1.0000 0.8655805105
Mn  Mn7       1.0  0.33025  0.35496  0.34044  1.0000 0.9312412851
Mn  Mn8       1.0  0.24797  0.52415  0.48343  1.0000 0.8644792253
Mn  Mn9       1.0  0.50000  0.00000  0.00000  1.0000 0.8928745204
Mn  Mn10      1.0  0.50000  0.50000  0.50000  1.0000 0.8928745204
Mn  Mn11      1.0  0.00000  0.00000  0.00000  1.0000 0.9047320896
Mn  Mn12      1.0  0.00000  0.50000  0.50000  1.0000 0.9047320896
H   H1        1.0  0.35600  0.10600  0.01900  1.0000 0.3742309326
H   H2        1.0  0.28400  0.32300  0.87900  1.0000 0.3227542056
H   H3        1.0  0.34600  0.29400  0.95660  1.0000 0.3227542056
H   H4        1.0  0.29400  0.27250  0.69500  1.0000 0.3298700714
H   H5        1.0  0.31500  0.19100  0.65900  1.0000 0.3227542056
H   H6        1.0  0.79780  0.25180  0.92720  1.0000 0.1363178958
H   H7        1.0  0.76990  0.38250  0.82970  1.0000 0.1313071388
H   H8        1.0  0.48050  0.31670  0.73360  1.0000 0.1363178958
H   H9        1.0  0.85920  0.13880  0.81700  1.0000 0.1313071388
H   H10       1.0  0.81920  0.24860  0.69750  1.0000 0.1223158439
H   H11       1.0  0.10120  0.25990  0.68010  1.0000 0.1223158439
H   H12       1.0  0.16550  0.07570  0.18290  1.0000 0.0945897066
H   H13       1.0  0.64400  0.60600  0.48100  1.0000 0.3742309326
H   H14       1.0  0.71600  0.82300  0.62100  1.0000 0.3227542056
H   H15       1.0  0.65400  0.79400  0.54340  1.0000 0.3227542056
H   H16       1.0  0.70600  0.77250  0.80500  1.0000 0.3298700714
H   H17       1.0  0.68500  0.69100  0.84100  1.0000 0.3227542056
H   H18       1.0  0.20220  0.75180  0.57280  1.0000 0.1363178958
H   H19       1.0  0.23010  0.88250  0.67030  1.0000 0.1313071388
H   H20       1.0  0.51950  0.81670  0.76640  1.0000 0.1363178958
H   H21       1.0  0.14080  0.63880  0.68300  1.0000 0.1313071388
H   H22       1.0  0.18080  0.74860  0.80250  1.0000 0.1223158439
H   H23       1.0  0.89880  0.75990  0.81990  1.0000 0.1223158439
H   H24       1.0  0.83450  0.57570  0.31710  1.0000 0.0945897066
H   H25       1.0  0.64400  0.89400  0.98100  1.0000 0.3742309326
H   H26       1.0  0.71600  0.67700  0.12100  1.0000 0.3227542056
H   H27       1.0  0.65400  0.70600  0.04340  1.0000 0.3227542056
H   H28       1.0  0.70600  0.72750  0.30500  1.0000 0.3298700714
H   H29       1.0  0.68500  0.80900  0.34100  1.0000 0.3227542056
H   H30       1.0  0.20220  0.74820  0.07280  1.0000 0.1363178958
H   H31       1.0  0.23010  0.61750  0.17030  1.0000 0.1313071388
H   H32       1.0  0.51950  0.68330  0.26640  1.0000 0.1363178958
H   H33       1.0  0.14080  0.86120  0.18300  1.0000 0.1313071388
H   H34       1.0  0.18080  0.75140  0.30250  1.0000 0.1223158439
H   H35       1.0  0.89880  0.74010  0.31990  1.0000 0.1223158439
H   H36       1.0  0.83450  0.92430  0.81710  1.0000 0.0945897066
H   H37       1.0  0.35600  0.39400  0.51900  1.0000 0.3742309326
H   H38       1.0  0.28400  0.17700  0.37900  1.0000 0.3227542056
H   H39       1.0  0.34600  0.20600  0.45660  1.0000 0.3227542056
H   H40       1.0  0.29400  0.22750  0.19500  1.0000 0.3298700714
H   H41       1.0  0.31500  0.30900  0.15900  1.0000 0.3227542056
H   H42       1.0  0.79780  0.24820  0.42720  1.0000 0.1363178958
H   H43       1.0  0.76990  0.11750  0.32970  1.0000 0.1313071388
H   H44       1.0  0.48050  0.18330  0.23360  1.0000 0.1363178958
H   H45       1.0  0.85920  0.36120  0.31700  1.0000 0.1313071388
H   H46       1.0  0.81920  0.25140  0.19750  1.0000 0.1223158439
H   H47       1.0  0.10120  0.24010  0.18010  1.0000 0.1223158439
H   H48       1.0  0.16550  0.42430  0.68290  1.0000 0.0945897066
C   C1        1.0  0.55980  0.23020  0.83680  1.0000 0.1223158439
C   C2        1.0  0.65350  0.20930  0.89110  1.0000 0.1223158439
C   C3        1.0  0.73440  0.26540  0.88940  1.0000 -0.1616402044
C   C4        1.0  0.71760  0.34080  0.83050  1.0000 -0.1226240768
C   C5        1.0  0.62360  0.35860  0.77020  1.0000 -0.0086001186
C   C6        1.0  0.54340  0.30440  0.77290  1.0000 -0.1922940499
C   C7        1.0  0.61330  0.43640  0.70000  1.0000 0.5977419132
C   C8        1.0  0.07740  0.17150  0.78140  1.0000 0.1223158439
C   C9        1.0  0.00540  0.13570  0.82130  1.0000 0.1313071388
C   C10       1.0  0.90760  0.16330  0.79030  1.0000 -0.1677544936
C   C11       1.0  0.88470  0.22750  0.71940  1.0000 -0.1099818962
C   C12       1.0  0.95630  0.26330  0.67790  1.0000 -0.0161952746
C   C13       1.0  0.05330  0.23610  0.70780  1.0000 -0.1962478048
C   C14       1.0  0.92470  0.33700  0.60400  1.0000 0.5876418018
C   C15       1.0  0.19800  0.06060  0.13730  1.0000 0.4700667375
C   C16       1.0  0.44020  0.73020  0.66320  1.0000 0.1223158439
C   C17       1.0  0.34650  0.70930  0.60890  1.0000 0.1223158439
C   C18       1.0  0.26560  0.76540  0.61060  1.0000 -0.1616402044
C   C19       1.0  0.28240  0.84080  0.66950  1.0000 -0.1226240768
C   C20       1.0  0.37640  0.85860  0.72980  1.0000 -0.0086001186
C   C21       1.0  0.45660  0.80440  0.72710  1.0000 -0.1922940499
C   C22       1.0  0.38670  0.93640  0.80000  1.0000 0.5977419132
C   C23       1.0  0.92260  0.67150  0.71860  1.0000 0.1223158439
C   C24       1.0  0.99460  0.63570  0.67870  1.0000 0.1313071388
C   C25       1.0  0.09240  0.66330  0.70970  1.0000 -0.1677544936
C   C26       1.0  0.11530  0.72750  0.78060  1.0000 -0.1099818962
C   C27       1.0  0.04370  0.76330  0.82210  1.0000 -0.0161952746
C   C28       1.0  0.94670  0.73610  0.79220  1.0000 -0.1962478048
C   C29       1.0  0.07530  0.83700  0.89600  1.0000 0.5876418018
C   C30       1.0  0.80200  0.56060  0.36270  1.0000 0.4700667375
C   C31       1.0  0.44020  0.76980  0.16320  1.0000 0.1223158439
C   C32       1.0  0.34650  0.79070  0.10890  1.0000 0.1223158439
C   C33       1.0  0.26560  0.73460  0.11060  1.0000 -0.1616402044
C   C34       1.0  0.28240  0.65920  0.16950  1.0000 -0.1226240768
C   C35       1.0  0.37640  0.64140  0.22980  1.0000 -0.0086001186
C   C36       1.0  0.45660  0.69560  0.22710  1.0000 -0.1922940499
C   C37       1.0  0.38670  0.56360  0.30000  1.0000 0.5977419132
C   C38       1.0  0.92260  0.82850  0.21860  1.0000 0.1223158439
C   C39       1.0  0.99460  0.86430  0.17870  1.0000 0.1313071388
C   C40       1.0  0.09240  0.83670  0.20970  1.0000 -0.1677544936
C   C41       1.0  0.11530  0.77250  0.28060  1.0000 -0.1099818962
C   C42       1.0  0.04370  0.73670  0.32210  1.0000 -0.0161952746
C   C43       1.0  0.94670  0.76390  0.29220  1.0000 -0.1962478048
C   C44       1.0  0.07530  0.66300  0.39600  1.0000 0.5876418018
C   C45       1.0  0.80200  0.93940  0.86270  1.0000 0.4700667375
C   C46       1.0  0.55980  0.26980  0.33680  1.0000 0.1223158439
C   C47       1.0  0.65350  0.29070  0.39110  1.0000 0.1223158439
C   C48       1.0  0.73440  0.23460  0.38940  1.0000 -0.1616402044
C   C49       1.0  0.71760  0.15920  0.33050  1.0000 -0.1226240768
C   C50       1.0  0.62360  0.14140  0.27020  1.0000 -0.0086001186
C   C51       1.0  0.54340  0.19560  0.27290  1.0000 -0.1922940499
C   C52       1.0  0.61330  0.06360  0.20000  1.0000 0.5977419132
C   C53       1.0  0.07740  0.32850  0.28140  1.0000 0.1223158439
C   C54       1.0  0.00540  0.36430  0.32130  1.0000 0.1313071388
C   C55       1.0  0.90760  0.33670  0.29030  1.0000 -0.1677544936
C   C56       1.0  0.88470  0.27250  0.21940  1.0000 -0.1099818962
C   C57       1.0  0.95630  0.23670  0.17790  1.0000 -0.0161952746
C   C58       1.0  0.05330  0.26390  0.20780  1.0000 -0.1962478048
C   C59       1.0  0.92470  0.16300  0.10400  1.0000 0.5876418018
C   C60       1.0  0.19800  0.43940  0.63730  1.0000 0.4700667375
N   N1        1.0  0.64630  0.13050  0.94190  1.0000 -0.240692038
N   N2        1.0  0.55190  0.10820  0.92030  1.0000 -0.0161952746
N   N3        1.0  0.49660  0.16550  0.85850  1.0000 -0.2540181539
N   N4        1.0  0.16490  0.13260  0.82840  1.0000 -0.26045176
N   N5        1.0  0.14520  0.07580  0.89130  1.0000 -0.0363831584
N   N6        1.0  0.05060  0.07610  0.88980  1.0000 -0.240692038
N   N7        1.0  0.35370  0.63050  0.55810  1.0000 -0.240692038
N   N8        1.0  0.44810  0.60820  0.57970  1.0000 -0.0161952746
N   N9        1.0  0.50340  0.66550  0.64150  1.0000 -0.2540181539
N   N10       1.0  0.83510  0.63260  0.67160  1.0000 -0.26045176
N   N11       1.0  0.85480  0.57580  0.60870  1.0000 -0.0363831584
N   N12       1.0  0.94940  0.57610  0.61020  1.0000 -0.240692038
N   N13       1.0  0.35370  0.86950  0.05810  1.0000 -0.240692038
N   N14       1.0  0.44810  0.89180  0.07970  1.0000 -0.0161952746
N   N15       1.0  0.50340  0.83450  0.14150  1.0000 -0.2540181539
N   N16       1.0  0.83510  0.86740  0.17160  1.0000 -0.26045176
N   N17       1.0  0.85480  0.92420  0.10870  1.0000 -0.0363831584
N   N18       1.0  0.94940  0.92390  0.11020  1.0000 -0.240692038
N   N19       1.0  0.64630  0.36950  0.44190  1.0000 -0.240692038
N   N20       1.0  0.55190  0.39180  0.42030  1.0000 -0.0161952746
N   N21       1.0  0.49660  0.33450  0.35850  1.0000 -0.2540181539
N   N22       1.0  0.16490  0.36740  0.32840  1.0000 -0.26045176
N   N23       1.0  0.14520  0.42420  0.39130  1.0000 -0.0363831584
N   N24       1.0  0.05060  0.42390  0.38980  1.0000 -0.240692038
O   O1        1.0  0.35890  0.07280  0.97290  1.0000 -0.8262184448
O   O2        1.0  0.15910  0.99780  0.07710  1.0000 -0.5247751659
O   O3        1.0  0.27440  0.10240  0.13970  1.0000 -0.485248167
O   O4        1.0  0.83730  0.36470  0.58800  1.0000 -0.5556525177
O   O5        1.0  0.98720  0.36610  0.56440  1.0000 -0.5709297196
O   O6        1.0  0.55080  0.42160  0.62460  1.0000 -0.5709297196
O   O7        1.0  0.66760  0.50830  0.72150  1.0000 -0.5709297196
O   O8        1.0  0.33333  0.28720  0.89930  1.0000 -0.6177678592
O   O9        1.0  0.29620  0.21290  0.70460  1.0000 -0.6493930108
O   O10       1.0  0.64110  0.57280  0.52710  1.0000 -0.8262184448
O   O11       1.0  0.84090  0.49780  0.42290  1.0000 -0.5247751659
O   O12       1.0  0.72560  0.60240  0.36030  1.0000 -0.485248167
O   O13       1.0  0.16270  0.86470  0.91200  1.0000 -0.5556525177
O   O14       1.0  0.01280  0.86610  0.93560  1.0000 -0.5709297196
O   O15       1.0  0.44920  0.92160  0.87540  1.0000 -0.5709297196
O   O16       1.0  0.33240  0.00830  0.77850  1.0000 -0.5709297196
O   O17       1.0  0.66667  0.78720  0.60070  1.0000 -0.6177678592
O   O18       1.0  0.70380  0.71290  0.79540  1.0000 -0.6493930108
O   O19       1.0  0.64110  0.92720  0.02710  1.0000 -0.8262184448
O   O20       1.0  0.84090  0.00220  0.92290  1.0000 -0.5247751659
O   O21       1.0  0.72560  0.89760  0.86030  1.0000 -0.485248167
O   O22       1.0  0.16270  0.63530  0.41200  1.0000 -0.5556525177
O   O23       1.0  0.01280  0.63390  0.43560  1.0000 -0.5709297196
O   O24       1.0  0.44920  0.57840  0.37540  1.0000 -0.5709297196
O   O25       1.0  0.33240  0.49170  0.27850  1.0000 -0.5709297196
O   O26       1.0  0.66667  0.71280  0.10070  1.0000 -0.6177678592
O   O27       1.0  0.70380  0.78710  0.29540  1.0000 -0.6493930108
O   O28       1.0  0.35890  0.42720  0.47290  1.0000 -0.8262184448
O   O29       1.0  0.15910  0.50220  0.57710  1.0000 -0.5247751659
O   O30       1.0  0.27440  0.39760  0.63970  1.0000 -0.485248167
O   O31       1.0  0.83730  0.13530  0.08800  1.0000 -0.5556525177
O   O32       1.0  0.98720  0.13390  0.06440  1.0000 -0.5709297196
O   O33       1.0  0.55080  0.07840  0.12460  1.0000 -0.5709297196
O   O34       1.0  0.66760  0.99170  0.22150  1.0000 -0.5709297196
O   O35       1.0  0.33333  0.21280  0.39930  1.0000 -0.6177678592
O   O36       1.0  0.29620  0.28710  0.20460  1.0000 -0.6493930108
