# DDEC6 charges by PACMAN v1.1 (https://github.com/mtap-research/PACMAN-charge/)
data_2017[Co][sql]2[FSR]16
_chemical_formula_sum              "Co2 H40 C40 N8 O4"
_cell_length_a       10.439
_cell_length_b       10.439
_cell_length_c       22.691
_cell_angle_alpha    74.7764
_cell_angle_beta     105.224
_cell_angle_gamma    113.37

_symmetry_space_group_name_H-M    "P 1"
_symmetry_Int_Tables_number       1

loop_
  _symmetry_equiv_pos_as_xyz
  'x, y, z'

loop_
  _atom_site_type_symbol
  _atom_site_label
  _atom_site_symmetry_multiplicity
  _atom_site_fract_x
  _atom_site_fract_y
  _atom_site_fract_z
  _atom_site_occupancy
  _atom_site_charge
Co  Co1       1.0  0.01115  0.01115  0.75000  1.0000 0.6619240267
Co  Co2       1.0  0.98885  0.98885  0.25000  1.0000 0.6619240267
H   H1        1.0  0.20520  0.03260  0.87650  1.0000 0.089416753
H   H2        1.0  0.20730  0.02870  0.97710  1.0000 0.1208588768
H   H3        1.0  0.79870  0.98310  0.93100  1.0000 0.1208588768
H   H4        1.0  0.80940  0.98980  0.83170  1.0000 0.089416753
H   H5        1.0  0.68190  0.91410  0.71220  1.0000 0.089416753
H   H6        1.0  0.47990  0.71850  0.71220  1.0000 0.1208588768
H   H7        1.0  0.32480  0.51800  0.77930  1.0000 0.1208588768
H   H8        1.0  0.13100  0.31460  0.78100  1.0000 0.089416753
H   H9        1.0  0.14600  0.83000  0.81330  1.0000 0.2167142057
H   H10       1.0  0.19100  0.88100  0.76250  1.0000 0.2167142057
H   H11       1.0  0.03260  0.20520  0.62350  1.0000 0.089416753
H   H12       1.0  0.02870  0.20730  0.52290  1.0000 0.1208588768
H   H13       1.0  0.98310  0.79870  0.56900  1.0000 0.1208588768
H   H14       1.0  0.98980  0.80940  0.66830  1.0000 0.089416753
H   H15       1.0  0.91410  0.68190  0.78780  1.0000 0.089416753
H   H16       1.0  0.71850  0.47990  0.78780  1.0000 0.1208588768
H   H17       1.0  0.51800  0.32480  0.72070  1.0000 0.1208588768
H   H18       1.0  0.31460  0.13100  0.71900  1.0000 0.089416753
H   H19       1.0  0.83000  0.14600  0.68670  1.0000 0.2138772605
H   H20       1.0  0.88100  0.19100  0.73750  1.0000 0.2167142057
H   H21       1.0  0.79480  0.96740  0.12350  1.0000 0.089416753
H   H22       1.0  0.79270  0.97130  0.02290  1.0000 0.1208588768
H   H23       1.0  0.20130  0.01690  0.06900  1.0000 0.1208588768
H   H24       1.0  0.19060  0.01020  0.16830  1.0000 0.089416753
H   H25       1.0  0.31810  0.08590  0.28780  1.0000 0.089416753
H   H26       1.0  0.52010  0.28150  0.28780  1.0000 0.1208588768
H   H27       1.0  0.67520  0.48200  0.22070  1.0000 0.1208588768
H   H28       1.0  0.86900  0.68540  0.21900  1.0000 0.089416753
H   H29       1.0  0.85400  0.17000  0.18670  1.0000 0.2138772605
H   H30       1.0  0.80900  0.11900  0.23750  1.0000 0.2167142057
H   H31       1.0  0.96740  0.79480  0.37650  1.0000 0.089416753
H   H32       1.0  0.97130  0.79270  0.47710  1.0000 0.1208588768
H   H33       1.0  0.01690  0.20130  0.43100  1.0000 0.1208588768
H   H34       1.0  0.01020  0.19060  0.33170  1.0000 0.089416753
H   H35       1.0  0.08590  0.31810  0.21220  1.0000 0.089416753
H   H36       1.0  0.28150  0.52010  0.21220  1.0000 0.1208588768
H   H37       1.0  0.48200  0.67520  0.27930  1.0000 0.1208588768
H   H38       1.0  0.68540  0.86900  0.28100  1.0000 0.089416753
H   H39       1.0  0.17000  0.85400  0.31330  1.0000 0.2167142057
H   H40       1.0  0.11900  0.80900  0.26250  1.0000 0.2167142057
C   C1        1.0  0.12161  0.02219  0.88769  1.0000 0.047989208
C   C2        1.0  0.12358  0.01942  0.94836  1.0000 -0.1992262827
C   C3        1.0  0.00144  0.00274  0.96732  1.0000 0.089416753
C   C4        1.0  0.88363  0.99277  0.92132  1.0000 -0.1992262827
C   C5        1.0  0.89107  0.99713  0.86165  1.0000 0.0372376994
C   C6        1.0  0.68982  0.82536  0.72807  1.0000 0.0372376994
C   C7        1.0  0.56765  0.70785  0.72765  1.0000 -0.1992262827
C   C8        1.0  0.32621  0.43973  0.76761  1.0000 -0.1992262827
C   C9        1.0  0.20930  0.31726  0.76779  1.0000 0.047989208
C   C10       1.0  0.02219  0.12161  0.61231  1.0000 0.047989208
C   C11       1.0  0.01942  0.12358  0.55164  1.0000 -0.1992262827
C   C12       1.0  0.00274  0.00144  0.53268  1.0000 0.089416753
C   C13       1.0  0.99277  0.88363  0.57868  1.0000 -0.1992262827
C   C14       1.0  0.99713  0.89107  0.63835  1.0000 0.0372376994
C   C15       1.0  0.82536  0.68982  0.77193  1.0000 0.0372376994
C   C16       1.0  0.70785  0.56765  0.77235  1.0000 -0.1942415314
C   C17       1.0  0.43973  0.32621  0.73239  1.0000 -0.1992262827
C   C18       1.0  0.31726  0.20930  0.73221  1.0000 0.047989208
C   C19       1.0  0.87839  0.97781  0.11231  1.0000 0.047989208
C   C20       1.0  0.87642  0.98058  0.05164  1.0000 -0.1992262827
C   C21       1.0  0.99856  0.99726  0.03268  1.0000 0.089416753
C   C22       1.0  0.11637  0.00723  0.07868  1.0000 -0.1992262827
C   C23       1.0  0.10893  0.00287  0.13835  1.0000 0.0372376994
C   C24       1.0  0.31018  0.17464  0.27193  1.0000 0.0372376994
C   C25       1.0  0.43235  0.29215  0.27235  1.0000 -0.1942415314
C   C26       1.0  0.67379  0.56027  0.23239  1.0000 -0.1992262827
C   C27       1.0  0.79070  0.68274  0.23221  1.0000 0.047989208
C   C28       1.0  0.97781  0.87839  0.38769  1.0000 0.047989208
C   C29       1.0  0.98058  0.87642  0.44836  1.0000 -0.1992262827
C   C30       1.0  0.99726  0.99856  0.46732  1.0000 0.089416753
C   C31       1.0  0.00723  0.11637  0.42132  1.0000 -0.1992262827
C   C32       1.0  0.00287  0.10893  0.36165  1.0000 0.0372376994
C   C33       1.0  0.17464  0.31018  0.22807  1.0000 0.0372376994
C   C34       1.0  0.29215  0.43235  0.22765  1.0000 -0.1942415314
C   C35       1.0  0.56027  0.67379  0.26761  1.0000 -0.1992262827
C   C36       1.0  0.68274  0.79070  0.26779  1.0000 0.047989208
C   C37       1.0  0.57500  0.57500  0.75000  1.0000 0.089416753
C   C38       1.0  0.44610  0.44610  0.75000  1.0000 0.089416753
C   C39       1.0  0.42500  0.42500  0.25000  1.0000 0.089416753
C   C40       1.0  0.55390  0.55390  0.25000  1.0000 0.089416753
N   N1        1.0  0.00757  0.01101  0.84389  1.0000 -0.2568432169
N   N2        1.0  0.01101  0.00757  0.65611  1.0000 -0.2568432169
N   N3        1.0  0.99243  0.98899  0.15611  1.0000 -0.2568432169
N   N4        1.0  0.98899  0.99243  0.34389  1.0000 -0.2568432169
N   N5        1.0  0.81880  0.81880  0.75000  1.0000 -0.269560002
N   N6        1.0  0.20180  0.20180  0.75000  1.0000 -0.269560002
N   N7        1.0  0.18120  0.18120  0.25000  1.0000 -0.269560002
N   N8        1.0  0.79820  0.79820  0.25000  1.0000 -0.269560002
O   O1        1.0  0.14320  0.89062  0.78148  1.0000 -0.6337920057
O   O2        1.0  0.89062  0.14320  0.71852  1.0000 -0.6337920057
O   O3        1.0  0.85680  0.10938  0.21852  1.0000 -0.6337920057
O   O4        1.0  0.10938  0.85680  0.28148  1.0000 -0.6337920057
