# DDEC6 charges by PACMAN v1.1 (https://github.com/mtap-research/PACMAN-charge/)
data_2017[Co][sql]2[FSR]13
_chemical_formula_sum              "Co2 H40 C54 N4 O16"
_cell_length_a       10.1661
_cell_length_b       11.29
_cell_length_c       14.505
_cell_angle_alpha    99.829
_cell_angle_beta     106.005
_cell_angle_gamma    104.599

_symmetry_space_group_name_H-M    "P 1"
_symmetry_Int_Tables_number       1

loop_
  _symmetry_equiv_pos_as_xyz
  'x, y, z'

loop_
  _atom_site_type_symbol
  _atom_site_label
  _atom_site_symmetry_multiplicity
  _atom_site_fract_x
  _atom_site_fract_y
  _atom_site_fract_z
  _atom_site_occupancy
  _atom_site_charge
Co  Co1       1.0  0.85044  0.10803  0.44902  1.0000 0.8446912293
Co  Co2       1.0  0.14956  0.89197  0.55098  1.0000 0.8446912293
H   H1        1.0  0.26160  0.60270  0.33080  1.0000 0.365420175
H   H2        1.0  0.40820  0.10300  0.46280  1.0000 0.1304532736
H   H3        1.0  0.40500  0.57910  0.09040  1.0000 0.1209657713
H   H4        1.0  0.44040  0.73750  0.20460  1.0000 0.1304532736
H   H5        1.0  0.05760  0.13220  0.65120  1.0000 0.1099579625
H   H6        1.0  0.58540  0.87490  0.35410  1.0000 0.1099579625
H   H7        1.0  0.58240  0.40310  0.37320  1.0000 0.1209657713
H   H8        1.0  0.18690  0.34140  0.39260  1.0000 0.1209657713
H   H9        1.0  0.21300  0.27250  0.79450  1.0000 0.1209657713
H   H10       1.0  0.69210  0.92900  0.07630  1.0000 0.1304532736
H   H11       1.0  0.95790  0.39960  0.54140  1.0000 0.1099579625
H   H12       1.0  0.83150  0.05670  0.22970  1.0000 0.1209657713
H   H13       1.0  0.11370  0.54890  0.68010  1.0000 0.1387790267
H   H14       1.0  0.32690  0.66820  0.78590  1.0000 0.1304532736
H   H15       1.0  0.37320  0.37420  0.07490  1.0000 0.1099579625
H   H16       1.0  0.22200  0.26950  0.03620  1.0000 0.1304532736
H   H17       1.0  0.23720  0.40980  0.08420  1.0000 0.1209657713
H   H18       1.0  0.58810  0.82800  0.83050  1.0000 0.1209657713
H   H19       1.0  0.58680  0.96830  0.85540  1.0000 0.1304532736
H   H20       1.0  0.44520  0.85950  0.78820  1.0000 0.1209657713
H   H21       1.0  0.73840  0.39730  0.66920  1.0000 0.365420175
H   H22       1.0  0.59180  0.89700  0.53720  1.0000 0.1304532736
H   H23       1.0  0.59500  0.42090  0.90960  1.0000 0.1209657713
H   H24       1.0  0.55960  0.26250  0.79540  1.0000 0.1304532736
H   H25       1.0  0.94240  0.86780  0.34880  1.0000 0.1099579625
H   H26       1.0  0.41460  0.12510  0.64590  1.0000 0.1099579625
H   H27       1.0  0.41760  0.59690  0.62680  1.0000 0.1209657713
H   H28       1.0  0.81310  0.65860  0.60740  1.0000 0.1209657713
H   H29       1.0  0.78700  0.72750  0.20550  1.0000 0.1209657713
H   H30       1.0  0.30790  0.07100  0.92370  1.0000 0.1304532736
H   H31       1.0  0.04210  0.60040  0.45860  1.0000 0.1099579625
H   H32       1.0  0.16850  0.94330  0.77030  1.0000 0.1209657713
H   H33       1.0  0.88630  0.45110  0.31990  1.0000 0.1387790267
H   H34       1.0  0.67310  0.33180  0.21410  1.0000 0.1304532736
H   H35       1.0  0.62680  0.62580  0.92510  1.0000 0.1099579625
H   H36       1.0  0.77800  0.73050  0.96380  1.0000 0.1304532736
H   H37       1.0  0.76280  0.59020  0.91580  1.0000 0.1209657713
H   H38       1.0  0.41190  0.17200  0.16950  1.0000 0.1209657713
H   H39       1.0  0.41320  0.03170  0.14460  1.0000 0.1304532736
H   H40       1.0  0.55480  0.14050  0.21180  1.0000 0.1209657713
C   C1        1.0  0.14580  0.12320  0.44220  1.0000 0.5737297658
C   C2        1.0  0.40110  0.17430  0.44040  1.0000 -0.111759762
C   C3        1.0  0.39030  0.59750  0.02900  1.0000 -0.2720914658
C   C4        1.0  0.30530  0.50190  0.94390  1.0000 0.1973895405
C   C5        1.0  0.64910  0.20720  0.43020  1.0000 0.5238931302
C   C6        1.0  0.27520  0.20730  0.42790  1.0000 -0.0181807318
C   C7        1.0  0.51970  0.80250  0.20730  1.0000 -0.2000106698
C   C8        1.0  0.51550  0.24730  0.41950  1.0000 -0.0181807318
C   C9        1.0  0.06730  0.21760  0.65770  1.0000 0.0933906243
C   C10       1.0  0.43180  0.74510  0.93220  1.0000 0.1897067178
C   C11       1.0  0.54800  0.81510  0.12090  1.0000 0.1209657713
C   C12       1.0  0.60800  0.88550  0.29750  1.0000 0.0933906243
C   C13       1.0  0.45410  0.71980  0.02530  1.0000 -0.0181807318
C   C14       1.0  0.38310  0.39040  0.37870  1.0000 -0.0366216849
C   C15       1.0  0.50620  0.35470  0.38810  1.0000 -0.124459027
C   C16       1.0  0.26900  0.31700  0.39870  1.0000 -0.124459027
C   C17       1.0  0.16200  0.30160  0.74440  1.0000 -0.2000106698
C   C18       1.0  0.66780  0.91450  0.13160  1.0000 -0.2000106698
C   C19       1.0  0.00940  0.37350  0.59330  1.0000 0.0739963997
C   C20       1.0  0.37330  0.50570  0.34230  1.0000 0.5319031004
C   C21       1.0  0.18200  0.43090  0.75760  1.0000 0.1387790267
C   C22       1.0  0.27830  0.52780  0.85080  1.0000 -0.0181807318
C   C23       1.0  0.75060  0.99150  0.22450  1.0000 0.0739963997
C   C24       1.0  0.10290  0.46390  0.67700  1.0000 -0.1896466042
C   C25       1.0  0.34310  0.64950  0.84720  1.0000 -0.2634390469
C   C26       1.0  0.27160  0.35690  0.04370  1.0000 -0.2298027601
C   C27       1.0  0.53190  0.88130  0.84400  1.0000 -0.2226815398
C   C28       1.0  0.85420  0.87680  0.55780  1.0000 0.5737297658
C   C29       1.0  0.59890  0.82570  0.55960  1.0000 -0.111759762
C   C30       1.0  0.60970  0.40250  0.97100  1.0000 -0.2720914658
C   C31       1.0  0.69470  0.49810  0.05610  1.0000 0.1973895405
C   C32       1.0  0.35090  0.79280  0.56980  1.0000 0.5238931302
C   C33       1.0  0.72480  0.79270  0.57210  1.0000 -0.0181807318
C   C34       1.0  0.48030  0.19750  0.79270  1.0000 -0.2000106698
C   C35       1.0  0.48450  0.75270  0.58050  1.0000 -0.0181807318
C   C36       1.0  0.93270  0.78240  0.34230  1.0000 0.0933906243
C   C37       1.0  0.56820  0.25490  0.06780  1.0000 0.1897067178
C   C38       1.0  0.45200  0.18490  0.87910  1.0000 0.1209657713
C   C39       1.0  0.39200  0.11450  0.70250  1.0000 0.0933906243
C   C40       1.0  0.54590  0.28020  0.97470  1.0000 -0.0181807318
C   C41       1.0  0.61690  0.60960  0.62130  1.0000 -0.0366216849
C   C42       1.0  0.49380  0.64530  0.61190  1.0000 -0.124459027
C   C43       1.0  0.73100  0.68300  0.60130  1.0000 -0.124459027
C   C44       1.0  0.83800  0.69840  0.25560  1.0000 -0.2000106698
C   C45       1.0  0.33220  0.08550  0.86840  1.0000 -0.2000106698
C   C46       1.0  0.99060  0.62650  0.40670  1.0000 0.0739963997
C   C47       1.0  0.62670  0.49430  0.65770  1.0000 0.5319031004
C   C48       1.0  0.81800  0.56910  0.24240  1.0000 0.1387790267
C   C49       1.0  0.72170  0.47220  0.14920  1.0000 -0.0181807318
C   C50       1.0  0.24940  0.00850  0.77550  1.0000 0.0739963997
C   C51       1.0  0.89710  0.53610  0.32300  1.0000 -0.1896466042
C   C52       1.0  0.65690  0.35050  0.15280  1.0000 -0.2634390469
C   C53       1.0  0.72840  0.64310  0.95630  1.0000 -0.2298027601
C   C54       1.0  0.46810  0.11870  0.15600  1.0000 -0.2226815398
N   N1        1.0  0.72340  0.97960  0.30720  1.0000 -0.24527927
N   N2        1.0  0.98840  0.24900  0.58230  1.0000 -0.2434965546
N   N3        1.0  0.27660  0.02040  0.69280  1.0000 -0.2434965546
N   N4        1.0  0.01160  0.75100  0.41770  1.0000 -0.2434965546
O   O1        1.0  0.02610  0.13990  0.40393  1.0000 -0.5613129016
O   O2        1.0  0.16400  0.04330  0.48912  1.0000 -0.5496292587
O   O3        1.0  0.74040  0.25350  0.39326  1.0000 -0.5613129016
O   O4        1.0  0.66080  0.12180  0.47506  1.0000 -0.5348743673
O   O5        1.0  0.26520  0.54200  0.35430  1.0000 -0.4344492431
O   O6        1.0  0.45260  0.55510  0.30300  1.0000 -0.4972547616
O   O7        1.0  0.49640  0.86390  0.92800  1.0000 -0.1349311049
O   O8        1.0  0.24560  0.38220  0.94960  1.0000 -0.1405066575
O   O9        1.0  0.97390  0.86010  0.59607  1.0000 -0.5613129016
O   O10       1.0  0.83600  0.95670  0.51088  1.0000 -0.5496292587
O   O11       1.0  0.25960  0.74650  0.60674  1.0000 -0.5613129016
O   O12       1.0  0.33920  0.87820  0.52494  1.0000 -0.5348743673
O   O13       1.0  0.73480  0.45800  0.64570  1.0000 -0.4353245969
O   O14       1.0  0.54740  0.44490  0.69700  1.0000 -0.4972547616
O   O15       1.0  0.50360  0.13610  0.07200  1.0000 -0.1349311049
O   O16       1.0  0.75440  0.61780  0.05040  1.0000 -0.1405066575
