# DDEC6 charges by PACMAN v1.1 (https://github.com/mtap-research/PACMAN-charge/)
data_2017[Zn][bbh]3[FSR]1
_chemical_formula_sum              "Zn8 H144 C196 N16 O48"
_cell_length_a       16.342
_cell_length_b       14.554
_cell_length_c       21.318
_cell_angle_alpha    90
_cell_angle_beta     112.32
_cell_angle_gamma    90

_symmetry_space_group_name_H-M    "P 1"
_symmetry_Int_Tables_number       1

loop_
  _symmetry_equiv_pos_as_xyz
  'x, y, z'

loop_
  _atom_site_type_symbol
  _atom_site_label
  _atom_site_symmetry_multiplicity
  _atom_site_fract_x
  _atom_site_fract_y
  _atom_site_fract_z
  _atom_site_occupancy
  _atom_site_charge
Zn  Zn1       1.0  0.83564  0.40001  0.02267  1.0000 0.7611096941
Zn  Zn2       1.0  0.61449  0.70952  0.40383  1.0000 0.7669841044
Zn  Zn3       1.0  0.16436  0.59999  0.97733  1.0000 0.7611096941
Zn  Zn4       1.0  0.38551  0.29048  0.59617  1.0000 0.7669841044
Zn  Zn5       1.0  0.66436  0.90001  0.97733  1.0000 0.7611096941
Zn  Zn6       1.0  0.88551  0.20952  0.59617  1.0000 0.7669841044
Zn  Zn7       1.0  0.33564  0.09999  0.02267  1.0000 0.7611096941
Zn  Zn8       1.0  0.11449  0.79048  0.40383  1.0000 0.7669841044
H   H1        1.0  0.72750  0.02860  0.39880  1.0000 0.1626344315
H   H2        1.0  0.50110  0.82900  0.29230  1.0000 0.11919953
H   H3        1.0  0.62260  0.35110  0.25040  1.0000 0.1098085466
H   H4        1.0  0.67140  0.25890  0.28230  1.0000 0.1098085466
H   H5        1.0  0.20300  0.41040  0.02710  1.0000 0.11919953
H   H6        1.0  0.39050  0.42180  0.31520  1.0000 0.1098085466
H   H7        1.0  0.33810  0.69030  0.27610  1.0000 0.1290838785
H   H8        1.0  0.44790  0.26090  0.15760  1.0000 0.1098085466
H   H9        1.0  0.40030  0.27210  0.20900  1.0000 0.1016760079
H   H10       1.0  0.33180  0.19050  0.35950  1.0000 0.1409554077
H   H11       1.0  0.59550  0.22300  0.06170  1.0000 0.1719076775
H   H12       1.0  0.31300  0.32450  0.10430  1.0000 0.1290838785
H   H13       1.0  0.04690  0.70170  0.12700  1.0000 0.11919953
H   H14       1.0  0.30020  0.21190  0.45450  1.0000 0.1098085466
H   H15       1.0  0.25190  0.38350  0.24020  1.0000 0.1098085466
H   H16       1.0  0.44410  0.55900  0.17980  1.0000 0.1626344315
H   H17       1.0  0.55240  0.34120  0.44590  1.0000 0.1626344315
H   H18       1.0  0.73200  0.87970  0.43540  1.0000 0.11919953
H   H19       1.0  0.92200  0.61350  0.55690  1.0000 0.11919953
H   H20       1.0  0.84120  0.11540  0.86990  1.0000 0.11919953
H   H21       1.0  0.47580  0.12640  0.26140  1.0000 0.1016760079
H   H22       1.0  0.52340  0.12510  0.20950  1.0000 0.1098085466
H   H23       1.0  0.98020  0.14120  0.06940  1.0000 0.11919953
H   H24       1.0  0.59210  0.26350  0.36320  1.0000 0.1098085466
H   H25       1.0  0.53850  0.35200  0.32830  1.0000 0.11919953
H   H26       1.0  0.82060  0.42810  0.16230  1.0000 0.1098085466
H   H27       1.0  0.49110  0.97590  0.25170  1.0000 0.1409554077
H   H28       1.0  0.67760  0.28170  0.00340  1.0000 0.11919953
H   H29       1.0  0.74620  0.37090  0.22510  1.0000 0.1409554077
H   H30       1.0  0.91420  0.98240  0.86700  1.0000 0.11919953
H   H31       1.0  0.18680  0.73900  0.19950  1.0000 0.11919953
H   H32       1.0  0.32840  0.63800  0.10360  1.0000 0.11919953
H   H33       1.0  0.82910  0.56800  0.35640  1.0000 0.11919953
H   H34       1.0  0.10510  0.43260  0.15400  1.0000 0.11919953
H   H35       1.0  0.05710  0.52760  0.63200  1.0000 0.1098085466
H   H36       1.0  0.51650  0.35590  0.53940  1.0000 0.11919953
H   H37       1.0  0.27250  0.97140  0.60120  1.0000 0.1626344315
H   H38       1.0  0.49890  0.17100  0.70770  1.0000 0.11919953
H   H39       1.0  0.37740  0.64890  0.74960  1.0000 0.1098085466
H   H40       1.0  0.32860  0.74110  0.71770  1.0000 0.1098085466
H   H41       1.0  0.79700  0.58960  0.97290  1.0000 0.11919953
H   H42       1.0  0.60950  0.57820  0.68480  1.0000 0.1098085466
H   H43       1.0  0.66190  0.30970  0.72390  1.0000 0.1290838785
H   H44       1.0  0.55210  0.73910  0.84240  1.0000 0.1098085466
H   H45       1.0  0.59970  0.72790  0.79100  1.0000 0.1016760079
H   H46       1.0  0.66820  0.80950  0.64050  1.0000 0.1409554077
H   H47       1.0  0.40450  0.77700  0.93830  1.0000 0.1719076775
H   H48       1.0  0.68700  0.67550  0.89570  1.0000 0.1290838785
H   H49       1.0  0.95310  0.29830  0.87300  1.0000 0.11919953
H   H50       1.0  0.69980  0.78810  0.54550  1.0000 0.1098085466
H   H51       1.0  0.74810  0.61650  0.75980  1.0000 0.1098085466
H   H52       1.0  0.55590  0.44100  0.82020  1.0000 0.1626344315
H   H53       1.0  0.44760  0.65880  0.55410  1.0000 0.1626344315
H   H54       1.0  0.26800  0.12030  0.56460  1.0000 0.11919953
H   H55       1.0  0.07800  0.38650  0.44310  1.0000 0.11919953
H   H56       1.0  0.15880  0.88460  0.13010  1.0000 0.11919953
H   H57       1.0  0.52420  0.87360  0.73860  1.0000 0.1016760079
H   H58       1.0  0.47660  0.87490  0.79050  1.0000 0.1098085466
H   H59       1.0  0.01980  0.85880  0.93060  1.0000 0.11919953
H   H60       1.0  0.40790  0.73650  0.63680  1.0000 0.1098085466
H   H61       1.0  0.46150  0.64800  0.67170  1.0000 0.11919953
H   H62       1.0  0.17940  0.57190  0.83770  1.0000 0.1098085466
H   H63       1.0  0.50890  0.02410  0.74830  1.0000 0.1409554077
H   H64       1.0  0.32240  0.71830  0.99660  1.0000 0.11919953
H   H65       1.0  0.25380  0.62910  0.77490  1.0000 0.1409554077
H   H66       1.0  0.08580  0.01760  0.13300  1.0000 0.11919953
H   H67       1.0  0.81320  0.26100  0.80050  1.0000 0.11919953
H   H68       1.0  0.67160  0.36200  0.89640  1.0000 0.11919953
H   H69       1.0  0.17090  0.43200  0.64360  1.0000 0.11919953
H   H70       1.0  0.89490  0.56740  0.84600  1.0000 0.11919953
H   H71       1.0  0.94290  0.47240  0.36800  1.0000 0.1098085466
H   H72       1.0  0.48350  0.64410  0.46060  1.0000 0.11919953
H   H73       1.0  0.77250  0.52860  0.60120  1.0000 0.1626344315
H   H74       1.0  0.99890  0.32900  0.70770  1.0000 0.11919953
H   H75       1.0  0.87740  0.85110  0.74960  1.0000 0.1098085466
H   H76       1.0  0.82860  0.75890  0.71770  1.0000 0.1098085466
H   H77       1.0  0.29700  0.91040  0.97290  1.0000 0.11919953
H   H78       1.0  0.10950  0.92180  0.68480  1.0000 0.1098085466
H   H79       1.0  0.16190  0.19030  0.72390  1.0000 0.1290838785
H   H80       1.0  0.05210  0.76090  0.84240  1.0000 0.1098085466
H   H81       1.0  0.09970  0.77210  0.79100  1.0000 0.1016760079
H   H82       1.0  0.16820  0.69050  0.64050  1.0000 0.1409554077
H   H83       1.0  0.90450  0.72300  0.93830  1.0000 0.1719076775
H   H84       1.0  0.18700  0.82450  0.89570  1.0000 0.1290838785
H   H85       1.0  0.45310  0.20170  0.87300  1.0000 0.11919953
H   H86       1.0  0.19980  0.71190  0.54550  1.0000 0.1098085466
H   H87       1.0  0.24810  0.88350  0.75980  1.0000 0.1098085466
H   H88       1.0  0.05590  0.05900  0.82020  1.0000 0.1626344315
H   H89       1.0  0.94760  0.84120  0.55410  1.0000 0.1626344315
H   H90       1.0  0.76800  0.37970  0.56460  1.0000 0.11919953
H   H91       1.0  0.57800  0.11350  0.44310  1.0000 0.11919953
H   H92       1.0  0.65880  0.61540  0.13010  1.0000 0.11919953
H   H93       1.0  0.02420  0.62640  0.73860  1.0000 0.1016760079
H   H94       1.0  0.97660  0.62510  0.79050  1.0000 0.1098085466
H   H95       1.0  0.51980  0.64120  0.93060  1.0000 0.11919953
H   H96       1.0  0.90790  0.76350  0.63680  1.0000 0.1098085466
H   H97       1.0  0.96150  0.85200  0.67170  1.0000 0.11919953
H   H98       1.0  0.67940  0.92810  0.83770  1.0000 0.1098085466
H   H99       1.0  0.00890  0.47590  0.74830  1.0000 0.1409554077
H   H100      1.0  0.82240  0.78170  0.99660  1.0000 0.11919953
H   H101      1.0  0.75380  0.87090  0.77490  1.0000 0.1409554077
H   H102      1.0  0.58580  0.48240  0.13300  1.0000 0.11919953
H   H103      1.0  0.31320  0.23900  0.80050  1.0000 0.11919953
H   H104      1.0  0.17160  0.13800  0.89640  1.0000 0.11919953
H   H105      1.0  0.67090  0.06800  0.64360  1.0000 0.11919953
H   H106      1.0  0.39490  0.93260  0.84600  1.0000 0.11919953
H   H107      1.0  0.44290  0.02760  0.36800  1.0000 0.1098085466
H   H108      1.0  0.98350  0.85590  0.46060  1.0000 0.11919953
H   H109      1.0  0.22750  0.47140  0.39880  1.0000 0.1626344315
H   H110      1.0  0.00110  0.67100  0.29230  1.0000 0.11919953
H   H111      1.0  0.12260  0.14890  0.25040  1.0000 0.1098085466
H   H112      1.0  0.17140  0.24110  0.28230  1.0000 0.1098085466
H   H113      1.0  0.70300  0.08960  0.02710  1.0000 0.11919953
H   H114      1.0  0.89050  0.07820  0.31520  1.0000 0.1098085466
H   H115      1.0  0.83810  0.80970  0.27610  1.0000 0.1290838785
H   H116      1.0  0.94790  0.23910  0.15760  1.0000 0.1098085466
H   H117      1.0  0.90030  0.22790  0.20900  1.0000 0.1016760079
H   H118      1.0  0.83180  0.30950  0.35950  1.0000 0.1409554077
H   H119      1.0  0.09550  0.27700  0.06170  1.0000 0.1719076775
H   H120      1.0  0.81300  0.17550  0.10430  1.0000 0.1290838785
H   H121      1.0  0.54690  0.79830  0.12700  1.0000 0.11919953
H   H122      1.0  0.80020  0.28810  0.45450  1.0000 0.1098085466
H   H123      1.0  0.75190  0.11650  0.24020  1.0000 0.1098085466
H   H124      1.0  0.94410  0.94100  0.17980  1.0000 0.1626344315
H   H125      1.0  0.05240  0.15880  0.44590  1.0000 0.1626344315
H   H126      1.0  0.23200  0.62030  0.43540  1.0000 0.11919953
H   H127      1.0  0.42200  0.88650  0.55690  1.0000 0.11919953
H   H128      1.0  0.34120  0.38460  0.86990  1.0000 0.11919953
H   H129      1.0  0.97580  0.37360  0.26140  1.0000 0.1016760079
H   H130      1.0  0.02340  0.37490  0.20950  1.0000 0.1098085466
H   H131      1.0  0.48020  0.35880  0.06940  1.0000 0.11919953
H   H132      1.0  0.09210  0.23650  0.36320  1.0000 0.1098085466
H   H133      1.0  0.03850  0.14800  0.32830  1.0000 0.11919953
H   H134      1.0  0.32060  0.07190  0.16230  1.0000 0.1098085466
H   H135      1.0  0.99110  0.52410  0.25170  1.0000 0.1409554077
H   H136      1.0  0.17760  0.21830  0.00340  1.0000 0.11919953
H   H137      1.0  0.24620  0.12910  0.22510  1.0000 0.1409554077
H   H138      1.0  0.41420  0.51760  0.86700  1.0000 0.11919953
H   H139      1.0  0.68680  0.76100  0.19950  1.0000 0.11919953
H   H140      1.0  0.82840  0.86200  0.10360  1.0000 0.11919953
H   H141      1.0  0.32910  0.93200  0.35640  1.0000 0.11919953
H   H142      1.0  0.60510  0.06740  0.15400  1.0000 0.11919953
H   H143      1.0  0.55710  0.97240  0.63200  1.0000 0.1098085466
H   H144      1.0  0.01650  0.14410  0.53940  1.0000 0.11919953
C   C1        1.0  0.68050  0.98910  0.37710  1.0000 -0.2444352813
C   C2        1.0  0.54680  0.86990  0.31420  1.0000 0.1016760079
C   C3        1.0  0.66210  0.29060  0.15050  1.0000 0.2897122197
C   C4        1.0  0.90280  0.14140  0.97150  1.0000 -0.0170163476
C   C5        1.0  0.60750  0.01950  0.32280  1.0000 0.2805780537
C   C6        1.0  0.61870  0.28460  0.24770  1.0000 -0.0924767747
C   C7        1.0  0.25180  0.44030  0.05830  1.0000 0.1098085466
C   C8        1.0  0.99020  0.97510  0.96910  1.0000 0.079804128
C   C9        1.0  0.35200  0.46780  0.29080  1.0000 -0.1195478074
C   C10       1.0  0.39180  0.43200  0.15110  1.0000 0.2897122197
C   C11       1.0  0.32060  0.62920  0.26840  1.0000 -0.1577802391
C   C12       1.0  0.47510  0.58190  0.34190  1.0000 0.5523435118
C   C13       1.0  0.45290  0.28790  0.20050  1.0000 -0.0924767747
C   C14       1.0  0.37000  0.22450  0.39570  1.0000 -0.2656670369
C   C15       1.0  0.64150  0.26390  0.08290  1.0000 -0.2497706374
C   C16       1.0  0.31770  0.38820  0.10440  1.0000 -0.2763497241
C   C17       1.0  0.78540  0.65980  0.44890  1.0000 0.5523435118
C   C18       1.0  0.38030  0.56050  0.29980  1.0000 -0.0269168921
C   C19       1.0  0.08740  0.65530  0.14730  1.0000 -0.1138909644
C   C20       1.0  0.35200  0.23680  0.45320  1.0000 0.0888172207
C   C21       1.0  0.26860  0.44500  0.24670  1.0000 -0.1577802391
C   C22       1.0  0.53560  0.25120  0.25790  1.0000 0.1016760079
C   C23       1.0  0.06190  0.56200  0.13210  1.0000 -0.0170163476
C   C24       1.0  0.44620  0.26380  0.39230  1.0000 0.2805780537
C   C25       1.0  0.39550  0.52750  0.14970  1.0000 -0.2497706374
C   C26       1.0  0.50150  0.31370  0.44680  1.0000 -0.2497706374
C   C27       1.0  0.68280  0.89970  0.39870  1.0000 0.0888172207
C   C28       1.0  0.92590  0.58360  0.51960  1.0000 -0.1577802391
C   C29       1.0  0.99680  0.52160  0.52920  1.0000 0.079804128
C   C30       1.0  0.20750  0.51400  0.21090  1.0000 0.079804128
C   C31       1.0  0.88360  0.09250  0.90970  1.0000 -0.1138909644
C   C32       1.0  0.23270  0.60760  0.22440  1.0000 0.0738191895
C   C33       1.0  0.86300  0.60030  0.45640  1.0000 -0.0132825913
C   C34       1.0  0.52790  0.14640  0.25390  1.0000 -0.0924767747
C   C35       1.0  0.96590  0.10780  0.02940  1.0000 -0.1577802391
C   C36       1.0  0.53910  0.28540  0.32700  1.0000 -0.0924767747
C   C37       1.0  0.77570  0.38560  0.14230  1.0000 0.079804128
C   C38       1.0  0.53970  0.95790  0.28950  1.0000 -0.2763497241
C   C39       1.0  0.69100  0.29960  0.04800  1.0000 0.079804128
C   C40       1.0  0.73090  0.35240  0.18030  1.0000 -0.2979677774
C   C41       1.0  0.92650  0.01260  0.90800  1.0000 -0.1534340141
C   C42       1.0  0.17060  0.67760  0.19120  1.0000 -0.1278086163
C   C43       1.0  0.32630  0.57410  0.10320  1.0000 0.0888172207
C   C44       1.0  0.87130  0.55660  0.39940  1.0000 -0.1195478074
C   C45       1.0  0.12170  0.49370  0.16390  1.0000 -0.1775174931
C   C46       1.0  0.96850  0.54040  0.08680  1.0000 0.5583673559
C   C47       1.0  0.85450  0.22830  0.97320  1.0000 0.5523435118
C   C48       1.0  0.06130  0.50100  0.59360  1.0000 -0.1577802391
C   C49       1.0  0.47920  0.32190  0.50270  1.0000 0.1098085466
C   C50       1.0  0.31950  0.01090  0.62290  1.0000 -0.2444352813
C   C51       1.0  0.45320  0.13010  0.68580  1.0000 0.1016760079
C   C52       1.0  0.33790  0.70940  0.84950  1.0000 0.2897122197
C   C53       1.0  0.09720  0.85860  0.02850  1.0000 -0.0170163476
C   C54       1.0  0.39250  0.98050  0.67720  1.0000 0.2805780537
C   C55       1.0  0.38130  0.71540  0.75230  1.0000 -0.0924767747
C   C56       1.0  0.74820  0.55970  0.94170  1.0000 0.1098085466
C   C57       1.0  0.00980  0.02490  0.03090  1.0000 0.079804128
C   C58       1.0  0.64800  0.53220  0.70920  1.0000 -0.1195478074
C   C59       1.0  0.60820  0.56800  0.84890  1.0000 0.2897122197
C   C60       1.0  0.67940  0.37080  0.73160  1.0000 -0.1577802391
C   C61       1.0  0.52490  0.41810  0.65810  1.0000 0.5523435118
C   C62       1.0  0.54710  0.71210  0.79950  1.0000 -0.0924767747
C   C63       1.0  0.63000  0.77550  0.60430  1.0000 -0.2656670369
C   C64       1.0  0.35850  0.73610  0.91710  1.0000 -0.2497706374
C   C65       1.0  0.68230  0.61180  0.89560  1.0000 -0.2763497241
C   C66       1.0  0.21460  0.34020  0.55110  1.0000 0.5523435118
C   C67       1.0  0.61970  0.43950  0.70020  1.0000 -0.0269168921
C   C68       1.0  0.91260  0.34470  0.85270  1.0000 -0.1138909644
C   C69       1.0  0.64800  0.76320  0.54680  1.0000 0.0888172207
C   C70       1.0  0.73140  0.55500  0.75330  1.0000 -0.1577802391
C   C71       1.0  0.46440  0.74880  0.74210  1.0000 0.1016760079
C   C72       1.0  0.93810  0.43800  0.86790  1.0000 -0.0170163476
C   C73       1.0  0.55380  0.73620  0.60770  1.0000 0.2805780537
C   C74       1.0  0.60450  0.47250  0.85030  1.0000 -0.2497706374
C   C75       1.0  0.49850  0.68630  0.55320  1.0000 -0.2497706374
C   C76       1.0  0.31720  0.10030  0.60130  1.0000 0.0888172207
C   C77       1.0  0.07410  0.41640  0.48040  1.0000 -0.1577802391
C   C78       1.0  0.00320  0.47840  0.47080  1.0000 0.079804128
C   C79       1.0  0.79250  0.48600  0.78910  1.0000 0.079804128
C   C80       1.0  0.11640  0.90750  0.09030  1.0000 -0.1138909644
C   C81       1.0  0.76730  0.39240  0.77560  1.0000 0.0738191895
C   C82       1.0  0.13700  0.39970  0.54360  1.0000 -0.0132825913
C   C83       1.0  0.47210  0.85360  0.74610  1.0000 -0.0924767747
C   C84       1.0  0.03410  0.89220  0.97060  1.0000 -0.1577802391
C   C85       1.0  0.46090  0.71460  0.67300  1.0000 -0.0924767747
C   C86       1.0  0.22430  0.61440  0.85770  1.0000 0.079804128
C   C87       1.0  0.46030  0.04210  0.71050  1.0000 -0.2763497241
C   C88       1.0  0.30900  0.70040  0.95200  1.0000 0.079804128
C   C89       1.0  0.26910  0.64760  0.81970  1.0000 -0.2979677774
C   C90       1.0  0.07350  0.98740  0.09200  1.0000 -0.1534340141
C   C91       1.0  0.82940  0.32240  0.80880  1.0000 -0.1278086163
C   C92       1.0  0.67370  0.42590  0.89680  1.0000 0.0888172207
C   C93       1.0  0.12870  0.44340  0.60060  1.0000 -0.1195478074
C   C94       1.0  0.87830  0.50630  0.83610  1.0000 -0.1775174931
C   C95       1.0  0.03150  0.45960  0.91320  1.0000 0.5583673559
C   C96       1.0  0.14550  0.77170  0.02680  1.0000 0.5523435118
C   C97       1.0  0.93870  0.49900  0.40640  1.0000 -0.1534340141
C   C98       1.0  0.52080  0.67810  0.49730  1.0000 0.1098085466
C   C99       1.0  0.81950  0.48910  0.62290  1.0000 -0.2444352813
C   C100      1.0  0.95320  0.36990  0.68580  1.0000 0.1016760079
C   C101      1.0  0.83790  0.79060  0.84950  1.0000 0.2897122197
C   C102      1.0  0.59720  0.64140  0.02850  1.0000 -0.0170163476
C   C103      1.0  0.89250  0.51950  0.67720  1.0000 0.2805780537
C   C104      1.0  0.88130  0.78460  0.75230  1.0000 -0.0924767747
C   C105      1.0  0.24820  0.94030  0.94170  1.0000 0.1098085466
C   C106      1.0  0.50980  0.47510  0.03090  1.0000 0.079804128
C   C107      1.0  0.14800  0.96780  0.70920  1.0000 -0.1195478074
C   C108      1.0  0.10820  0.93200  0.84890  1.0000 0.2897122197
C   C109      1.0  0.17940  0.12920  0.73160  1.0000 -0.1577802391
C   C110      1.0  0.02490  0.08190  0.65810  1.0000 0.5523435118
C   C111      1.0  0.04710  0.78790  0.79950  1.0000 -0.0924767747
C   C112      1.0  0.13000  0.72450  0.60430  1.0000 -0.2656670369
C   C113      1.0  0.85850  0.76390  0.91710  1.0000 -0.2497706374
C   C114      1.0  0.18230  0.88820  0.89560  1.0000 -0.2763497241
C   C115      1.0  0.71460  0.15980  0.55110  1.0000 0.5523435118
C   C116      1.0  0.11970  0.06050  0.70020  1.0000 -0.0269168921
C   C117      1.0  0.41260  0.15530  0.85270  1.0000 -0.1138909644
C   C118      1.0  0.14800  0.73680  0.54680  1.0000 0.0888172207
C   C119      1.0  0.23140  0.94500  0.75330  1.0000 -0.1577802391
C   C120      1.0  0.96440  0.75120  0.74210  1.0000 0.1016760079
C   C121      1.0  0.43810  0.06200  0.86790  1.0000 -0.0170163476
C   C122      1.0  0.05380  0.76380  0.60770  1.0000 0.2805780537
C   C123      1.0  0.10450  0.02750  0.85030  1.0000 -0.2497706374
C   C124      1.0  0.99850  0.81370  0.55320  1.0000 -0.2497706374
C   C125      1.0  0.81720  0.39970  0.60130  1.0000 0.0888172207
C   C126      1.0  0.57410  0.08360  0.48040  1.0000 -0.1577802391
C   C127      1.0  0.50320  0.02160  0.47080  1.0000 0.079804128
C   C128      1.0  0.29250  0.01400  0.78910  1.0000 0.079804128
C   C129      1.0  0.61640  0.59250  0.09030  1.0000 -0.1138909644
C   C130      1.0  0.26730  0.10760  0.77560  1.0000 0.0738191895
C   C131      1.0  0.63700  0.10030  0.54360  1.0000 -0.0132825913
C   C132      1.0  0.97210  0.64640  0.74610  1.0000 -0.0924767747
C   C133      1.0  0.53410  0.60780  0.97060  1.0000 -0.1577802391
C   C134      1.0  0.96090  0.78540  0.67300  1.0000 -0.0924767747
C   C135      1.0  0.72430  0.88560  0.85770  1.0000 0.079804128
C   C136      1.0  0.96030  0.45790  0.71050  1.0000 -0.2763497241
C   C137      1.0  0.80900  0.79960  0.95200  1.0000 0.079804128
C   C138      1.0  0.76910  0.85240  0.81970  1.0000 -0.2979677774
C   C139      1.0  0.57350  0.51260  0.09200  1.0000 -0.1534340141
C   C140      1.0  0.32940  0.17760  0.80880  1.0000 -0.1278086163
C   C141      1.0  0.17370  0.07410  0.89680  1.0000 0.0888172207
C   C142      1.0  0.62870  0.05660  0.60060  1.0000 -0.1195478074
C   C143      1.0  0.37830  0.99370  0.83610  1.0000 -0.1775174931
C   C144      1.0  0.53150  0.04040  0.91320  1.0000 0.5583673559
C   C145      1.0  0.64550  0.72830  0.02680  1.0000 0.5523435118
C   C146      1.0  0.43870  0.00100  0.40640  1.0000 -0.1534340141
C   C147      1.0  0.02080  0.82190  0.49730  1.0000 0.1098085466
C   C148      1.0  0.18050  0.51090  0.37710  1.0000 -0.2444352813
C   C149      1.0  0.04680  0.63010  0.31420  1.0000 0.1016760079
C   C150      1.0  0.16210  0.20940  0.15050  1.0000 0.2897122197
C   C151      1.0  0.40280  0.35860  0.97150  1.0000 -0.0170163476
C   C152      1.0  0.10750  0.48050  0.32280  1.0000 0.2805780537
C   C153      1.0  0.11870  0.21540  0.24770  1.0000 -0.0924767747
C   C154      1.0  0.75180  0.05970  0.05830  1.0000 0.1098085466
C   C155      1.0  0.49020  0.52490  0.96910  1.0000 0.079804128
C   C156      1.0  0.85200  0.03220  0.29080  1.0000 -0.1195478074
C   C157      1.0  0.89180  0.06800  0.15110  1.0000 0.2897122197
C   C158      1.0  0.82060  0.87080  0.26840  1.0000 -0.1577802391
C   C159      1.0  0.97510  0.91810  0.34190  1.0000 0.5523435118
C   C160      1.0  0.95290  0.21210  0.20050  1.0000 -0.0924767747
C   C161      1.0  0.87000  0.27550  0.39570  1.0000 -0.2656670369
C   C162      1.0  0.14150  0.23610  0.08290  1.0000 -0.2497706374
C   C163      1.0  0.81770  0.11180  0.10440  1.0000 -0.2763497241
C   C164      1.0  0.28540  0.84020  0.44890  1.0000 0.5523435118
C   C165      1.0  0.88030  0.93950  0.29980  1.0000 -0.0269168921
C   C166      1.0  0.58740  0.84470  0.14730  1.0000 -0.1138909644
C   C167      1.0  0.85200  0.26320  0.45320  1.0000 0.0888172207
C   C168      1.0  0.76860  0.05500  0.24670  1.0000 -0.1577802391
C   C169      1.0  0.03560  0.24880  0.25790  1.0000 0.1016760079
C   C170      1.0  0.56190  0.93800  0.13210  1.0000 -0.0170163476
C   C171      1.0  0.94620  0.23620  0.39230  1.0000 0.2805780537
C   C172      1.0  0.89550  0.97250  0.14970  1.0000 -0.2497706374
C   C173      1.0  0.00150  0.18630  0.44680  1.0000 -0.2497706374
C   C174      1.0  0.18280  0.60030  0.39870  1.0000 0.0888172207
C   C175      1.0  0.42590  0.91640  0.51960  1.0000 -0.1577802391
C   C176      1.0  0.49680  0.97840  0.52920  1.0000 0.079804128
C   C177      1.0  0.70750  0.98600  0.21090  1.0000 0.079804128
C   C178      1.0  0.38360  0.40750  0.90970  1.0000 -0.1138909644
C   C179      1.0  0.73270  0.89240  0.22440  1.0000 0.0738191895
C   C180      1.0  0.36300  0.89970  0.45640  1.0000 -0.0132825913
C   C181      1.0  0.02790  0.35360  0.25390  1.0000 -0.0924767747
C   C182      1.0  0.46590  0.39220  0.02940  1.0000 -0.1577802391
C   C183      1.0  0.03910  0.21460  0.32700  1.0000 -0.0924767747
C   C184      1.0  0.27570  0.11440  0.14230  1.0000 0.079804128
C   C185      1.0  0.03970  0.54210  0.28950  1.0000 -0.2763497241
C   C186      1.0  0.19100  0.20040  0.04800  1.0000 0.079804128
C   C187      1.0  0.23090  0.14760  0.18030  1.0000 -0.2979677774
C   C188      1.0  0.42650  0.48740  0.90800  1.0000 -0.1534340141
C   C189      1.0  0.67060  0.82240  0.19120  1.0000 -0.1278086163
C   C190      1.0  0.82630  0.92590  0.10320  1.0000 0.0888172207
C   C191      1.0  0.37130  0.94340  0.39940  1.0000 -0.1195478074
C   C192      1.0  0.62170  0.00630  0.16390  1.0000 -0.1775174931
C   C193      1.0  0.46850  0.95960  0.08680  1.0000 0.5583673559
C   C194      1.0  0.35450  0.27170  0.97320  1.0000 0.5523435118
C   C195      1.0  0.56130  0.99900  0.59360  1.0000 -0.1577802391
C   C196      1.0  0.97920  0.17810  0.50270  1.0000 0.1098085466
N   N1        1.0  0.40660  0.28370  0.50770  1.0000 -0.2497706374
N   N2        1.0  0.75880  0.36030  0.07730  1.0000 -0.2763497241
N   N3        1.0  0.61570  0.83950  0.36810  1.0000 -0.2600933395
N   N4        1.0  0.25470  0.53240  0.05640  1.0000 -0.2600933395
N   N5        1.0  0.59340  0.71630  0.49230  1.0000 -0.2497706374
N   N6        1.0  0.24120  0.63970  0.92270  1.0000 -0.2763497241
N   N7        1.0  0.38430  0.16050  0.63190  1.0000 -0.2600933395
N   N8        1.0  0.74530  0.46760  0.94360  1.0000 -0.2600933395
N   N9        1.0  0.09340  0.78370  0.49230  1.0000 -0.2497706374
N   N10       1.0  0.74120  0.86030  0.92270  1.0000 -0.2763497241
N   N11       1.0  0.88430  0.33950  0.63190  1.0000 -0.2600933395
N   N12       1.0  0.24530  0.03240  0.94360  1.0000 -0.2600933395
N   N13       1.0  0.90660  0.21630  0.50770  1.0000 -0.2497706374
N   N14       1.0  0.25880  0.13970  0.07730  1.0000 -0.2763497241
N   N15       1.0  0.11570  0.66050  0.36810  1.0000 -0.2600933395
N   N16       1.0  0.75470  0.96760  0.05640  1.0000 -0.2600933395
O   O1        1.0  0.46090  0.38660  0.19800  1.0000 -0.1775174931
O   O2        1.0  0.78990  0.72060  0.49140  1.0000 -0.587399856
O   O3        1.0  0.60680  0.11000  0.30590  1.0000 -0.1775174931
O   O4        1.0  0.46060  0.24800  0.33380  1.0000 -0.1932670333
O   O5        1.0  0.94280  0.45960  0.08420  1.0000 -0.5269726671
O   O6        1.0  0.71400  0.64150  0.39750  1.0000 -0.5413042464
O   O7        1.0  0.89610  0.28520  0.02100  1.0000 -0.5413042464
O   O8        1.0  0.61030  0.25340  0.18100  1.0000 -0.1775174931
O   O9        1.0  0.49920  0.66690  0.34100  1.0000 -0.587399856
O   O10       1.0  0.52530  0.52000  0.37340  1.0000 -0.5413042464
O   O11       1.0  0.91880  0.60630  0.05880  1.0000 -0.5575214185
O   O12       1.0  0.77840  0.24170  0.93030  1.0000 -0.5546886482
O   O13       1.0  0.53910  0.61340  0.80200  1.0000 -0.1775174931
O   O14       1.0  0.21010  0.27940  0.50860  1.0000 -0.587399856
O   O15       1.0  0.39320  0.89000  0.69410  1.0000 -0.1775174931
O   O16       1.0  0.53940  0.75200  0.66620  1.0000 -0.1932670333
O   O17       1.0  0.05720  0.54040  0.91580  1.0000 -0.5269726671
O   O18       1.0  0.28600  0.35850  0.60250  1.0000 -0.5413042464
O   O19       1.0  0.10390  0.71480  0.97900  1.0000 -0.5413042464
O   O20       1.0  0.38970  0.74660  0.81900  1.0000 -0.1775174931
O   O21       1.0  0.50080  0.33310  0.65900  1.0000 -0.587399856
O   O22       1.0  0.47470  0.48000  0.62660  1.0000 -0.5413042464
O   O23       1.0  0.08120  0.39370  0.94120  1.0000 -0.5575214185
O   O24       1.0  0.22160  0.75830  0.06970  1.0000 -0.5546886482
O   O25       1.0  0.03910  0.88660  0.80200  1.0000 -0.1775174931
O   O26       1.0  0.71010  0.22060  0.50860  1.0000 -0.587399856
O   O27       1.0  0.89320  0.61000  0.69410  1.0000 -0.1775174931
O   O28       1.0  0.03940  0.74800  0.66620  1.0000 -0.1932670333
O   O29       1.0  0.55720  0.95960  0.91580  1.0000 -0.5269726671
O   O30       1.0  0.78600  0.14150  0.60250  1.0000 -0.5413042464
O   O31       1.0  0.60390  0.78520  0.97900  1.0000 -0.5413042464
O   O32       1.0  0.88970  0.75340  0.81900  1.0000 -0.1775174931
O   O33       1.0  0.00080  0.16690  0.65900  1.0000 -0.587399856
O   O34       1.0  0.97470  0.02000  0.62660  1.0000 -0.5413042464
O   O35       1.0  0.58120  0.10630  0.94120  1.0000 -0.5575214185
O   O36       1.0  0.72160  0.74170  0.06970  1.0000 -0.5546886482
O   O37       1.0  0.96090  0.11340  0.19800  1.0000 -0.1775174931
O   O38       1.0  0.28990  0.77940  0.49140  1.0000 -0.587399856
O   O39       1.0  0.10680  0.39000  0.30590  1.0000 -0.1775174931
O   O40       1.0  0.96060  0.25200  0.33380  1.0000 -0.1932670333
O   O41       1.0  0.44280  0.04040  0.08420  1.0000 -0.5269726671
O   O42       1.0  0.21400  0.85850  0.39750  1.0000 -0.5413042464
O   O43       1.0  0.39610  0.21480  0.02100  1.0000 -0.5413042464
O   O44       1.0  0.11030  0.24660  0.18100  1.0000 -0.1775174931
O   O45       1.0  0.99920  0.83310  0.34100  1.0000 -0.587399856
O   O46       1.0  0.02530  0.98000  0.37340  1.0000 -0.5413042464
O   O47       1.0  0.41880  0.89370  0.05880  1.0000 -0.5575214185
O   O48       1.0  0.27840  0.25830  0.93030  1.0000 -0.5546886482
