# DDEC6 charges by PACMAN v1.1 (https://github.com/mtap-research/PACMAN-charge/)
data_2017[V][nan]3[FSR]3
_chemical_formula_sum              "V8 H24 C64 O40"
_cell_length_a       15.0418
_cell_length_b       15.0418
_cell_length_c       11.9611
_cell_angle_alpha    90
_cell_angle_beta     90
_cell_angle_gamma    90

_symmetry_space_group_name_H-M    "P 1"
_symmetry_Int_Tables_number       1

loop_
  _symmetry_equiv_pos_as_xyz
  'x, y, z'

loop_
  _atom_site_type_symbol
  _atom_site_label
  _atom_site_symmetry_multiplicity
  _atom_site_fract_x
  _atom_site_fract_y
  _atom_site_fract_z
  _atom_site_occupancy
  _atom_site_charge
V   V1        1.0  0.06400  0.93600  0.12500  1.0000 1.892963005
V   V2        1.0  0.93600  0.06400  0.62500  1.0000 1.892963005
V   V3        1.0  0.93600  0.93600  0.37500  1.0000 1.892963005
V   V4        1.0  0.06400  0.06400  0.87500  1.0000 1.892963005
V   V5        1.0  0.55600  0.55600  0.37500  1.0000 1.7874820957
V   V6        1.0  0.44400  0.44400  0.87500  1.0000 1.7874820957
V   V7        1.0  0.55600  0.44400  0.62500  1.0000 1.7874820957
V   V8        1.0  0.44400  0.55600  0.12500  1.0000 1.7874820957
H   H1        1.0  0.25230  0.74940  0.25310  1.0000 0.1414126882
H   H2        1.0  0.14490  0.82340  0.54530  1.0000 0.1349133233
H   H3        1.0  0.36680  0.67600  0.54130  1.0000 0.1414126882
H   H4        1.0  0.74770  0.25060  0.75310  1.0000 0.1414126882
H   H5        1.0  0.85510  0.17660  0.04530  1.0000 0.1349133233
H   H6        1.0  0.63320  0.32400  0.04130  1.0000 0.1414126882
H   H7        1.0  0.74940  0.74770  0.50310  1.0000 0.1414126882
H   H8        1.0  0.82340  0.85510  0.79530  1.0000 0.1349133233
H   H9        1.0  0.67600  0.63320  0.79130  1.0000 0.1414126882
H   H10       1.0  0.25060  0.25230  0.00310  1.0000 0.1414126882
H   H11       1.0  0.17660  0.14490  0.29530  1.0000 0.1349133233
H   H12       1.0  0.32400  0.36680  0.29130  1.0000 0.1414126882
H   H13       1.0  0.25230  0.25060  0.74690  1.0000 0.1414126882
H   H14       1.0  0.14490  0.17660  0.45470  1.0000 0.1349133233
H   H15       1.0  0.36680  0.32400  0.45870  1.0000 0.1414126882
H   H16       1.0  0.74770  0.74940  0.24690  1.0000 0.1414126882
H   H17       1.0  0.85510  0.82340  0.95470  1.0000 0.1349133233
H   H18       1.0  0.63320  0.67600  0.95870  1.0000 0.1414126882
H   H19       1.0  0.74940  0.25230  0.49690  1.0000 0.1414126882
H   H20       1.0  0.82340  0.14490  0.20470  1.0000 0.1349133233
H   H21       1.0  0.67600  0.36680  0.20870  1.0000 0.1414126882
H   H22       1.0  0.25060  0.74770  0.99690  1.0000 0.1414126882
H   H23       1.0  0.17660  0.85510  0.70470  1.0000 0.1349133233
H   H24       1.0  0.32400  0.63320  0.70870  1.0000 0.1414126882
C   C1        1.0  0.11880  0.83880  0.33180  1.0000 0.62365414
C   C2        1.0  0.18760  0.79370  0.38990  1.0000 -0.0611489047
C   C3        1.0  0.25330  0.74950  0.33080  1.0000 -0.0682926487
C   C4        1.0  0.18900  0.79380  0.50560  1.0000 -0.1119410751
C   C5        1.0  0.32040  0.70550  0.38750  1.0000 -0.0611489047
C   C6        1.0  0.25610  0.74970  0.56226  1.0000 0.0624594938
C   C7        1.0  0.32180  0.70560  0.50320  1.0000 -0.0978292322
C   C8        1.0  0.38770  0.66020  0.32690  1.0000 0.6117569933
C   C9        1.0  0.88120  0.16120  0.83180  1.0000 0.62365414
C   C10       1.0  0.81240  0.20630  0.88990  1.0000 -0.0611489047
C   C11       1.0  0.74670  0.25050  0.83080  1.0000 -0.0682926487
C   C12       1.0  0.81100  0.20620  0.00560  1.0000 -0.1119410751
C   C13       1.0  0.67960  0.29450  0.88750  1.0000 -0.0611489047
C   C14       1.0  0.74390  0.25030  0.06226  1.0000 0.0624594938
C   C15       1.0  0.67820  0.29440  0.00320  1.0000 -0.0978292322
C   C16       1.0  0.61230  0.33980  0.82690  1.0000 0.6117569933
C   C17       1.0  0.83880  0.88120  0.58180  1.0000 0.62365414
C   C18       1.0  0.79370  0.81240  0.63990  1.0000 -0.0611489047
C   C19       1.0  0.74950  0.74670  0.58080  1.0000 -0.0682926487
C   C20       1.0  0.79380  0.81100  0.75560  1.0000 -0.1119410751
C   C21       1.0  0.70550  0.67960  0.63750  1.0000 -0.0611489047
C   C22       1.0  0.74970  0.74390  0.81226  1.0000 0.0624594938
C   C23       1.0  0.70560  0.67820  0.75320  1.0000 -0.0978292322
C   C24       1.0  0.66020  0.61230  0.57690  1.0000 0.6117569933
C   C25       1.0  0.16120  0.11880  0.08180  1.0000 0.62365414
C   C26       1.0  0.20630  0.18760  0.13990  1.0000 -0.0611489047
C   C27       1.0  0.25050  0.25330  0.08080  1.0000 -0.0682926487
C   C28       1.0  0.20620  0.18900  0.25560  1.0000 -0.1119410751
C   C29       1.0  0.29450  0.32040  0.13750  1.0000 -0.0611489047
C   C30       1.0  0.25030  0.25610  0.31226  1.0000 0.0624594938
C   C31       1.0  0.29440  0.32180  0.25320  1.0000 -0.0978292322
C   C32       1.0  0.33980  0.38770  0.07690  1.0000 0.6117569933
C   C33       1.0  0.11880  0.16120  0.66820  1.0000 0.62365414
C   C34       1.0  0.18760  0.20630  0.61010  1.0000 -0.0611489047
C   C35       1.0  0.25330  0.25050  0.66920  1.0000 -0.0682926487
C   C36       1.0  0.18900  0.20620  0.49440  1.0000 -0.1119410751
C   C37       1.0  0.32040  0.29450  0.61250  1.0000 -0.0611489047
C   C38       1.0  0.25610  0.25030  0.43774  1.0000 0.0624594938
C   C39       1.0  0.32180  0.29440  0.49680  1.0000 -0.0978292322
C   C40       1.0  0.38770  0.33980  0.67310  1.0000 0.6117569933
C   C41       1.0  0.88120  0.83880  0.16820  1.0000 0.62365414
C   C42       1.0  0.81240  0.79370  0.11010  1.0000 -0.0611489047
C   C43       1.0  0.74670  0.74950  0.16920  1.0000 -0.0682926487
C   C44       1.0  0.81100  0.79380  0.99440  1.0000 -0.1119410751
C   C45       1.0  0.67960  0.70550  0.11250  1.0000 -0.0611489047
C   C46       1.0  0.74390  0.74970  0.93774  1.0000 0.0624594938
C   C47       1.0  0.67820  0.70560  0.99680  1.0000 -0.0978292322
C   C48       1.0  0.61230  0.66020  0.17310  1.0000 0.6117569933
C   C49       1.0  0.83880  0.11880  0.41820  1.0000 0.62365414
C   C50       1.0  0.79370  0.18760  0.36010  1.0000 -0.0611489047
C   C51       1.0  0.74950  0.25330  0.41920  1.0000 -0.0682926487
C   C52       1.0  0.79380  0.18900  0.24440  1.0000 -0.1119410751
C   C53       1.0  0.70550  0.32040  0.36250  1.0000 -0.0611489047
C   C54       1.0  0.74970  0.25610  0.18774  1.0000 0.0624594938
C   C55       1.0  0.70560  0.32180  0.24680  1.0000 -0.0978292322
C   C56       1.0  0.66020  0.38770  0.42310  1.0000 0.6117569933
C   C57       1.0  0.16120  0.88120  0.91820  1.0000 0.62365414
C   C58       1.0  0.20630  0.81240  0.86010  1.0000 -0.0611489047
C   C59       1.0  0.25050  0.74670  0.91920  1.0000 -0.0682926487
C   C60       1.0  0.20620  0.81100  0.74440  1.0000 -0.1119410751
C   C61       1.0  0.29450  0.67960  0.86250  1.0000 -0.0611489047
C   C62       1.0  0.25030  0.74390  0.68774  1.0000 0.0624594938
C   C63       1.0  0.29440  0.67820  0.74680  1.0000 -0.0978292322
C   C64       1.0  0.33980  0.61230  0.92310  1.0000 0.6117569933
O   O1        1.0  0.13360  0.87610  0.23610  1.0000 -0.5793596564
O   O2        1.0  0.03950  0.84390  0.37290  1.0000 -0.5793596564
O   O3        1.0  0.46380  0.64270  0.37230  1.0000 -0.5455837196
O   O4        1.0  0.37490  0.63520  0.22470  1.0000 -0.5606470725
O   O5        1.0  0.86640  0.12390  0.73610  1.0000 -0.5793596564
O   O6        1.0  0.96050  0.15610  0.87290  1.0000 -0.5793596564
O   O7        1.0  0.53620  0.35730  0.87230  1.0000 -0.5455837196
O   O8        1.0  0.62510  0.36480  0.72470  1.0000 -0.5606470725
O   O9        1.0  0.87610  0.86640  0.48610  1.0000 -0.5793596564
O   O10       1.0  0.84390  0.96050  0.62290  1.0000 -0.5793596564
O   O11       1.0  0.64270  0.53620  0.62230  1.0000 -0.5455837196
O   O12       1.0  0.63520  0.62510  0.47470  1.0000 -0.5606470725
O   O13       1.0  0.12390  0.13360  0.98610  1.0000 -0.5793596564
O   O14       1.0  0.15610  0.03950  0.12290  1.0000 -0.5793596564
O   O15       1.0  0.35730  0.46380  0.12230  1.0000 -0.5455837196
O   O16       1.0  0.36480  0.37490  0.97470  1.0000 -0.5606470725
O   O17       1.0  0.13360  0.12390  0.76390  1.0000 -0.5793596564
O   O18       1.0  0.03950  0.15610  0.62710  1.0000 -0.5793596564
O   O19       1.0  0.46380  0.35730  0.62770  1.0000 -0.5455837196
O   O20       1.0  0.37490  0.36480  0.77530  1.0000 -0.5606470725
O   O21       1.0  0.86640  0.87610  0.26390  1.0000 -0.5793596564
O   O22       1.0  0.96050  0.84390  0.12710  1.0000 -0.5793596564
O   O23       1.0  0.53620  0.64270  0.12770  1.0000 -0.5455837196
O   O24       1.0  0.62510  0.63520  0.27530  1.0000 -0.5606470725
O   O25       1.0  0.87610  0.13360  0.51390  1.0000 -0.5793596564
O   O26       1.0  0.84390  0.03950  0.37710  1.0000 -0.5793596564
O   O27       1.0  0.64270  0.46380  0.37770  1.0000 -0.5455837196
O   O28       1.0  0.63520  0.37490  0.52530  1.0000 -0.5606470725
O   O29       1.0  0.12390  0.86640  0.01390  1.0000 -0.5793596564
O   O30       1.0  0.15610  0.96050  0.87710  1.0000 -0.5793596564
O   O31       1.0  0.35730  0.53620  0.87770  1.0000 -0.5455837196
O   O32       1.0  0.36480  0.62510  0.02530  1.0000 -0.5606470725
O   O33       1.0  0.00000  0.97660  0.25000  1.0000 -0.9493809214
O   O34       1.0  0.00000  0.02340  0.75000  1.0000 -0.9493809214
O   O35       1.0  0.97660  0.00000  0.50000  1.0000 -0.9493809214
O   O36       1.0  0.02340  0.00000  0.00000  1.0000 -0.9493809214
O   O37       1.0  0.50000  0.48780  0.25000  1.0000 -0.8316610923
O   O38       1.0  0.50000  0.51220  0.75000  1.0000 -0.8316610923
O   O39       1.0  0.48780  0.50000  0.50000  1.0000 -0.8316610923
O   O40       1.0  0.51220  0.50000  0.00000  1.0000 -0.8316610923
