# DDEC6 charges by PACMAN v1.1 (https://github.com/mtap-research/PACMAN-charge/)
data_2017[Zn][hcb]2[FSR]5
_chemical_formula_sum              "Zn2 H18 C28 N2 O14"
_cell_length_a       6.8464
_cell_length_b       9.7317
_cell_length_c       12.1965
_cell_angle_alpha    103.58
_cell_angle_beta     94.599
_cell_angle_gamma    104.781

_symmetry_space_group_name_H-M    "P 1"
_symmetry_Int_Tables_number       1

loop_
  _symmetry_equiv_pos_as_xyz
  'x, y, z'

loop_
  _atom_site_type_symbol
  _atom_site_label
  _atom_site_symmetry_multiplicity
  _atom_site_fract_x
  _atom_site_fract_y
  _atom_site_fract_z
  _atom_site_occupancy
  _atom_site_charge
Zn  Zn1       1.0  0.83946  0.49840  0.18194  1.0000 0.9178024799
Zn  Zn2       1.0  0.16054  0.50160  0.81806  1.0000 0.9178024799
H   H1        1.0  0.72120  0.66550  0.89830  1.0000 0.1417838852
H   H2        1.0  0.70430  0.04860  0.83130  1.0000 0.1417838852
H   H3        1.0  0.78670  0.02570  0.15560  1.0000 0.1173372537
H   H4        1.0  0.43290  0.81640  0.68040  1.0000 0.1417838852
H   H5        1.0  0.41480  0.71480  0.48820  1.0000 0.1478584976
H   H6        1.0  0.94670  0.62700  0.55100  1.0000 0.1478584976
H   H7        1.0  0.95700  0.72940  0.74200  1.0000 0.13390584
H   H8        1.0  0.24300  0.58100  0.24200  1.0000 0.406378162
H   H9        1.0  0.18200  0.60100  0.13400  1.0000 0.402930227
H   H10       1.0  0.27880  0.33450  0.10170  1.0000 0.1417838852
H   H11       1.0  0.29570  0.95140  0.16870  1.0000 0.1417838852
H   H12       1.0  0.21330  0.97430  0.84440  1.0000 0.1173372537
H   H13       1.0  0.56710  0.18360  0.31960  1.0000 0.1417838852
H   H14       1.0  0.58520  0.28520  0.51180  1.0000 0.1478584976
H   H15       1.0  0.05330  0.37300  0.44900  1.0000 0.1478584976
H   H16       1.0  0.04300  0.27060  0.25800  1.0000 0.13390584
H   H17       1.0  0.75700  0.41900  0.75800  1.0000 0.406378162
H   H18       1.0  0.81800  0.39900  0.86600  1.0000 0.402930227
C   C1        1.0  0.79680  0.74810  0.12560  1.0000 0.5621888311
C   C2        1.0  0.75940  0.83300  0.04054  1.0000 0.0171436862
C   C3        1.0  0.72930  0.76490  0.92445  1.0000 -0.1685127943
C   C4        1.0  0.71160  0.84870  0.84847  1.0000 0.1478584976
C   C5        1.0  0.71800  0.99530  0.88412  1.0000 -0.1786454349
C   C6        1.0  0.74530  0.06210  0.00047  1.0000 -0.0106571598
C   C7        1.0  0.76690  0.98070  0.07781  1.0000 -0.1391873985
C   C8        1.0  0.75850  0.22360  0.03881  1.0000 0.5527205736
C   C9        1.0  0.53610  0.77760  0.65347  1.0000 0.0471044489
C   C10       1.0  0.52500  0.71670  0.53883  1.0000 -0.1506591171
C   C11       1.0  0.67750  0.65800  0.49863  1.0000 0.0375194818
C   C12       1.0  0.84130  0.66440  0.57630  1.0000 -0.1391873985
C   C13       1.0  0.84760  0.72590  0.69000  1.0000 0.0471044489
C   C14       1.0  0.66520  0.58550  0.37302  1.0000 0.5527205736
C   C15       1.0  0.20320  0.25190  0.87440  1.0000 0.5621888311
C   C16       1.0  0.24060  0.16700  0.95946  1.0000 0.0171436862
C   C17       1.0  0.27070  0.23510  0.07555  1.0000 -0.1685127943
C   C18       1.0  0.28840  0.15130  0.15153  1.0000 0.1478584976
C   C19       1.0  0.28200  0.00470  0.11588  1.0000 -0.1786454349
C   C20       1.0  0.25470  0.93790  0.99953  1.0000 -0.0106571598
C   C21       1.0  0.23310  0.01930  0.92219  1.0000 -0.1391873985
C   C22       1.0  0.24150  0.77640  0.96119  1.0000 0.5527205736
C   C23       1.0  0.46390  0.22240  0.34653  1.0000 0.0471044489
C   C24       1.0  0.47500  0.28330  0.46117  1.0000 -0.1506591171
C   C25       1.0  0.32250  0.34200  0.50137  1.0000 0.0375194818
C   C26       1.0  0.15870  0.33560  0.42370  1.0000 -0.1391873985
C   C27       1.0  0.15240  0.27410  0.31000  1.0000 0.0471044489
C   C28       1.0  0.33480  0.41450  0.62698  1.0000 0.5527205736
N   N1        1.0  0.69600  0.78130  0.72718  1.0000 0.0807732761
N   N2        1.0  0.30400  0.21870  0.27282  1.0000 0.0807732761
O   O1        1.0  0.86460  0.81572  0.22614  1.0000 -0.5496026903
O   O2        1.0  0.75890  0.61011  0.08442  1.0000 -0.5582809776
O   O3        1.0  0.50830  0.56510  0.30833  1.0000 -0.5334624976
O   O4        1.0  0.82350  0.54880  0.34611  1.0000 -0.5582809776
O   O5        1.0  0.75190  0.29247  0.96709  1.0000 -0.5095627635
O   O6        1.0  0.77860  0.28154  0.14614  1.0000 -0.5784463018
O   O7        1.0  0.14540  0.55750  0.18496  1.0000 -0.6700709194
O   O8        1.0  0.13540  0.18428  0.77386  1.0000 -0.5496026903
O   O9        1.0  0.24110  0.38989  0.91558  1.0000 -0.5582809776
O   O10       1.0  0.49170  0.43490  0.69167  1.0000 -0.5334624976
O   O11       1.0  0.17650  0.45120  0.65389  1.0000 -0.5582809776
O   O12       1.0  0.24810  0.70753  0.03291  1.0000 -0.5095627635
O   O13       1.0  0.22140  0.71846  0.85386  1.0000 -0.5784463018
O   O14       1.0  0.85460  0.44250  0.81504  1.0000 -0.6700709194
