# DDEC6 charges by PACMAN v1.1 (https://github.com/mtap-research/PACMAN-charge/)
data_2017[FeAu][sql]2[FSR]1
_chemical_formula_sum              "Fe2 H60 Au4 C48 N12"
_cell_length_a       12.0734
_cell_length_b       12.0734
_cell_length_c       14.458
_cell_angle_alpha    86.7712
_cell_angle_beta     93.2288
_cell_angle_gamma    101.229

_symmetry_space_group_name_H-M    "P 1"
_symmetry_Int_Tables_number       1

loop_
  _symmetry_equiv_pos_as_xyz
  'x, y, z'

loop_
  _atom_site_type_symbol
  _atom_site_label
  _atom_site_symmetry_multiplicity
  _atom_site_fract_x
  _atom_site_fract_y
  _atom_site_fract_z
  _atom_site_occupancy
  _atom_site_charge
Fe  Fe1       1.0  0.50000  0.00000  0.00000  1.0000 0.7672305958
Fe  Fe2       1.0  0.00000  0.50000  0.50000  1.0000 0.7672305958
H   H1        1.0  0.26600  0.06300  0.00120  1.0000 0.111671103
H   H2        1.0  0.55310  0.26470  0.96530  1.0000 0.111671103
H   H3        1.0  0.17070  0.21170  0.98790  1.0000 0.1372461474
H   H4        1.0  0.46460  0.41340  0.92760  1.0000 0.1372461474
H   H5        1.0  0.30580  0.49980  0.91740  1.0000 0.091494012
H   H6        1.0  0.13490  0.49130  0.85540  1.0000 0.111671103
H   H7        1.0  0.08990  0.37330  0.90200  1.0000 0.1000129301
H   H8        1.0  0.15200  0.41100  0.04820  1.0000 0.091494012
H   H9        1.0  0.27830  0.46270  0.07450  1.0000 0.1000129301
H   H10       1.0  0.22580  0.34240  0.79110  1.0000 0.111671103
H   H11       1.0  0.09350  0.31010  0.78560  1.0000 0.1296095656
H   H12       1.0  0.15460  0.42640  0.74220  1.0000 0.1372461474
H   H13       1.0  0.21060  0.63040  0.97280  1.0000 0.111671103
H   H14       1.0  0.10580  0.58100  0.03200  1.0000 0.111671103
H   H15       1.0  0.22340  0.62720  0.08140  1.0000 0.1193570004
H   H16       1.0  0.06300  0.26600  0.49880  1.0000 0.111671103
H   H17       1.0  0.26470  0.55310  0.53470  1.0000 0.111671103
H   H18       1.0  0.21170  0.17070  0.51210  1.0000 0.1372461474
H   H19       1.0  0.41340  0.46460  0.57240  1.0000 0.1372461474
H   H20       1.0  0.49980  0.30580  0.58260  1.0000 0.091494012
H   H21       1.0  0.49130  0.13490  0.64460  1.0000 0.111671103
H   H22       1.0  0.37330  0.08990  0.59800  1.0000 0.1000129301
H   H23       1.0  0.41100  0.15200  0.45180  1.0000 0.091494012
H   H24       1.0  0.46270  0.27830  0.42550  1.0000 0.1000129301
H   H25       1.0  0.34240  0.22580  0.70890  1.0000 0.111671103
H   H26       1.0  0.31010  0.09350  0.71440  1.0000 0.1296095656
H   H27       1.0  0.42640  0.15460  0.75780  1.0000 0.1372461474
H   H28       1.0  0.63040  0.21060  0.52720  1.0000 0.111671103
H   H29       1.0  0.58100  0.10580  0.46800  1.0000 0.1193570004
H   H30       1.0  0.62720  0.22340  0.41860  1.0000 0.1193570004
H   H31       1.0  0.73400  0.93700  0.99880  1.0000 0.111671103
H   H32       1.0  0.44690  0.73530  0.03470  1.0000 0.111671103
H   H33       1.0  0.82930  0.78830  0.01210  1.0000 0.1372461474
H   H34       1.0  0.53540  0.58660  0.07240  1.0000 0.1372461474
H   H35       1.0  0.69420  0.50020  0.08260  1.0000 0.091494012
H   H36       1.0  0.86510  0.50870  0.14460  1.0000 0.111671103
H   H37       1.0  0.91010  0.62670  0.09800  1.0000 0.1000129301
H   H38       1.0  0.84800  0.58900  0.95180  1.0000 0.091494012
H   H39       1.0  0.72170  0.53730  0.92550  1.0000 0.1000129301
H   H40       1.0  0.77420  0.65760  0.20890  1.0000 0.111671103
H   H41       1.0  0.90650  0.68990  0.21440  1.0000 0.1296095656
H   H42       1.0  0.84540  0.57360  0.25780  1.0000 0.1372461474
H   H43       1.0  0.78940  0.36960  0.02720  1.0000 0.111671103
H   H44       1.0  0.89420  0.41900  0.96800  1.0000 0.1193570004
H   H45       1.0  0.77660  0.37280  0.91860  1.0000 0.1193570004
H   H46       1.0  0.93700  0.73400  0.50120  1.0000 0.111671103
H   H47       1.0  0.73530  0.44690  0.46530  1.0000 0.111671103
H   H48       1.0  0.78830  0.82930  0.48790  1.0000 0.1372461474
H   H49       1.0  0.58660  0.53540  0.42760  1.0000 0.1372461474
H   H50       1.0  0.50020  0.69420  0.41740  1.0000 0.091494012
H   H51       1.0  0.50870  0.86510  0.35540  1.0000 0.111671103
H   H52       1.0  0.62670  0.91010  0.40200  1.0000 0.1000129301
H   H53       1.0  0.58900  0.84800  0.54820  1.0000 0.091494012
H   H54       1.0  0.53730  0.72170  0.57450  1.0000 0.1000129301
H   H55       1.0  0.65760  0.77420  0.29110  1.0000 0.111671103
H   H56       1.0  0.68990  0.90650  0.28560  1.0000 0.1296095656
H   H57       1.0  0.57360  0.84540  0.24220  1.0000 0.1372461474
H   H58       1.0  0.36960  0.78940  0.47280  1.0000 0.111671103
H   H59       1.0  0.41900  0.89420  0.53200  1.0000 0.111671103
H   H60       1.0  0.37280  0.77660  0.58140  1.0000 0.1193570004
Au  Au1       1.0  0.21846  0.75614  0.76196  1.0000 -0.0260732925
Au  Au2       1.0  0.75614  0.21846  0.73804  1.0000 -0.0260732925
Au  Au3       1.0  0.78154  0.24386  0.23804  1.0000 -0.0260732925
Au  Au4       1.0  0.24386  0.78154  0.26196  1.0000 -0.0260732925
C   C1        1.0  0.32140  0.85020  0.85160  1.0000 0.028388928
C   C2        1.0  0.30670  0.13550  0.98880  1.0000 0.1000129301
C   C3        1.0  0.47460  0.25240  0.96460  1.0000 0.091494012
C   C4        1.0  0.24800  0.22420  0.97890  1.0000 -0.2044786556
C   C5        1.0  0.42170  0.34390  0.94630  1.0000 -0.221570362
C   C6        1.0  0.66140  0.12380  0.83040  1.0000 0.0225103799
C   C7        1.0  0.30910  0.33510  0.95480  1.0000 0.1296095656
C   C8        1.0  0.25000  0.43600  0.94090  1.0000 -0.0562999218
C   C9        1.0  0.15410  0.41790  0.87060  1.0000 -0.1443314596
C   C10       1.0  0.21730  0.46670  0.02900  1.0000 -0.155181904
C   C11       1.0  0.15700  0.37100  0.79200  1.0000 -0.3392686887
C   C12       1.0  0.18600  0.58800  0.02900  1.0000 -0.3700978501
C   C13       1.0  0.85020  0.32140  0.64840  1.0000 0.028388928
C   C14       1.0  0.13550  0.30670  0.51120  1.0000 0.1000129301
C   C15       1.0  0.25240  0.47460  0.53540  1.0000 0.091494012
C   C16       1.0  0.22420  0.24800  0.52110  1.0000 -0.2044786556
C   C17       1.0  0.34390  0.42170  0.55370  1.0000 -0.221570362
C   C18       1.0  0.12380  0.66140  0.66960  1.0000 0.0225103799
C   C19       1.0  0.33510  0.30910  0.54520  1.0000 0.1296095656
C   C20       1.0  0.43600  0.25000  0.55910  1.0000 -0.0562999218
C   C21       1.0  0.41790  0.15410  0.62940  1.0000 -0.1443314596
C   C22       1.0  0.46670  0.21730  0.47100  1.0000 -0.155181904
C   C23       1.0  0.37100  0.15700  0.70800  1.0000 -0.3392686887
C   C24       1.0  0.58800  0.18600  0.47100  1.0000 -0.3700978501
C   C25       1.0  0.67860  0.14980  0.14840  1.0000 0.028388928
C   C26       1.0  0.69330  0.86450  0.01120  1.0000 0.1000129301
C   C27       1.0  0.52540  0.74760  0.03540  1.0000 0.091494012
C   C28       1.0  0.75200  0.77580  0.02110  1.0000 -0.2044786556
C   C29       1.0  0.57830  0.65610  0.05370  1.0000 -0.221570362
C   C30       1.0  0.33860  0.87620  0.16960  1.0000 0.0225103799
C   C31       1.0  0.69090  0.66490  0.04520  1.0000 0.1296095656
C   C32       1.0  0.75000  0.56400  0.05910  1.0000 -0.0562999218
C   C33       1.0  0.84590  0.58210  0.12940  1.0000 -0.1443314596
C   C34       1.0  0.78270  0.53330  0.97100  1.0000 -0.155181904
C   C35       1.0  0.84300  0.62900  0.20800  1.0000 -0.3392686887
C   C36       1.0  0.81400  0.41200  0.97100  1.0000 -0.3700978501
C   C37       1.0  0.14980  0.67860  0.35160  1.0000 0.028388928
C   C38       1.0  0.86450  0.69330  0.48880  1.0000 0.1000129301
C   C39       1.0  0.74760  0.52540  0.46460  1.0000 0.091494012
C   C40       1.0  0.77580  0.75200  0.47890  1.0000 -0.2044786556
C   C41       1.0  0.65610  0.57830  0.44630  1.0000 -0.221570362
C   C42       1.0  0.87620  0.33860  0.33040  1.0000 0.0225103799
C   C43       1.0  0.66490  0.69090  0.45480  1.0000 0.1296095656
C   C44       1.0  0.56400  0.75000  0.44090  1.0000 -0.0562999218
C   C45       1.0  0.58210  0.84590  0.37060  1.0000 -0.1443314596
C   C46       1.0  0.53330  0.78270  0.52900  1.0000 -0.155181904
C   C47       1.0  0.62900  0.84300  0.29200  1.0000 -0.3392686887
C   C48       1.0  0.41200  0.81400  0.52900  1.0000 -0.3700978501
N   N1        1.0  0.41790  0.14850  0.98130  1.0000 -0.221570362
N   N2        1.0  0.60740  0.07140  0.88760  1.0000 -0.3700978501
N   N3        1.0  0.37870  0.90390  0.90480  1.0000 -0.3642492263
N   N4        1.0  0.14850  0.41790  0.51870  1.0000 -0.221570362
N   N5        1.0  0.07140  0.60740  0.61240  1.0000 -0.3700978501
N   N6        1.0  0.90390  0.37870  0.59520  1.0000 -0.3642492263
N   N7        1.0  0.58210  0.85150  0.01870  1.0000 -0.221570362
N   N8        1.0  0.39260  0.92860  0.11240  1.0000 -0.3700978501
N   N9        1.0  0.62130  0.09610  0.09520  1.0000 -0.3642492263
N   N10       1.0  0.85150  0.58210  0.48130  1.0000 -0.221570362
N   N11       1.0  0.92860  0.39260  0.38760  1.0000 -0.3700978501
N   N12       1.0  0.09610  0.62130  0.40480  1.0000 -0.3642492263
