# DDEC6 charges by PACMAN v1.1 (https://github.com/mtap-research/PACMAN-charge/)
data_2017[Zn][pcu]3[FSR]18
_chemical_formula_sum              "Zn4 H72 C120 N4 O16"
_cell_length_a       15.692
_cell_length_b       15.692
_cell_length_c       15.634
_cell_angle_alpha    87.7026
_cell_angle_beta     92.2974
_cell_angle_gamma    61.8599

_symmetry_space_group_name_H-M    "P 1"
_symmetry_Int_Tables_number       1

loop_
  _symmetry_equiv_pos_as_xyz
  'x, y, z'

loop_
  _atom_site_type_symbol
  _atom_site_label
  _atom_site_symmetry_multiplicity
  _atom_site_fract_x
  _atom_site_fract_y
  _atom_site_fract_z
  _atom_site_occupancy
  _atom_site_charge
Zn  Zn1       1.0  0.94699  0.06229  0.06730  1.0000 0.823013331
Zn  Zn2       1.0  0.06229  0.94699  0.43270  1.0000 0.823013331
Zn  Zn3       1.0  0.05301  0.93771  0.93270  1.0000 0.823013331
Zn  Zn4       1.0  0.93771  0.05301  0.56730  1.0000 0.823013331
H   H1        1.0  0.74120  0.19920  0.07450  1.0000 0.1119204774
H   H2        1.0  0.63350  0.30470  0.16560  1.0000 0.1202011169
H   H3        1.0  0.86140  0.24460  0.33210  1.0000 0.1358926698
H   H4        1.0  0.96190  0.13870  0.23730  1.0000 0.1202011169
H   H5        1.0  0.46680  0.38600  0.32950  1.0000 0.1119204774
H   H6        1.0  0.30950  0.41370  0.32810  1.0000 0.1119204774
H   H7        1.0  0.20780  0.50420  0.43460  1.0000 0.1119204774
H   H8        1.0  0.26420  0.56660  0.53910  1.0000 0.1119204774
H   H9        1.0  0.98520  0.83320  0.26300  1.0000 0.1202011169
H   H10       1.0  0.99800  0.69300  0.33310  1.0000 0.1202011169
H   H11       1.0  0.16660  0.53240  0.15180  1.0000 0.1202011169
H   H12       1.0  0.15110  0.67130  0.07920  1.0000 0.1202011169
H   H13       1.0  0.12850  0.45050  0.26150  1.0000 0.1119204774
H   H14       1.0  0.98200  0.55880  0.36370  1.0000 0.1202011169
H   H15       1.0  0.93220  0.46900  0.45940  1.0000 0.1119204774
H   H16       1.0  0.93030  0.32710  0.50690  1.0000 0.1119204774
H   H17       1.0  0.10740  0.18380  0.32260  1.0000 0.1202011169
H   H18       1.0  0.11190  0.32510  0.27720  1.0000 0.1119204774
H   H19       1.0  0.19920  0.74120  0.42550  1.0000 0.1119204774
H   H20       1.0  0.30470  0.63350  0.33440  1.0000 0.1202011169
H   H21       1.0  0.24460  0.86140  0.16790  1.0000 0.1358926698
H   H22       1.0  0.13870  0.96190  0.26270  1.0000 0.1202011169
H   H23       1.0  0.38600  0.46680  0.17050  1.0000 0.1119204774
H   H24       1.0  0.41370  0.30950  0.17190  1.0000 0.1119204774
H   H25       1.0  0.50420  0.20780  0.06540  1.0000 0.1119204774
H   H26       1.0  0.56660  0.26420  0.96090  1.0000 0.1119204774
H   H27       1.0  0.83320  0.98520  0.23700  1.0000 0.1202011169
H   H28       1.0  0.69300  0.99800  0.16690  1.0000 0.1202011169
H   H29       1.0  0.53240  0.16660  0.34820  1.0000 0.1202011169
H   H30       1.0  0.67130  0.15110  0.42080  1.0000 0.1202011169
H   H31       1.0  0.45050  0.12850  0.23850  1.0000 0.1119204774
H   H32       1.0  0.55880  0.98200  0.13630  1.0000 0.1202011169
H   H33       1.0  0.46900  0.93220  0.04060  1.0000 0.1119204774
H   H34       1.0  0.32710  0.93030  0.99310  1.0000 0.1119204774
H   H35       1.0  0.18380  0.10740  0.17740  1.0000 0.1202011169
H   H36       1.0  0.32510  0.11190  0.22280  1.0000 0.1119204774
H   H37       1.0  0.25880  0.80080  0.92550  1.0000 0.1119204774
H   H38       1.0  0.36650  0.69530  0.83440  1.0000 0.1202011169
H   H39       1.0  0.13860  0.75540  0.66790  1.0000 0.1358926698
H   H40       1.0  0.03810  0.86130  0.76270  1.0000 0.1202011169
H   H41       1.0  0.53320  0.61400  0.67050  1.0000 0.1119204774
H   H42       1.0  0.69050  0.58630  0.67190  1.0000 0.1119204774
H   H43       1.0  0.79220  0.49580  0.56540  1.0000 0.1119204774
H   H44       1.0  0.73580  0.43340  0.46090  1.0000 0.1119204774
H   H45       1.0  0.01480  0.16680  0.73700  1.0000 0.1202011169
H   H46       1.0  0.00200  0.30700  0.66690  1.0000 0.1202011169
H   H47       1.0  0.83340  0.46760  0.84820  1.0000 0.1202011169
H   H48       1.0  0.84890  0.32870  0.92080  1.0000 0.1202011169
H   H49       1.0  0.87150  0.54950  0.73850  1.0000 0.1119204774
H   H50       1.0  0.01800  0.44120  0.63630  1.0000 0.1202011169
H   H51       1.0  0.06780  0.53100  0.54060  1.0000 0.1119204774
H   H52       1.0  0.06970  0.67290  0.49310  1.0000 0.1119204774
H   H53       1.0  0.89260  0.81620  0.67740  1.0000 0.1202011169
H   H54       1.0  0.88810  0.67490  0.72280  1.0000 0.1119204774
H   H55       1.0  0.80080  0.25880  0.57450  1.0000 0.1119204774
H   H56       1.0  0.69530  0.36650  0.66560  1.0000 0.1202011169
H   H57       1.0  0.75540  0.13860  0.83210  1.0000 0.1358926698
H   H58       1.0  0.86130  0.03810  0.73730  1.0000 0.1202011169
H   H59       1.0  0.61400  0.53320  0.82950  1.0000 0.1119204774
H   H60       1.0  0.58630  0.69050  0.82810  1.0000 0.1119204774
H   H61       1.0  0.49580  0.79220  0.93460  1.0000 0.1119204774
H   H62       1.0  0.43340  0.73580  0.03910  1.0000 0.1119204774
H   H63       1.0  0.16680  0.01480  0.76300  1.0000 0.1202011169
H   H64       1.0  0.30700  0.00200  0.83310  1.0000 0.1202011169
H   H65       1.0  0.46760  0.83340  0.65180  1.0000 0.1202011169
H   H66       1.0  0.32870  0.84890  0.57920  1.0000 0.1202011169
H   H67       1.0  0.54950  0.87150  0.76150  1.0000 0.1119204774
H   H68       1.0  0.44120  0.01800  0.86370  1.0000 0.1202011169
H   H69       1.0  0.53100  0.06780  0.95940  1.0000 0.1119204774
H   H70       1.0  0.67290  0.06970  0.00690  1.0000 0.1119204774
H   H71       1.0  0.81620  0.89260  0.82260  1.0000 0.1202011169
H   H72       1.0  0.67490  0.88810  0.77720  1.0000 0.1119204774
C   C1        1.0  0.76558  0.20898  0.12770  1.0000 0.0852763757
C   C2        1.0  0.70103  0.27183  0.18140  1.0000 -0.1900263176
C   C3        1.0  0.73676  0.28616  0.25940  1.0000 0.1803019709
C   C4        1.0  0.83475  0.23635  0.27940  1.0000 -0.1828771577
C   C5        1.0  0.89427  0.17401  0.22220  1.0000 0.1038925901
C   C6        1.0  0.67315  0.34575  0.31990  1.0000 -0.0919820879
C   C7        1.0  0.62219  0.39119  0.37300  1.0000 -0.0672160097
C   C8        1.0  0.56042  0.44616  0.43687  1.0000 0.0327644042
C   C9        1.0  0.46454  0.46114  0.43518  1.0000 0.0327644042
C   C10       1.0  0.42642  0.42322  0.37210  1.0000 -0.1578174167
C   C11       1.0  0.33367  0.43907  0.37140  1.0000 -0.1082687497
C   C12       1.0  0.27269  0.49349  0.43520  1.0000 -0.1010784031
C   C13       1.0  0.30602  0.53042  0.49680  1.0000 -0.1520434241
C   C14       1.0  0.40282  0.51602  0.49950  1.0000 0.0350288964
C   C15       1.0  0.04384  0.85638  0.10848  1.0000 0.5718826606
C   C16       1.0  0.06254  0.76654  0.16160  1.0000 -0.0279293701
C   C17       1.0  0.01981  0.77241  0.23890  1.0000 -0.0919820879
C   C18       1.0  0.02790  0.68870  0.28070  1.0000 -0.1520434241
C   C19       1.0  0.07891  0.59911  0.24710  1.0000 0.1119204774
C   C20       1.0  0.12717  0.59377  0.17310  1.0000 -0.1578174167
C   C21       1.0  0.11858  0.67618  0.13020  1.0000 -0.1010784031
C   C22       1.0  0.08125  0.50925  0.28210  1.0000 -0.1381357804
C   C23       1.0  0.02538  0.50158  0.33840  1.0000 -0.1381357804
C   C24       1.0  0.02447  0.41087  0.36550  1.0000 0.1202011169
C   C25       1.0  0.96934  0.41074  0.43230  1.0000 -0.166621127
C   C26       1.0  0.96751  0.32631  0.46020  1.0000 -0.1082687497
C   C27       1.0  0.01988  0.24048  0.42010  1.0000 -0.0386428329
C   C28       1.0  0.07263  0.24123  0.35140  1.0000 -0.1082687497
C   C29       1.0  0.07522  0.32562  0.32430  1.0000 -0.1520434241
C   C30       1.0  0.01537  0.15035  0.44847  1.0000 0.5718826606
C   C31       1.0  0.20898  0.76558  0.37230  1.0000 0.0852763757
C   C32       1.0  0.27183  0.70103  0.31860  1.0000 -0.1900263176
C   C33       1.0  0.28616  0.73676  0.24060  1.0000 0.1803019709
C   C34       1.0  0.23635  0.83475  0.22060  1.0000 -0.1828771577
C   C35       1.0  0.17401  0.89427  0.27780  1.0000 0.1038925901
C   C36       1.0  0.34575  0.67315  0.18010  1.0000 -0.0919820879
C   C37       1.0  0.39119  0.62219  0.12700  1.0000 -0.0672160097
C   C38       1.0  0.44616  0.56042  0.06313  1.0000 0.0327644042
C   C39       1.0  0.46114  0.46454  0.06482  1.0000 0.0327644042
C   C40       1.0  0.42322  0.42642  0.12790  1.0000 -0.1578174167
C   C41       1.0  0.43907  0.33367  0.12860  1.0000 -0.1082687497
C   C42       1.0  0.49349  0.27269  0.06480  1.0000 -0.1010784031
C   C43       1.0  0.53042  0.30602  0.00320  1.0000 -0.1520434241
C   C44       1.0  0.51602  0.40282  0.00050  1.0000 0.0350288964
C   C45       1.0  0.85638  0.04384  0.39152  1.0000 0.5718826606
C   C46       1.0  0.76654  0.06254  0.33840  1.0000 -0.0279293701
C   C47       1.0  0.77241  0.01981  0.26110  1.0000 -0.0919820879
C   C48       1.0  0.68870  0.02790  0.21930  1.0000 -0.1520434241
C   C49       1.0  0.59911  0.07891  0.25290  1.0000 0.1119204774
C   C50       1.0  0.59377  0.12717  0.32690  1.0000 -0.1578174167
C   C51       1.0  0.67618  0.11858  0.36980  1.0000 -0.1010784031
C   C52       1.0  0.50925  0.08125  0.21790  1.0000 -0.1381357804
C   C53       1.0  0.50158  0.02538  0.16160  1.0000 -0.1381357804
C   C54       1.0  0.41087  0.02447  0.13450  1.0000 0.1202011169
C   C55       1.0  0.41074  0.96934  0.06770  1.0000 -0.166621127
C   C56       1.0  0.32631  0.96751  0.03980  1.0000 -0.1082687497
C   C57       1.0  0.24048  0.01988  0.07990  1.0000 -0.0386428329
C   C58       1.0  0.24123  0.07263  0.14860  1.0000 -0.1082687497
C   C59       1.0  0.32562  0.07522  0.17570  1.0000 -0.1520434241
C   C60       1.0  0.15035  0.01537  0.05153  1.0000 0.5718826606
C   C61       1.0  0.23442  0.79102  0.87230  1.0000 0.0852763757
C   C62       1.0  0.29897  0.72817  0.81860  1.0000 -0.1900263176
C   C63       1.0  0.26324  0.71384  0.74060  1.0000 0.1803019709
C   C64       1.0  0.16525  0.76365  0.72060  1.0000 -0.1828771577
C   C65       1.0  0.10573  0.82599  0.77780  1.0000 0.1038925901
C   C66       1.0  0.32685  0.65425  0.68010  1.0000 -0.0919820879
C   C67       1.0  0.37781  0.60881  0.62700  1.0000 -0.0672160097
C   C68       1.0  0.43958  0.55384  0.56313  1.0000 0.0327644042
C   C69       1.0  0.53546  0.53886  0.56482  1.0000 0.0327644042
C   C70       1.0  0.57358  0.57678  0.62790  1.0000 -0.1578174167
C   C71       1.0  0.66633  0.56093  0.62860  1.0000 -0.1082687497
C   C72       1.0  0.72731  0.50651  0.56480  1.0000 -0.1010784031
C   C73       1.0  0.69398  0.46958  0.50320  1.0000 -0.1520434241
C   C74       1.0  0.59718  0.48398  0.50050  1.0000 0.0350288964
C   C75       1.0  0.95616  0.14362  0.89152  1.0000 0.5718826606
C   C76       1.0  0.93746  0.23346  0.83840  1.0000 -0.0279293701
C   C77       1.0  0.98019  0.22759  0.76110  1.0000 -0.0919820879
C   C78       1.0  0.97210  0.31130  0.71930  1.0000 -0.1520434241
C   C79       1.0  0.92109  0.40089  0.75290  1.0000 0.1119204774
C   C80       1.0  0.87283  0.40623  0.82690  1.0000 -0.1578174167
C   C81       1.0  0.88142  0.32382  0.86980  1.0000 -0.1010784031
C   C82       1.0  0.91875  0.49075  0.71790  1.0000 -0.1381357804
C   C83       1.0  0.97462  0.49842  0.66160  1.0000 -0.1381357804
C   C84       1.0  0.97553  0.58913  0.63450  1.0000 0.1202011169
C   C85       1.0  0.03066  0.58926  0.56770  1.0000 -0.166621127
C   C86       1.0  0.03249  0.67369  0.53980  1.0000 -0.1082687497
C   C87       1.0  0.98012  0.75952  0.57990  1.0000 -0.0386428329
C   C88       1.0  0.92737  0.75877  0.64860  1.0000 -0.1082687497
C   C89       1.0  0.92478  0.67438  0.67570  1.0000 -0.1520434241
C   C90       1.0  0.98463  0.84965  0.55153  1.0000 0.5718826606
C   C91       1.0  0.79102  0.23442  0.62770  1.0000 0.0852763757
C   C92       1.0  0.72817  0.29897  0.68140  1.0000 -0.1900263176
C   C93       1.0  0.71384  0.26324  0.75940  1.0000 0.1803019709
C   C94       1.0  0.76365  0.16525  0.77940  1.0000 -0.1828771577
C   C95       1.0  0.82599  0.10573  0.72220  1.0000 0.1038925901
C   C96       1.0  0.65425  0.32685  0.81990  1.0000 -0.0919820879
C   C97       1.0  0.60881  0.37781  0.87300  1.0000 -0.0672160097
C   C98       1.0  0.55384  0.43958  0.93687  1.0000 0.0327644042
C   C99       1.0  0.53886  0.53546  0.93518  1.0000 0.0327644042
C   C100      1.0  0.57678  0.57358  0.87210  1.0000 -0.1578174167
C   C101      1.0  0.56093  0.66633  0.87140  1.0000 -0.1082687497
C   C102      1.0  0.50651  0.72731  0.93520  1.0000 -0.1010784031
C   C103      1.0  0.46958  0.69398  0.99680  1.0000 -0.1520434241
C   C104      1.0  0.48398  0.59718  0.99950  1.0000 0.0350288964
C   C105      1.0  0.14362  0.95616  0.60848  1.0000 0.5718826606
C   C106      1.0  0.23346  0.93746  0.66160  1.0000 -0.0279293701
C   C107      1.0  0.22759  0.98019  0.73890  1.0000 -0.0919820879
C   C108      1.0  0.31130  0.97210  0.78070  1.0000 -0.1520434241
C   C109      1.0  0.40089  0.92109  0.74710  1.0000 0.1119204774
C   C110      1.0  0.40623  0.87283  0.67310  1.0000 -0.1578174167
C   C111      1.0  0.32382  0.88142  0.63020  1.0000 -0.1010784031
C   C112      1.0  0.49075  0.91875  0.78210  1.0000 -0.1381357804
C   C113      1.0  0.49842  0.97462  0.83840  1.0000 -0.1381357804
C   C114      1.0  0.58913  0.97553  0.86550  1.0000 0.1202011169
C   C115      1.0  0.58926  0.03066  0.93230  1.0000 -0.166621127
C   C116      1.0  0.67369  0.03249  0.96020  1.0000 -0.1082687497
C   C117      1.0  0.75952  0.98012  0.92010  1.0000 -0.0386428329
C   C118      1.0  0.75877  0.92737  0.85140  1.0000 -0.1082687497
C   C119      1.0  0.67438  0.92478  0.82430  1.0000 -0.1520434241
C   C120      1.0  0.84965  0.98463  0.94847  1.0000 0.5718826606
N   N1        1.0  0.86099  0.16125  0.14712  1.0000 -0.2088911578
N   N2        1.0  0.16125  0.86099  0.35288  1.0000 -0.2088911578
N   N3        1.0  0.13901  0.83875  0.85288  1.0000 -0.2088911578
N   N4        1.0  0.83875  0.13901  0.64712  1.0000 -0.2088911578
O   O1        1.0  0.99441  0.93633  0.13950  1.0000 -0.5316833899
O   O2        1.0  0.07698  0.84486  0.03624  1.0000 -0.5374967501
O   O3        1.0  0.96715  0.15597  0.51152  1.0000 -0.5316833899
O   O4        1.0  0.05901  0.07695  0.40666  1.0000 -0.5316833899
O   O5        1.0  0.93633  0.99441  0.36050  1.0000 -0.5316833899
O   O6        1.0  0.84486  0.07698  0.46376  1.0000 -0.5374967501
O   O7        1.0  0.15597  0.96715  0.98848  1.0000 -0.5316833899
O   O8        1.0  0.07695  0.05901  0.09334  1.0000 -0.5316833899
O   O9        1.0  0.00559  0.06367  0.86050  1.0000 -0.5316833899
O   O10       1.0  0.92302  0.15514  0.96376  1.0000 -0.5374967501
O   O11       1.0  0.03285  0.84403  0.48848  1.0000 -0.5316833899
O   O12       1.0  0.94099  0.92305  0.59334  1.0000 -0.5316833899
O   O13       1.0  0.06367  0.00559  0.63950  1.0000 -0.5316833899
O   O14       1.0  0.15514  0.92302  0.53624  1.0000 -0.5374967501
O   O15       1.0  0.84403  0.03285  0.01152  1.0000 -0.5316833899
O   O16       1.0  0.92305  0.94099  0.90666  1.0000 -0.5316833899
