# DDEC6 charges by PACMAN v1.1 (https://github.com/mtap-research/PACMAN-charge/)
data_2017[Zn][nan]3[FSR]22
_chemical_formula_sum              "Zn8 H48 C84 N8 O60"
_cell_length_a       19.6014
_cell_length_b       19.6014
_cell_length_c       19.6014
_cell_angle_alpha    60
_cell_angle_beta     60
_cell_angle_gamma    60

_symmetry_space_group_name_H-M    "P 1"
_symmetry_Int_Tables_number       1

loop_
  _symmetry_equiv_pos_as_xyz
  'x, y, z'

loop_
  _atom_site_type_symbol
  _atom_site_label
  _atom_site_symmetry_multiplicity
  _atom_site_fract_x
  _atom_site_fract_y
  _atom_site_fract_z
  _atom_site_occupancy
  _atom_site_charge
Zn  Zn1       1.0  0.92520  0.92520  0.92520  1.0000 0.8125155296
Zn  Zn2       1.0  0.92520  0.92520  0.22440  1.0000 0.8125155296
Zn  Zn3       1.0  0.92520  0.22440  0.92520  1.0000 0.8125155296
Zn  Zn4       1.0  0.22440  0.92520  0.92520  1.0000 0.8125155296
Zn  Zn5       1.0  0.32480  0.32480  0.02560  1.0000 0.8125155296
Zn  Zn6       1.0  0.32480  0.32480  0.32480  1.0000 0.8125155296
Zn  Zn7       1.0  0.32480  0.02560  0.32480  1.0000 0.8125155296
Zn  Zn8       1.0  0.02560  0.32480  0.32480  1.0000 0.8125155296
H   H1        1.0  0.70410  0.80850  0.08270  1.0000 0.1518645381
H   H2        1.0  0.80850  0.70410  0.40470  1.0000 0.1518645381
H   H3        1.0  0.08270  0.40470  0.70410  1.0000 0.1518645381
H   H4        1.0  0.40470  0.08270  0.80850  1.0000 0.1518645381
H   H5        1.0  0.08270  0.70410  0.80850  1.0000 0.1518645381
H   H6        1.0  0.40470  0.80850  0.70410  1.0000 0.1518645381
H   H7        1.0  0.70410  0.08270  0.40470  1.0000 0.1518645381
H   H8        1.0  0.80850  0.40470  0.08270  1.0000 0.1518645381
H   H9        1.0  0.80850  0.08270  0.70410  1.0000 0.1518645381
H   H10       1.0  0.70410  0.40470  0.80850  1.0000 0.1518645381
H   H11       1.0  0.40470  0.70410  0.08270  1.0000 0.1518645381
H   H12       1.0  0.08270  0.80850  0.40470  1.0000 0.1518645381
H   H13       1.0  0.54590  0.44150  0.84530  1.0000 0.1518645381
H   H14       1.0  0.44150  0.54590  0.16730  1.0000 0.1518645381
H   H15       1.0  0.16730  0.84530  0.44150  1.0000 0.1518645381
H   H16       1.0  0.84530  0.16730  0.54590  1.0000 0.1518645381
H   H17       1.0  0.16730  0.54590  0.84530  1.0000 0.1518645381
H   H18       1.0  0.84530  0.44150  0.16730  1.0000 0.1518645381
H   H19       1.0  0.54590  0.16730  0.44150  1.0000 0.1518645381
H   H20       1.0  0.44150  0.84530  0.54590  1.0000 0.1518645381
H   H21       1.0  0.44150  0.16730  0.84530  1.0000 0.1518645381
H   H22       1.0  0.54590  0.84530  0.16730  1.0000 0.1518645381
H   H23       1.0  0.84530  0.54590  0.44150  1.0000 0.1518645381
H   H24       1.0  0.16730  0.44150  0.54590  1.0000 0.1518645381
H   H25       1.0  0.95790  0.87630  0.08290  1.0000 0.135805381
H   H26       1.0  0.87630  0.95790  0.08290  1.0000 0.135805381
H   H27       1.0  0.08290  0.08290  0.95790  1.0000 0.135805381
H   H28       1.0  0.08290  0.08290  0.87630  1.0000 0.135805381
H   H29       1.0  0.08290  0.95790  0.87630  1.0000 0.135805381
H   H30       1.0  0.08290  0.87630  0.95790  1.0000 0.135805381
H   H31       1.0  0.95790  0.08290  0.08290  1.0000 0.135805381
H   H32       1.0  0.87630  0.08290  0.08290  1.0000 0.135805381
H   H33       1.0  0.87630  0.08290  0.95790  1.0000 0.135805381
H   H34       1.0  0.95790  0.08290  0.87630  1.0000 0.135805381
H   H35       1.0  0.08290  0.95790  0.08290  1.0000 0.135805381
H   H36       1.0  0.08290  0.87630  0.08290  1.0000 0.135805381
H   H37       1.0  0.29210  0.37370  0.16710  1.0000 0.135805381
H   H38       1.0  0.37370  0.29210  0.16710  1.0000 0.135805381
H   H39       1.0  0.16710  0.16710  0.37370  1.0000 0.135805381
H   H40       1.0  0.16710  0.16710  0.29210  1.0000 0.135805381
H   H41       1.0  0.16710  0.29210  0.16710  1.0000 0.135805381
H   H42       1.0  0.16710  0.37370  0.16710  1.0000 0.135805381
H   H43       1.0  0.29210  0.16710  0.37370  1.0000 0.135805381
H   H44       1.0  0.37370  0.16710  0.29210  1.0000 0.135805381
H   H45       1.0  0.37370  0.16710  0.16710  1.0000 0.135805381
H   H46       1.0  0.29210  0.16710  0.16710  1.0000 0.135805381
H   H47       1.0  0.16710  0.29210  0.37370  1.0000 0.135805381
H   H48       1.0  0.16710  0.37370  0.29210  1.0000 0.135805381
C   C1        1.0  0.76920  0.93926  0.03652  1.0000 0.5008364582
C   C2        1.0  0.93926  0.76920  0.25502  1.0000 0.5008364582
C   C3        1.0  0.03652  0.25502  0.76920  1.0000 0.5008364582
C   C4        1.0  0.25502  0.03652  0.93926  1.0000 0.5008364582
C   C5        1.0  0.03652  0.76920  0.93926  1.0000 0.5008364582
C   C6        1.0  0.25502  0.93926  0.76920  1.0000 0.5008364582
C   C7        1.0  0.76920  0.03652  0.25502  1.0000 0.5008364582
C   C8        1.0  0.93926  0.25502  0.03652  1.0000 0.5008364582
C   C9        1.0  0.93926  0.03652  0.76920  1.0000 0.5008364582
C   C10       1.0  0.76920  0.25502  0.93926  1.0000 0.5008364582
C   C11       1.0  0.25502  0.76920  0.03652  1.0000 0.5008364582
C   C12       1.0  0.03652  0.93926  0.25502  1.0000 0.5008364582
C   C13       1.0  0.48080  0.31074  0.99498  1.0000 0.5008364582
C   C14       1.0  0.31074  0.48080  0.21348  1.0000 0.5008364582
C   C15       1.0  0.21348  0.99498  0.31074  1.0000 0.5008364582
C   C16       1.0  0.99498  0.21348  0.48080  1.0000 0.5008364582
C   C17       1.0  0.21348  0.48080  0.99498  1.0000 0.5008364582
C   C18       1.0  0.99498  0.31074  0.21348  1.0000 0.5008364582
C   C19       1.0  0.48080  0.21348  0.31074  1.0000 0.5008364582
C   C20       1.0  0.31074  0.99498  0.48080  1.0000 0.5008364582
C   C21       1.0  0.31074  0.21348  0.99498  1.0000 0.5008364582
C   C22       1.0  0.48080  0.99498  0.21348  1.0000 0.5008364582
C   C23       1.0  0.99498  0.48080  0.31074  1.0000 0.5008364582
C   C24       1.0  0.21348  0.31074  0.48080  1.0000 0.5008364582
C   C25       1.0  0.69130  0.91818  0.08538  1.0000 0.1161539192
C   C26       1.0  0.91818  0.69130  0.30514  1.0000 0.1161539192
C   C27       1.0  0.08538  0.30514  0.69130  1.0000 0.1145911019
C   C28       1.0  0.30514  0.08538  0.91818  1.0000 0.1161539192
C   C29       1.0  0.08538  0.69130  0.91818  1.0000 0.1161539192
C   C30       1.0  0.30514  0.91818  0.69130  1.0000 0.1161539192
C   C31       1.0  0.69130  0.08538  0.30514  1.0000 0.1161539192
C   C32       1.0  0.91818  0.30514  0.08538  1.0000 0.1161539192
C   C33       1.0  0.91818  0.08538  0.69130  1.0000 0.1161539192
C   C34       1.0  0.69130  0.30514  0.91818  1.0000 0.1161539192
C   C35       1.0  0.30514  0.69130  0.08538  1.0000 0.1161539192
C   C36       1.0  0.08538  0.91818  0.30514  1.0000 0.1161539192
C   C37       1.0  0.55870  0.33182  0.94486  1.0000 0.1161539192
C   C38       1.0  0.33182  0.55870  0.16462  1.0000 0.1161539192
C   C39       1.0  0.16462  0.94486  0.33182  1.0000 0.1161539192
C   C40       1.0  0.94486  0.16462  0.55870  1.0000 0.1161539192
C   C41       1.0  0.16462  0.55870  0.94486  1.0000 0.1161539192
C   C42       1.0  0.94486  0.33182  0.16462  1.0000 0.1161539192
C   C43       1.0  0.55870  0.16462  0.33182  1.0000 0.1161539192
C   C44       1.0  0.33182  0.94486  0.55870  1.0000 0.1161539192
C   C45       1.0  0.33182  0.16462  0.94486  1.0000 0.1161539192
C   C46       1.0  0.55870  0.94486  0.16462  1.0000 0.1161539192
C   C47       1.0  0.94486  0.55870  0.33182  1.0000 0.1161539192
C   C48       1.0  0.16462  0.33182  0.55870  1.0000 0.1161539192
C   C49       1.0  0.66912  0.85584  0.10048  1.0000 -0.1569087241
C   C50       1.0  0.85584  0.66912  0.37456  1.0000 -0.1534457181
C   C51       1.0  0.10048  0.37456  0.66912  1.0000 -0.1534457181
C   C52       1.0  0.37456  0.10048  0.85584  1.0000 -0.1534457181
C   C53       1.0  0.10048  0.66912  0.85584  1.0000 -0.1569087241
C   C54       1.0  0.37456  0.85584  0.66912  1.0000 -0.1534457181
C   C55       1.0  0.66912  0.10048  0.37456  1.0000 -0.1534457181
C   C56       1.0  0.85584  0.37456  0.10048  1.0000 -0.1534457181
C   C57       1.0  0.85584  0.10048  0.66912  1.0000 -0.1534457181
C   C58       1.0  0.66912  0.37456  0.85584  1.0000 -0.1534457181
C   C59       1.0  0.37456  0.66912  0.10048  1.0000 -0.1534457181
C   C60       1.0  0.10048  0.85584  0.37456  1.0000 -0.1569087241
C   C61       1.0  0.58088  0.39416  0.87544  1.0000 -0.1534457181
C   C62       1.0  0.39416  0.58088  0.14952  1.0000 -0.1534457181
C   C63       1.0  0.14952  0.87544  0.39416  1.0000 -0.1569087241
C   C64       1.0  0.87544  0.14952  0.58088  1.0000 -0.1534457181
C   C65       1.0  0.14952  0.58088  0.87544  1.0000 -0.1534457181
C   C66       1.0  0.87544  0.39416  0.14952  1.0000 -0.1569087241
C   C67       1.0  0.58088  0.14952  0.39416  1.0000 -0.1569087241
C   C68       1.0  0.39416  0.87544  0.58088  1.0000 -0.1569087241
C   C69       1.0  0.39416  0.14952  0.87544  1.0000 -0.1534457181
C   C70       1.0  0.58088  0.87544  0.14952  1.0000 -0.1569087241
C   C71       1.0  0.87544  0.58088  0.39416  1.0000 -0.1569087241
C   C72       1.0  0.14952  0.39416  0.58088  1.0000 -0.1569087241
C   C73       1.0  0.93804  0.93804  0.06196  1.0000 -0.0234511969
C   C74       1.0  0.06196  0.06196  0.93804  1.0000 -0.0234511969
C   C75       1.0  0.06196  0.93804  0.93804  1.0000 -0.0234511969
C   C76       1.0  0.93804  0.06196  0.06196  1.0000 -0.0234511969
C   C77       1.0  0.93804  0.06196  0.93804  1.0000 -0.0234511969
C   C78       1.0  0.06196  0.93804  0.06196  1.0000 -0.0234511969
C   C79       1.0  0.31196  0.31196  0.18804  1.0000 -0.0234511969
C   C80       1.0  0.18804  0.18804  0.31196  1.0000 -0.0234511969
C   C81       1.0  0.18804  0.31196  0.18804  1.0000 -0.0234511969
C   C82       1.0  0.31196  0.18804  0.31196  1.0000 -0.0234511969
C   C83       1.0  0.31196  0.18804  0.18804  1.0000 -0.0234511969
C   C84       1.0  0.18804  0.31196  0.31196  1.0000 -0.0234511969
N   N1        1.0  0.96876  0.96876  0.96876  1.0000 -0.1289332017
N   N2        1.0  0.96876  0.96876  0.09372  1.0000 -0.1289332017
N   N3        1.0  0.96876  0.09372  0.96876  1.0000 -0.1289332017
N   N4        1.0  0.09372  0.96876  0.96876  1.0000 -0.1289332017
N   N5        1.0  0.28124  0.28124  0.15628  1.0000 -0.1289332017
N   N6        1.0  0.28124  0.28124  0.28124  1.0000 -0.1289332017
N   N7        1.0  0.28124  0.15628  0.28124  1.0000 -0.1289332017
N   N8        1.0  0.15628  0.28124  0.28124  1.0000 -0.1289332017
O   O1        1.0  0.83135  0.88447  0.00655  1.0000 -0.4842919205
O   O2        1.0  0.88447  0.83135  0.27763  1.0000 -0.4842919205
O   O3        1.0  0.00655  0.27763  0.83135  1.0000 -0.4842919205
O   O4        1.0  0.27763  0.00655  0.88447  1.0000 -0.4842919205
O   O5        1.0  0.00655  0.83135  0.88447  1.0000 -0.4842919205
O   O6        1.0  0.27763  0.88447  0.83135  1.0000 -0.4842919205
O   O7        1.0  0.83135  0.00655  0.27763  1.0000 -0.4842919205
O   O8        1.0  0.88447  0.27763  0.00655  1.0000 -0.4842919205
O   O9        1.0  0.88447  0.00655  0.83135  1.0000 -0.4842919205
O   O10       1.0  0.83135  0.27763  0.88447  1.0000 -0.4842919205
O   O11       1.0  0.27763  0.83135  0.00655  1.0000 -0.4842919205
O   O12       1.0  0.00655  0.88447  0.27763  1.0000 -0.4855172832
O   O13       1.0  0.41865  0.36553  0.97237  1.0000 -0.4842919205
O   O14       1.0  0.36553  0.41865  0.24345  1.0000 -0.4842919205
O   O15       1.0  0.24345  0.97237  0.36553  1.0000 -0.4855172832
O   O16       1.0  0.97237  0.24345  0.41865  1.0000 -0.4842919205
O   O17       1.0  0.24345  0.41865  0.97237  1.0000 -0.4855172832
O   O18       1.0  0.97237  0.36553  0.24345  1.0000 -0.4842919205
O   O19       1.0  0.41865  0.24345  0.36553  1.0000 -0.4842919205
O   O20       1.0  0.36553  0.97237  0.41865  1.0000 -0.4842919205
O   O21       1.0  0.36553  0.24345  0.97237  1.0000 -0.4842919205
O   O22       1.0  0.41865  0.97237  0.24345  1.0000 -0.4855172832
O   O23       1.0  0.97237  0.41865  0.36553  1.0000 -0.4842919205
O   O24       1.0  0.24345  0.36553  0.41865  1.0000 -0.4842919205
O   O25       1.0  0.76783  0.00757  0.02643  1.0000 -0.4377703728
O   O26       1.0  0.00757  0.76783  0.19817  1.0000 -0.4377703728
O   O27       1.0  0.02643  0.19817  0.76783  1.0000 -0.4377703728
O   O28       1.0  0.19817  0.02643  0.00757  1.0000 -0.4377703728
O   O29       1.0  0.02643  0.76783  0.00757  1.0000 -0.4377703728
O   O30       1.0  0.19817  0.00757  0.76783  1.0000 -0.4377703728
O   O31       1.0  0.76783  0.02643  0.19817  1.0000 -0.4377703728
O   O32       1.0  0.00757  0.19817  0.02643  1.0000 -0.4377703728
O   O33       1.0  0.00757  0.02643  0.76783  1.0000 -0.4377703728
O   O34       1.0  0.76783  0.19817  0.00757  1.0000 -0.4377703728
O   O35       1.0  0.19817  0.76783  0.02643  1.0000 -0.4377703728
O   O36       1.0  0.02643  0.00757  0.19817  1.0000 -0.4377703728
O   O37       1.0  0.48217  0.24243  0.05183  1.0000 -0.4377703728
O   O38       1.0  0.24243  0.48217  0.22357  1.0000 -0.4377703728
O   O39       1.0  0.22357  0.05183  0.24243  1.0000 -0.4377703728
O   O40       1.0  0.05183  0.22357  0.48217  1.0000 -0.4377703728
O   O41       1.0  0.22357  0.48217  0.05183  1.0000 -0.4377703728
O   O42       1.0  0.05183  0.24243  0.22357  1.0000 -0.4377703728
O   O43       1.0  0.48217  0.22357  0.24243  1.0000 -0.4377703728
O   O44       1.0  0.24243  0.05183  0.48217  1.0000 -0.4377703728
O   O45       1.0  0.24243  0.22357  0.05183  1.0000 -0.4377703728
O   O46       1.0  0.48217  0.05183  0.22357  1.0000 -0.4377703728
O   O47       1.0  0.05183  0.48217  0.24243  1.0000 -0.4377703728
O   O48       1.0  0.22357  0.24243  0.48217  1.0000 -0.4377703728
O   O49       1.0  0.62500  0.97296  0.12500  1.0000 -0.0871503979
O   O50       1.0  0.97296  0.62500  0.27704  1.0000 -0.0871503979
O   O51       1.0  0.12500  0.27704  0.62500  1.0000 -0.0871503979
O   O52       1.0  0.27704  0.12500  0.97296  1.0000 -0.0871503979
O   O53       1.0  0.12500  0.62500  0.97296  1.0000 -0.0871503979
O   O54       1.0  0.27704  0.97296  0.62500  1.0000 -0.0871503979
O   O55       1.0  0.62500  0.12500  0.27704  1.0000 -0.0871503979
O   O56       1.0  0.97296  0.27704  0.12500  1.0000 -0.0871503979
O   O57       1.0  0.97296  0.12500  0.62500  1.0000 -0.0871503979
O   O58       1.0  0.62500  0.27704  0.97296  1.0000 -0.0871503979
O   O59       1.0  0.27704  0.62500  0.12500  1.0000 -0.0871503979
O   O60       1.0  0.12500  0.97296  0.27704  1.0000 -0.0871503979
