# DDEC6 charges by PACMAN v1.1 (https://github.com/mtap-research/PACMAN-charge/)
data_2017[Ag][hcb]2[FSR]3
_chemical_formula_sum              "Ag4 H84 C112 S4 N12 O36 F12"
_cell_length_a       13.8036
_cell_length_b       16.767
_cell_length_c       17.6677
_cell_angle_alpha    62.321
_cell_angle_beta     71.37
_cell_angle_gamma    77.073

_symmetry_space_group_name_H-M    "P 1"
_symmetry_Int_Tables_number       1

loop_
  _symmetry_equiv_pos_as_xyz
  'x, y, z'

loop_
  _atom_site_type_symbol
  _atom_site_label
  _atom_site_symmetry_multiplicity
  _atom_site_fract_x
  _atom_site_fract_y
  _atom_site_fract_z
  _atom_site_occupancy
  _atom_site_charge
Ag  Ag1       1.0  0.04764  0.22044  0.30762  1.0000 0.3022649094
Ag  Ag2       1.0  0.40412  0.81311  0.20174  1.0000 0.3022649094
Ag  Ag3       1.0  0.95236  0.77956  0.69238  1.0000 0.3022649094
Ag  Ag4       1.0  0.59588  0.18689  0.79826  1.0000 0.3022649094
H   H1        1.0  0.08070  0.17100  0.14520  1.0000 0.1102304289
H   H2        1.0  0.10630  0.04810  0.11220  1.0000 0.1314174431
H   H3        1.0  0.13720  0.88550  0.35920  1.0000 0.1314174431
H   H4        1.0  0.10440  0.01100  0.38750  1.0000 0.1019980106
H   H5        1.0  0.19090  0.76960  0.13670  1.0000 0.1102304289
H   H6        1.0  0.06790  0.77600  0.16080  1.0000 0.1198910556
H   H7        1.0  0.12800  0.06910  0.47750  1.0000 0.1102304289
H   H8        1.0  0.14430  0.04540  0.61270  1.0000 0.1394026915
H   H9        1.0  0.03960  0.30680  0.55590  1.0000 0.1394026915
H   H10       1.0  0.01980  0.32140  0.42540  1.0000 0.1102304289
H   H11       1.0  0.19640  0.08320  0.81520  1.0000 0.1198910556
H   H12       1.0  0.07400  0.09380  0.85150  1.0000 0.1019980106
H   H13       1.0  0.19770  0.35210  0.15070  1.0000 0.1102304289
H   H14       1.0  0.20950  0.49440  0.03270  1.0000 0.1394026915
H   H15       1.0  0.90160  0.53830  0.10770  1.0000 0.1394026915
H   H16       1.0  0.89840  0.39730  0.22500  1.0000 0.1198910556
H   H17       1.0  0.23540  0.74010  0.83070  1.0000 0.1198910556
H   H18       1.0  0.11550  0.75320  0.83540  1.0000 0.1102304289
H   H19       1.0  0.11690  0.97830  0.99230  1.0000 0.1314174431
H   H20       1.0  0.14850  0.91420  0.79070  1.0000 0.1314174431
H   H21       1.0  0.14820  0.71690  0.03510  1.0000 0.1198910556
H   H22       1.0  0.37010  0.03040  0.11090  1.0000 0.1102304289
H   H23       1.0  0.34080  0.15590  0.13870  1.0000 0.1394026915
H   H24       1.0  0.37190  0.98990  0.38680  1.0000 0.1314174431
H   H25       1.0  0.39670  0.86970  0.35120  1.0000 0.1019980106
H   H26       1.0  0.41050  0.26000  0.33930  1.0000 0.1198910556
H   H27       1.0  0.28770  0.26180  0.37320  1.0000 0.1102304289
H   H28       1.0  0.50240  0.61710  0.29890  1.0000 0.1198910556
H   H29       1.0  0.46820  0.48130  0.42100  1.0000 0.1314174431
H   H30       1.0  0.22620  0.61340  0.53090  1.0000 0.1394026915
H   H31       1.0  0.26160  0.74350  0.40170  1.0000 0.1019980106
H   H32       1.0  0.39320  0.26680  0.66990  1.0000 0.1102304289
H   H33       1.0  0.27480  0.29060  0.66700  1.0000 0.1198910556
H   H34       1.0  0.36270  0.96220  0.02030  1.0000 0.1102304289
H   H35       1.0  0.36790  0.98540  0.88020  1.0000 0.1394026915
H   H36       1.0  0.42970  0.71660  0.95580  1.0000 0.1394026915
H   H37       1.0  0.42190  0.70020  0.09330  1.0000 0.1102304289
H   H38       1.0  0.45280  0.93810  0.64420  1.0000 0.1019980106
H   H39       1.0  0.33030  0.93730  0.67250  1.0000 0.1102304289
H   H40       1.0  0.34400  0.31310  0.46900  1.0000 0.1198910556
H   H41       1.0  0.37370  0.10970  0.70500  1.0000 0.1314174431
H   H42       1.0  0.37810  0.05250  0.50600  1.0000 0.1198910556
H   H43       1.0  0.91930  0.82900  0.85480  1.0000 0.1102304289
H   H44       1.0  0.89370  0.95190  0.88780  1.0000 0.1314174431
H   H45       1.0  0.86280  0.11450  0.64080  1.0000 0.1314174431
H   H46       1.0  0.89560  0.98900  0.61250  1.0000 0.1019980106
H   H47       1.0  0.80910  0.23040  0.86330  1.0000 0.1102304289
H   H48       1.0  0.93210  0.22400  0.83920  1.0000 0.1198910556
H   H49       1.0  0.87200  0.93090  0.52250  1.0000 0.1102304289
H   H50       1.0  0.85570  0.95460  0.38730  1.0000 0.1394026915
H   H51       1.0  0.96040  0.69320  0.44410  1.0000 0.1394026915
H   H52       1.0  0.98020  0.67860  0.57460  1.0000 0.1102304289
H   H53       1.0  0.80360  0.91680  0.18480  1.0000 0.1198910556
H   H54       1.0  0.92600  0.90620  0.14850  1.0000 0.1019980106
H   H55       1.0  0.80230  0.64790  0.84930  1.0000 0.1102304289
H   H56       1.0  0.79050  0.50560  0.96730  1.0000 0.1394026915
H   H57       1.0  0.09840  0.46170  0.89230  1.0000 0.1394026915
H   H58       1.0  0.10160  0.60270  0.77500  1.0000 0.1198910556
H   H59       1.0  0.76460  0.25990  0.16930  1.0000 0.1198910556
H   H60       1.0  0.88450  0.24680  0.16460  1.0000 0.1102304289
H   H61       1.0  0.88310  0.02170  0.00770  1.0000 0.1198910556
H   H62       1.0  0.85150  0.08580  0.20930  1.0000 0.1314174431
H   H63       1.0  0.85180  0.28310  0.96490  1.0000 0.1198910556
H   H64       1.0  0.62990  0.96960  0.88910  1.0000 0.1102304289
H   H65       1.0  0.65920  0.84410  0.86130  1.0000 0.1394026915
H   H66       1.0  0.62810  0.01010  0.61320  1.0000 0.1314174431
H   H67       1.0  0.60330  0.13030  0.64880  1.0000 0.1019980106
H   H68       1.0  0.58950  0.74000  0.66070  1.0000 0.1198910556
H   H69       1.0  0.71230  0.73820  0.62680  1.0000 0.1102304289
H   H70       1.0  0.49760  0.38290  0.70110  1.0000 0.1198910556
H   H71       1.0  0.53180  0.51870  0.57900  1.0000 0.1314174431
H   H72       1.0  0.77380  0.38660  0.46910  1.0000 0.1394026915
H   H73       1.0  0.73840  0.25650  0.59830  1.0000 0.1019980106
H   H74       1.0  0.60680  0.73320  0.33010  1.0000 0.1102304289
H   H75       1.0  0.72520  0.70940  0.33300  1.0000 0.1198910556
H   H76       1.0  0.63730  0.03780  0.97970  1.0000 0.1102304289
H   H77       1.0  0.63210  0.01460  0.11980  1.0000 0.1394026915
H   H78       1.0  0.57030  0.28340  0.04420  1.0000 0.1394026915
H   H79       1.0  0.57810  0.29980  0.90670  1.0000 0.1102304289
H   H80       1.0  0.54720  0.06190  0.35580  1.0000 0.1019980106
H   H81       1.0  0.66970  0.06270  0.32750  1.0000 0.1102304289
H   H82       1.0  0.65600  0.68690  0.53100  1.0000 0.1198910556
H   H83       1.0  0.62630  0.89030  0.29500  1.0000 0.1314174431
H   H84       1.0  0.62190  0.94750  0.49400  1.0000 0.1198910556
C   C1        1.0  0.09060  0.11200  0.18970  1.0000 0.0716307062
C   C2        1.0  0.10680  0.03920  0.16920  1.0000 -0.1599772969
C   C3        1.0  0.12360  0.95370  0.23250  1.0000 0.0011827325
C   C4        1.0  0.12410  0.94370  0.31460  1.0000 -0.1496443048
C   C5        1.0  0.10530  0.01880  0.33050  1.0000 0.0716307062
C   C6        1.0  0.13840  0.87000  0.21780  1.0000 0.490580169
C   C7        1.0  0.12860  0.81020  0.12310  1.0000 -0.0790800628
C   C8        1.0  0.10950  0.11800  0.49390  1.0000 0.0796654422
C   C9        1.0  0.12000  0.10330  0.57440  1.0000 -0.1496443048
C   C10       1.0  0.09470  0.17400  0.59850  1.0000 0.0011827325
C   C11       1.0  0.05760  0.25660  0.54130  1.0000 -0.1496443048
C   C12       1.0  0.04740  0.26500  0.46330  1.0000 0.0628362327
C   C13       1.0  0.10370  0.16420  0.68440  1.0000 0.490580169
C   C14       1.0  0.13140  0.06100  0.82360  1.0000 -0.072197317
C   C15       1.0  0.13680  0.39130  0.14200  1.0000 0.0796654422
C   C16       1.0  0.14460  0.47570  0.07120  1.0000 -0.1599772969
C   C17       1.0  0.05630  0.53200  0.05770  1.0000 -0.0014216565
C   C18       1.0  0.96390  0.50130  0.11580  1.0000 -0.1599772969
C   C19       1.0  0.96240  0.41720  0.18520  1.0000 0.0796654422
C   C20       1.0  0.05750  0.62420  0.98180  1.0000 0.4965325937
C   C21       1.0  0.16580  0.73710  0.87070  1.0000 -0.0790800628
C   C22       1.0  0.13200  0.84290  0.02790  1.0000 0.1102304289
C   C23       1.0  0.12580  0.93390  0.97080  1.0000 -0.2093788302
C   C24       1.0  0.13280  0.96040  0.88230  1.0000 0.1102304289
C   C25       1.0  0.14430  0.89590  0.85120  1.0000 -0.2093788302
C   C26       1.0  0.14970  0.80440  0.90800  1.0000 0.1102304289
C   C27       1.0  0.14390  0.77930  0.99600  1.0000 -0.2174837545
C   C28       1.0  0.67120  0.21160  0.41630  1.0000 0.44548897
C   C29       1.0  0.36990  0.02250  0.16780  1.0000 0.0716307062
C   C30       1.0  0.35260  0.09760  0.18360  1.0000 -0.1496443048
C   C31       1.0  0.35250  0.08720  0.26600  1.0000 -0.0014216565
C   C32       1.0  0.37040  0.99990  0.32970  1.0000 -0.1599772969
C   C33       1.0  0.38580  0.92900  0.30750  1.0000 0.0796654422
C   C34       1.0  0.33880  0.16890  0.28270  1.0000 0.4965325937
C   C35       1.0  0.35280  0.22300  0.38040  1.0000 -0.072197317
C   C36       1.0  0.44390  0.61550  0.34590  1.0000 0.0796654422
C   C37       1.0  0.42530  0.53490  0.41860  1.0000 -0.1599772969
C   C38       1.0  0.34280  0.53330  0.48830  1.0000 0.0108697425
C   C39       1.0  0.28190  0.61230  0.48290  1.0000 -0.1599772969
C   C40       1.0  0.30440  0.68930  0.40630  1.0000 0.0716307062
C   C41       1.0  0.31430  0.44780  0.56970  1.0000 0.4965325937
C   C42       1.0  0.34590  0.28740  0.63110  1.0000 -0.072197317
C   C43       1.0  0.37590  0.91130  0.00710  1.0000 0.0796654422
C   C44       1.0  0.37890  0.92580  0.92350  1.0000 -0.1424494381
C   C45       1.0  0.39790  0.85340  0.90260  1.0000 -0.00708402
C   C46       1.0  0.41500  0.76820  0.96790  1.0000 -0.1496443048
C   C47       1.0  0.41040  0.75920  0.04930  1.0000 0.0628362327
C   C48       1.0  0.40180  0.86370  0.81330  1.0000 0.490580169
C   C49       1.0  0.38760  0.96550  0.67020  1.0000 -0.072197317
C   C50       1.0  0.36050  0.18670  0.47340  1.0000 0.1019980106
C   C51       1.0  0.35280  0.25040  0.50600  1.0000 -0.2174837545
C   C52       1.0  0.35790  0.22240  0.59200  1.0000 0.1198910556
C   C53       1.0  0.37010  0.12970  0.64600  1.0000 -0.2093788302
C   C54       1.0  0.37690  0.06730  0.61360  1.0000 0.1019980106
C   C55       1.0  0.37270  0.09590  0.52780  1.0000 -0.2174837545
C   C56       1.0  0.77830  0.75590  0.08820  1.0000 0.4781083569
C   C57       1.0  0.90940  0.88800  0.81030  1.0000 0.0716307062
C   C58       1.0  0.89320  0.96080  0.83080  1.0000 -0.1599772969
C   C59       1.0  0.87640  0.04630  0.76750  1.0000 0.0011827325
C   C60       1.0  0.87590  0.05630  0.68540  1.0000 -0.1496443048
C   C61       1.0  0.89470  0.98120  0.66950  1.0000 0.0716307062
C   C62       1.0  0.86160  0.13000  0.78220  1.0000 0.490580169
C   C63       1.0  0.87140  0.18980  0.87690  1.0000 -0.0790800628
C   C64       1.0  0.89050  0.88200  0.50610  1.0000 0.0796654422
C   C65       1.0  0.88000  0.89670  0.42560  1.0000 -0.1496443048
C   C66       1.0  0.90530  0.82600  0.40150  1.0000 0.0011827325
C   C67       1.0  0.94240  0.74340  0.45870  1.0000 -0.1496443048
C   C68       1.0  0.95260  0.73500  0.53670  1.0000 0.0628362327
C   C69       1.0  0.89630  0.83580  0.31560  1.0000 0.490580169
C   C70       1.0  0.86860  0.93900  0.17640  1.0000 -0.072197317
C   C71       1.0  0.86320  0.60870  0.85800  1.0000 0.0796654422
C   C72       1.0  0.85540  0.52430  0.92880  1.0000 -0.1599772969
C   C73       1.0  0.94370  0.46800  0.94230  1.0000 -0.0014216565
C   C74       1.0  0.03610  0.49870  0.88420  1.0000 -0.1599772969
C   C75       1.0  0.03760  0.58280  0.81480  1.0000 0.0796654422
C   C76       1.0  0.94250  0.37580  0.01820  1.0000 0.490580169
C   C77       1.0  0.83420  0.26290  0.12930  1.0000 -0.0790800628
C   C78       1.0  0.86800  0.15710  0.97210  1.0000 0.1102304289
C   C79       1.0  0.87420  0.06610  0.02920  1.0000 -0.2093788302
C   C80       1.0  0.86720  0.03960  0.11770  1.0000 0.1102304289
C   C81       1.0  0.85570  0.10410  0.14880  1.0000 -0.2093788302
C   C82       1.0  0.85030  0.19560  0.09200  1.0000 0.1102304289
C   C83       1.0  0.85610  0.22070  0.00400  1.0000 -0.2174837545
C   C84       1.0  0.32880  0.78840  0.58370  1.0000 0.44548897
C   C85       1.0  0.63010  0.97750  0.83220  1.0000 0.0716307062
C   C86       1.0  0.64740  0.90240  0.81640  1.0000 -0.1496443048
C   C87       1.0  0.64750  0.91280  0.73400  1.0000 -0.0014216565
C   C88       1.0  0.62960  0.00010  0.67030  1.0000 -0.1599772969
C   C89       1.0  0.61420  0.07100  0.69250  1.0000 0.0796654422
C   C90       1.0  0.66120  0.83110  0.71730  1.0000 0.4965325937
C   C91       1.0  0.64720  0.77700  0.61960  1.0000 -0.072197317
C   C92       1.0  0.55610  0.38450  0.65410  1.0000 0.0796654422
C   C93       1.0  0.57470  0.46510  0.58140  1.0000 -0.1599772969
C   C94       1.0  0.65720  0.46670  0.51170  1.0000 0.0108697425
C   C95       1.0  0.71810  0.38770  0.51710  1.0000 -0.1599772969
C   C96       1.0  0.69560  0.31070  0.59370  1.0000 0.0716307062
C   C97       1.0  0.68570  0.55220  0.43030  1.0000 0.4965325937
C   C98       1.0  0.65410  0.71260  0.36890  1.0000 -0.072197317
C   C99       1.0  0.62410  0.08870  0.99290  1.0000 0.0796654422
C   C100      1.0  0.62110  0.07420  0.07650  1.0000 -0.1424494381
C   C101      1.0  0.60210  0.14660  0.09740  1.0000 -0.00708402
C   C102      1.0  0.58500  0.23180  0.03210  1.0000 -0.1496443048
C   C103      1.0  0.58960  0.24080  0.95070  1.0000 0.0628362327
C   C104      1.0  0.59820  0.13630  0.18670  1.0000 0.490580169
C   C105      1.0  0.61240  0.03450  0.32980  1.0000 -0.072197317
C   C106      1.0  0.63950  0.81330  0.52660  1.0000 0.1019980106
C   C107      1.0  0.64720  0.74960  0.49400  1.0000 -0.2174837545
C   C108      1.0  0.64210  0.77760  0.40800  1.0000 0.1198910556
C   C109      1.0  0.62990  0.87030  0.35400  1.0000 -0.2093788302
C   C110      1.0  0.62310  0.93270  0.38640  1.0000 0.1102304289
C   C111      1.0  0.62730  0.90410  0.47220  1.0000 -0.2174837545
C   C112      1.0  0.22170  0.24410  0.91180  1.0000 0.4781083569
S   S1        1.0  0.80018  0.16696  0.41063  1.0000 0.9684610471
S   S2        1.0  0.65792  0.81399  0.11338  1.0000 0.9835763678
S   S3        1.0  0.19982  0.83304  0.58937  1.0000 0.9684610471
S   S4        1.0  0.34208  0.18601  0.88662  1.0000 0.9835763678
N   N1        1.0  0.08820  0.10280  0.27020  1.0000 -0.2001068339
N   N2        1.0  0.07460  0.19730  0.43790  1.0000 -0.1913665504
N   N3        1.0  0.04740  0.36270  0.19850  1.0000 -0.1801192607
N   N4        1.0  0.38650  0.93810  0.22830  1.0000 -0.2093788302
N   N5        1.0  0.38370  0.69190  0.33770  1.0000 -0.1913665504
N   N6        1.0  0.39050  0.82910  0.07120  1.0000 -0.1801192607
N   N7        1.0  0.91180  0.89720  0.72980  1.0000 -0.2001068339
N   N8        1.0  0.92540  0.80270  0.56210  1.0000 -0.1913665504
N   N9        1.0  0.95260  0.63730  0.80150  1.0000 -0.1801192607
N   N10       1.0  0.61350  0.06190  0.77170  1.0000 -0.2093788302
N   N11       1.0  0.61630  0.30810  0.66230  1.0000 -0.1913665504
N   N12       1.0  0.60950  0.17090  0.92880  1.0000 -0.1801192607
O   O1        1.0  0.16020  0.79610  0.27050  1.0000 -0.4608662024
O   O2        1.0  0.12300  0.88790  0.14080  1.0000 -0.2093788302
O   O3        1.0  0.09770  0.22600  0.70250  1.0000 -0.4218295709
O   O4        1.0  0.11900  0.07690  0.73960  1.0000 -0.2093788302
O   O5        1.0  0.98230  0.67150  0.96250  1.0000 -0.4492651517
O   O6        1.0  0.15470  0.64570  0.93880  1.0000 -0.2174837545
O   O7        1.0  0.85310  0.24260  0.35310  1.0000 -0.5263540045
O   O8        1.0  0.81820  0.11460  0.35950  1.0000 -0.5744802848
O   O9        1.0  0.81300  0.12620  0.49250  1.0000 -0.5154157177
O   O10       1.0  0.31640  0.24460  0.23220  1.0000 -0.4808867023
O   O11       1.0  0.35600  0.14740  0.36060  1.0000 -0.2174837545
O   O12       1.0  0.25220  0.44440  0.63520  1.0000 -0.4492651517
O   O13       1.0  0.36910  0.37570  0.56020  1.0000 -0.2378689543
O   O14       1.0  0.41750  0.80140  0.79280  1.0000 -0.4492651517
O   O15       1.0  0.38610  0.94970  0.75770  1.0000 -0.2001068339
O   O16       1.0  0.67710  0.85540  0.16270  1.0000 -0.5807839528
O   O17       1.0  0.63690  0.87610  0.03170  1.0000 -0.5549042121
O   O18       1.0  0.58940  0.74290  0.16660  1.0000 -0.5615674749
O   O19       1.0  0.83980  0.20390  0.72950  1.0000 -0.4608662024
O   O20       1.0  0.87700  0.11210  0.85920  1.0000 -0.2093788302
O   O21       1.0  0.90230  0.77400  0.29750  1.0000 -0.4218295709
O   O22       1.0  0.88100  0.92310  0.26040  1.0000 -0.2093788302
O   O23       1.0  0.01770  0.32850  0.03750  1.0000 -0.4492651517
O   O24       1.0  0.84530  0.35430  0.06120  1.0000 -0.2174837545
O   O25       1.0  0.14690  0.75740  0.64690  1.0000 -0.5263540045
O   O26       1.0  0.18180  0.88540  0.64050  1.0000 -0.5744802848
O   O27       1.0  0.18700  0.87380  0.50750  1.0000 -0.5154157177
O   O28       1.0  0.68360  0.75540  0.76780  1.0000 -0.4808867023
O   O29       1.0  0.64400  0.85260  0.63940  1.0000 -0.2174837545
O   O30       1.0  0.74780  0.55560  0.36480  1.0000 -0.4492651517
O   O31       1.0  0.63090  0.62430  0.43980  1.0000 -0.2378689543
O   O32       1.0  0.58250  0.19860  0.20720  1.0000 -0.4492651517
O   O33       1.0  0.61390  0.05030  0.24230  1.0000 -0.2001068339
O   O34       1.0  0.32290  0.14460  0.83730  1.0000 -0.5807839528
O   O35       1.0  0.36310  0.12390  0.96830  1.0000 -0.5549042121
O   O36       1.0  0.41060  0.25710  0.83340  1.0000 -0.5615674749
F   F1        1.0  0.61120  0.13760  0.46360  1.0000 -0.1702752456
F   F2        1.0  0.63270  0.25370  0.46070  1.0000 -0.1424494381
F   F3        1.0  0.64300  0.24620  0.34470  1.0000 -0.1424494381
F   F4        1.0  0.76810  0.71630  0.03550  1.0000 -0.2093788302
F   F5        1.0  0.85270  0.80800  0.03960  1.0000 -0.1801192607
F   F6        1.0  0.80740  0.68990  0.15490  1.0000 -0.1599772969
F   F7        1.0  0.38880  0.86240  0.53640  1.0000 -0.1702752456
F   F8        1.0  0.36730  0.74630  0.53930  1.0000 -0.1424494381
F   F9        1.0  0.35700  0.75380  0.65530  1.0000 -0.1424494381
F   F10       1.0  0.23190  0.28370  0.96450  1.0000 -0.2093788302
F   F11       1.0  0.14730  0.19200  0.96040  1.0000 -0.1801192607
F   F12       1.0  0.19260  0.31010  0.84510  1.0000 -0.1599772969
