# DDEC6 charges by PACMAN v1.1 (https://github.com/mtap-research/PACMAN-charge/)
data_2017[Co][sql]2[FSR]5
_chemical_formula_sum              "Co8 H88 C144 N56 O48"
_cell_length_a       10.093
_cell_length_b       19.074
_cell_length_c       21.537
_cell_angle_alpha    90
_cell_angle_beta     90
_cell_angle_gamma    90

_symmetry_space_group_name_H-M    "P 1"
_symmetry_Int_Tables_number       1

loop_
  _symmetry_equiv_pos_as_xyz
  'x, y, z'

loop_
  _atom_site_type_symbol
  _atom_site_label
  _atom_site_symmetry_multiplicity
  _atom_site_fract_x
  _atom_site_fract_y
  _atom_site_fract_z
  _atom_site_occupancy
  _atom_site_charge
Co  Co1       1.0  0.56979  0.06303  0.57148  1.0000 0.8179226526
Co  Co2       1.0  0.56979  0.43697  0.07148  1.0000 0.8179226526
Co  Co3       1.0  0.93021  0.93697  0.07148  1.0000 0.8179226526
Co  Co4       1.0  0.93021  0.56303  0.57148  1.0000 0.8179226526
Co  Co5       1.0  0.43021  0.56303  0.92852  1.0000 0.8179226526
Co  Co6       1.0  0.43021  0.93697  0.42852  1.0000 0.8179226526
Co  Co7       1.0  0.06979  0.43697  0.42852  1.0000 0.8179226526
Co  Co8       1.0  0.06979  0.06303  0.92852  1.0000 0.8179226526
H   H1        1.0  0.04320  0.07380  0.57060  1.0000 0.1207523789
H   H2        1.0  0.26890  0.90310  0.59310  1.0000 0.1317299531
H   H3        1.0  0.87330  0.88810  0.59820  1.0000 0.1317299531
H   H4        1.0  0.41830  0.12990  0.45370  1.0000 0.1317299531
H   H5        1.0  0.42140  0.33920  0.17240  1.0000 0.112722204
H   H6        1.0  0.61160  0.31200  0.36040  1.0000 0.1554030039
H   H7        1.0  0.21670  0.22140  0.30490  1.0000 0.0925475293
H   H8        1.0  0.71530  0.20930  0.54600  1.0000 0.1207523789
H   H9        1.0  0.67040  0.29030  0.46230  1.0000 0.1385122546
H   H10       1.0  0.67780  0.40970  0.29890  1.0000 0.1317299531
H   H11       1.0  0.71560  0.46490  0.19950  1.0000 0.1207523789
H   H12       1.0  0.04320  0.42620  0.07060  1.0000 0.1207523789
H   H13       1.0  0.26890  0.59690  0.09310  1.0000 0.1317299531
H   H14       1.0  0.87330  0.61190  0.09820  1.0000 0.1317299531
H   H15       1.0  0.41830  0.37010  0.95370  1.0000 0.1317299531
H   H16       1.0  0.42140  0.16080  0.67240  1.0000 0.112722204
H   H17       1.0  0.61160  0.18800  0.86040  1.0000 0.1554030039
H   H18       1.0  0.21670  0.27860  0.80490  1.0000 0.0925475293
H   H19       1.0  0.71530  0.29070  0.04600  1.0000 0.1207523789
H   H20       1.0  0.67040  0.20970  0.96230  1.0000 0.1385122546
H   H21       1.0  0.67780  0.09030  0.79890  1.0000 0.1317299531
H   H22       1.0  0.71560  0.03510  0.69950  1.0000 0.1207523789
H   H23       1.0  0.45680  0.92620  0.07060  1.0000 0.1207523789
H   H24       1.0  0.23110  0.09690  0.09310  1.0000 0.1317299531
H   H25       1.0  0.62670  0.11190  0.09820  1.0000 0.1317299531
H   H26       1.0  0.08170  0.87010  0.95370  1.0000 0.1317299531
H   H27       1.0  0.07860  0.66080  0.67240  1.0000 0.112722204
H   H28       1.0  0.88840  0.68800  0.86040  1.0000 0.1554030039
H   H29       1.0  0.28330  0.77860  0.80490  1.0000 0.0925475293
H   H30       1.0  0.78470  0.79070  0.04600  1.0000 0.1207523789
H   H31       1.0  0.82960  0.70970  0.96230  1.0000 0.1385122546
H   H32       1.0  0.82220  0.59030  0.79890  1.0000 0.1317299531
H   H33       1.0  0.78440  0.53510  0.69950  1.0000 0.1207523789
H   H34       1.0  0.45680  0.57380  0.57060  1.0000 0.1207523789
H   H35       1.0  0.23110  0.40310  0.59310  1.0000 0.1317299531
H   H36       1.0  0.62670  0.38810  0.59820  1.0000 0.1317299531
H   H37       1.0  0.08170  0.62990  0.45370  1.0000 0.1317299531
H   H38       1.0  0.07860  0.83920  0.17240  1.0000 0.112722204
H   H39       1.0  0.88840  0.81200  0.36040  1.0000 0.1554030039
H   H40       1.0  0.28330  0.72140  0.30490  1.0000 0.0925475293
H   H41       1.0  0.78470  0.70930  0.54600  1.0000 0.1207523789
H   H42       1.0  0.82960  0.79030  0.46230  1.0000 0.1385122546
H   H43       1.0  0.82220  0.90970  0.29890  1.0000 0.1317299531
H   H44       1.0  0.78440  0.96490  0.19950  1.0000 0.1207523789
H   H45       1.0  0.95680  0.57380  0.92940  1.0000 0.1207523789
H   H46       1.0  0.73110  0.40310  0.90690  1.0000 0.1317299531
H   H47       1.0  0.12670  0.38810  0.90180  1.0000 0.1317299531
H   H48       1.0  0.58170  0.62990  0.04630  1.0000 0.1317299531
H   H49       1.0  0.57860  0.83920  0.32760  1.0000 0.112722204
H   H50       1.0  0.38840  0.81200  0.13960  1.0000 0.1554030039
H   H51       1.0  0.78330  0.72140  0.19510  1.0000 0.0925475293
H   H52       1.0  0.28470  0.70930  0.95400  1.0000 0.1207523789
H   H53       1.0  0.32960  0.79030  0.03770  1.0000 0.1385122546
H   H54       1.0  0.32220  0.90970  0.20110  1.0000 0.1317299531
H   H55       1.0  0.28440  0.96490  0.30050  1.0000 0.1207523789
H   H56       1.0  0.95680  0.92620  0.42940  1.0000 0.1207523789
H   H57       1.0  0.73110  0.09690  0.40690  1.0000 0.1317299531
H   H58       1.0  0.12670  0.11190  0.40180  1.0000 0.1317299531
H   H59       1.0  0.58170  0.87010  0.54630  1.0000 0.1317299531
H   H60       1.0  0.57860  0.66080  0.82760  1.0000 0.112722204
H   H61       1.0  0.38840  0.68800  0.63960  1.0000 0.1554030039
H   H62       1.0  0.78330  0.77860  0.69510  1.0000 0.0925475293
H   H63       1.0  0.28470  0.79070  0.45400  1.0000 0.1207523789
H   H64       1.0  0.32960  0.70970  0.53770  1.0000 0.1385122546
H   H65       1.0  0.32220  0.59030  0.70110  1.0000 0.1317299531
H   H66       1.0  0.28440  0.53510  0.80050  1.0000 0.1207523789
H   H67       1.0  0.54320  0.42620  0.42940  1.0000 0.1207523789
H   H68       1.0  0.76890  0.59690  0.40690  1.0000 0.1317299531
H   H69       1.0  0.37330  0.61190  0.40180  1.0000 0.1317299531
H   H70       1.0  0.91830  0.37010  0.54630  1.0000 0.1317299531
H   H71       1.0  0.92140  0.16080  0.82760  1.0000 0.112722204
H   H72       1.0  0.11160  0.18800  0.63960  1.0000 0.1554030039
H   H73       1.0  0.71670  0.27860  0.69510  1.0000 0.0925475293
H   H74       1.0  0.21530  0.29070  0.45400  1.0000 0.1207523789
H   H75       1.0  0.17040  0.20970  0.53770  1.0000 0.1385122546
H   H76       1.0  0.17780  0.09030  0.70110  1.0000 0.1317299531
H   H77       1.0  0.21560  0.03510  0.80050  1.0000 0.1207523789
H   H78       1.0  0.54320  0.07380  0.92940  1.0000 0.1207523789
H   H79       1.0  0.76890  0.90310  0.90690  1.0000 0.1317299531
H   H80       1.0  0.37330  0.88810  0.90180  1.0000 0.1317299531
H   H81       1.0  0.91830  0.12990  0.04630  1.0000 0.1317299531
H   H82       1.0  0.92140  0.33920  0.32760  1.0000 0.112722204
H   H83       1.0  0.11160  0.31200  0.13960  1.0000 0.1554030039
H   H84       1.0  0.71670  0.22140  0.19510  1.0000 0.0925475293
H   H85       1.0  0.21530  0.20930  0.95400  1.0000 0.1207523789
H   H86       1.0  0.17040  0.29030  0.03770  1.0000 0.1385122546
H   H87       1.0  0.17780  0.40970  0.20110  1.0000 0.1317299531
H   H88       1.0  0.21560  0.46490  0.30050  1.0000 0.1207523789
C   C1        1.0  0.05110  0.02560  0.57600  1.0000 -0.1113439268
C   C2        1.0  0.93880  0.98610  0.58060  1.0000 0.0003721173
C   C3        1.0  0.29620  0.04050  0.57520  1.0000 0.5451799491
C   C4        1.0  0.80680  0.02190  0.57680  1.0000 0.5195178249
C   C5        1.0  0.17690  0.99610  0.57910  1.0000 -0.0197759131
C   C6        1.0  0.07350  0.88720  0.59860  1.0000 0.0573707418
C   C7        1.0  0.18660  0.92480  0.59070  1.0000 -0.1307796343
C   C8        1.0  0.94860  0.91560  0.59330  1.0000 -0.148122809
C   C9        1.0  0.48660  0.15920  0.46670  1.0000 0.1490295351
C   C10       1.0  0.49100  0.36310  0.19110  1.0000 0.1317299531
C   C11       1.0  0.46280  0.24400  0.38490  1.0000 0.3464483106
C   C12       1.0  0.53030  0.29310  0.34880  1.0000 -0.3133726559
C   C13       1.0  0.29820  0.24020  0.31630  1.0000 0.2355141797
C   C14       1.0  0.46710  0.31110  0.29500  1.0000 0.3331950613
C   C15       1.0  0.64940  0.20360  0.51620  1.0000 -0.0197759131
C   C16       1.0  0.62590  0.24870  0.47100  1.0000 -0.0979944701
C   C17       1.0  0.63160  0.40200  0.26220  1.0000 -0.0979944701
C   C18       1.0  0.65110  0.43110  0.20700  1.0000 -0.0108775715
C   C19       1.0  0.05110  0.47440  0.07600  1.0000 -0.1113439268
C   C20       1.0  0.93880  0.51390  0.08060  1.0000 0.0003721173
C   C21       1.0  0.29620  0.45950  0.07520  1.0000 0.5449882605
C   C22       1.0  0.80680  0.47810  0.07680  1.0000 0.5195178249
C   C23       1.0  0.17690  0.50390  0.07910  1.0000 -0.0197759131
C   C24       1.0  0.07350  0.61280  0.09860  1.0000 0.0573707418
C   C25       1.0  0.18660  0.57520  0.09070  1.0000 -0.1307796343
C   C26       1.0  0.94860  0.58440  0.09330  1.0000 -0.148122809
C   C27       1.0  0.48660  0.34080  0.96670  1.0000 0.1490295351
C   C28       1.0  0.49100  0.13690  0.69110  1.0000 0.1317299531
C   C29       1.0  0.46280  0.25600  0.88490  1.0000 0.3464483106
C   C30       1.0  0.53030  0.20690  0.84880  1.0000 -0.3133726559
C   C31       1.0  0.29820  0.25980  0.81630  1.0000 0.2355141797
C   C32       1.0  0.46710  0.18890  0.79500  1.0000 0.3331950613
C   C33       1.0  0.64940  0.29640  0.01620  1.0000 -0.0197759131
C   C34       1.0  0.62590  0.25130  0.97100  1.0000 -0.0979944701
C   C35       1.0  0.63160  0.09800  0.76220  1.0000 -0.0979944701
C   C36       1.0  0.65110  0.06890  0.70700  1.0000 -0.0108775715
C   C37       1.0  0.44890  0.97440  0.07600  1.0000 -0.1113439268
C   C38       1.0  0.56120  0.01390  0.08060  1.0000 0.0003721173
C   C39       1.0  0.20380  0.95950  0.07520  1.0000 0.5451799491
C   C40       1.0  0.69320  0.97810  0.07680  1.0000 0.5195178249
C   C41       1.0  0.32310  0.00390  0.07910  1.0000 -0.0197759131
C   C42       1.0  0.42650  0.11280  0.09860  1.0000 0.0573707418
C   C43       1.0  0.31340  0.07520  0.09070  1.0000 -0.1307796343
C   C44       1.0  0.55140  0.08440  0.09330  1.0000 -0.148122809
C   C45       1.0  0.01340  0.84080  0.96670  1.0000 0.1490295351
C   C46       1.0  0.00900  0.63690  0.69110  1.0000 0.1317299531
C   C47       1.0  0.03720  0.75600  0.88490  1.0000 0.3464483106
C   C48       1.0  0.96970  0.70690  0.84880  1.0000 -0.3133726559
C   C49       1.0  0.20180  0.75980  0.81630  1.0000 0.2355141797
C   C50       1.0  0.03290  0.68890  0.79500  1.0000 0.3331950613
C   C51       1.0  0.85060  0.79640  0.01620  1.0000 -0.0197759131
C   C52       1.0  0.87410  0.75130  0.97100  1.0000 -0.0979944701
C   C53       1.0  0.86840  0.59800  0.76220  1.0000 -0.0979944701
C   C54       1.0  0.84890  0.56890  0.70700  1.0000 -0.0108775715
C   C55       1.0  0.44890  0.52560  0.57600  1.0000 -0.1113439268
C   C56       1.0  0.56120  0.48610  0.58060  1.0000 0.0003721173
C   C57       1.0  0.20380  0.54050  0.57520  1.0000 0.5451799491
C   C58       1.0  0.69320  0.52190  0.57680  1.0000 0.5195178249
C   C59       1.0  0.32310  0.49610  0.57910  1.0000 -0.0197759131
C   C60       1.0  0.42650  0.38720  0.59860  1.0000 0.0573707418
C   C61       1.0  0.31340  0.42480  0.59070  1.0000 -0.1307796343
C   C62       1.0  0.55140  0.41560  0.59330  1.0000 -0.148122809
C   C63       1.0  0.01340  0.65920  0.46670  1.0000 0.1490295351
C   C64       1.0  0.00900  0.86310  0.19110  1.0000 0.1317299531
C   C65       1.0  0.03720  0.74400  0.38490  1.0000 0.3464483106
C   C66       1.0  0.96970  0.79310  0.34880  1.0000 -0.3133726559
C   C67       1.0  0.20180  0.74020  0.31630  1.0000 0.2355141797
C   C68       1.0  0.03290  0.81110  0.29500  1.0000 0.3331950613
C   C69       1.0  0.85060  0.70360  0.51620  1.0000 -0.0197759131
C   C70       1.0  0.87410  0.74870  0.47100  1.0000 -0.0979944701
C   C71       1.0  0.86840  0.90200  0.26220  1.0000 -0.0979944701
C   C72       1.0  0.84890  0.93110  0.20700  1.0000 -0.0108775715
C   C73       1.0  0.94890  0.52560  0.92400  1.0000 -0.1113439268
C   C74       1.0  0.06120  0.48610  0.91940  1.0000 0.0003721173
C   C75       1.0  0.70380  0.54050  0.92480  1.0000 0.5449882605
C   C76       1.0  0.19320  0.52190  0.92320  1.0000 0.5195178249
C   C77       1.0  0.82310  0.49610  0.92090  1.0000 -0.0197759131
C   C78       1.0  0.92650  0.38720  0.90140  1.0000 0.0573707418
C   C79       1.0  0.81340  0.42480  0.90930  1.0000 -0.1307796343
C   C80       1.0  0.05140  0.41560  0.90670  1.0000 -0.148122809
C   C81       1.0  0.51340  0.65920  0.03330  1.0000 0.1490295351
C   C82       1.0  0.50900  0.86310  0.30890  1.0000 0.1317299531
C   C83       1.0  0.53720  0.74400  0.11510  1.0000 0.3464483106
C   C84       1.0  0.46970  0.79310  0.15120  1.0000 -0.3133726559
C   C85       1.0  0.70180  0.74020  0.18370  1.0000 0.2355141797
C   C86       1.0  0.53290  0.81110  0.20500  1.0000 0.3331950613
C   C87       1.0  0.35060  0.70360  0.98380  1.0000 -0.0197759131
C   C88       1.0  0.37410  0.74870  0.02900  1.0000 -0.0979944701
C   C89       1.0  0.36840  0.90200  0.23780  1.0000 -0.0979944701
C   C90       1.0  0.34890  0.93110  0.29300  1.0000 -0.0108775715
C   C91       1.0  0.94890  0.97440  0.42400  1.0000 -0.1113439268
C   C92       1.0  0.06120  0.01390  0.41940  1.0000 0.0003721173
C   C93       1.0  0.70380  0.95950  0.42480  1.0000 0.5451799491
C   C94       1.0  0.19320  0.97810  0.42320  1.0000 0.5195178249
C   C95       1.0  0.82310  0.00390  0.42090  1.0000 -0.0197759131
C   C96       1.0  0.92650  0.11280  0.40140  1.0000 0.0573707418
C   C97       1.0  0.81340  0.07520  0.40930  1.0000 -0.1307796343
C   C98       1.0  0.05140  0.08440  0.40670  1.0000 -0.148122809
C   C99       1.0  0.51340  0.84080  0.53330  1.0000 0.1490295351
C   C100      1.0  0.50900  0.63690  0.80890  1.0000 0.1317299531
C   C101      1.0  0.53720  0.75600  0.61510  1.0000 0.3464483106
C   C102      1.0  0.46970  0.70690  0.65120  1.0000 -0.3133726559
C   C103      1.0  0.70180  0.75980  0.68370  1.0000 0.2355141797
C   C104      1.0  0.53290  0.68890  0.70500  1.0000 0.3331950613
C   C105      1.0  0.35060  0.79640  0.48380  1.0000 -0.0197759131
C   C106      1.0  0.37410  0.75130  0.52900  1.0000 -0.0979944701
C   C107      1.0  0.36840  0.59800  0.73780  1.0000 -0.0979944701
C   C108      1.0  0.34890  0.56890  0.79300  1.0000 -0.0108775715
C   C109      1.0  0.55110  0.47440  0.42400  1.0000 -0.1113439268
C   C110      1.0  0.43880  0.51390  0.41940  1.0000 0.0003721173
C   C111      1.0  0.79620  0.45950  0.42480  1.0000 0.5449882605
C   C112      1.0  0.30680  0.47810  0.42320  1.0000 0.5195178249
C   C113      1.0  0.67690  0.50390  0.42090  1.0000 -0.0197759131
C   C114      1.0  0.57350  0.61280  0.40140  1.0000 0.0573707418
C   C115      1.0  0.68660  0.57520  0.40930  1.0000 -0.1307796343
C   C116      1.0  0.44860  0.58440  0.40670  1.0000 -0.148122809
C   C117      1.0  0.98660  0.34080  0.53330  1.0000 0.1490295351
C   C118      1.0  0.99100  0.13690  0.80890  1.0000 0.1317299531
C   C119      1.0  0.96280  0.25600  0.61510  1.0000 0.3464483106
C   C120      1.0  0.03030  0.20690  0.65120  1.0000 -0.3133726559
C   C121      1.0  0.79820  0.25980  0.68370  1.0000 0.2355141797
C   C122      1.0  0.96710  0.18890  0.70500  1.0000 0.3331950613
C   C123      1.0  0.14940  0.29640  0.48380  1.0000 -0.0197759131
C   C124      1.0  0.12590  0.25130  0.52900  1.0000 -0.0979944701
C   C125      1.0  0.13160  0.09800  0.73780  1.0000 -0.0979944701
C   C126      1.0  0.15110  0.06890  0.79300  1.0000 -0.0108775715
C   C127      1.0  0.55110  0.02560  0.92400  1.0000 -0.1113439268
C   C128      1.0  0.43880  0.98610  0.91940  1.0000 0.0003721173
C   C129      1.0  0.79620  0.04050  0.92480  1.0000 0.5449882605
C   C130      1.0  0.30680  0.02190  0.92320  1.0000 0.5195178249
C   C131      1.0  0.67690  0.99610  0.92090  1.0000 -0.0197759131
C   C132      1.0  0.57350  0.88720  0.90140  1.0000 0.0573707418
C   C133      1.0  0.68660  0.92480  0.90930  1.0000 -0.1307796343
C   C134      1.0  0.44860  0.91560  0.90670  1.0000 -0.148122809
C   C135      1.0  0.98660  0.15920  0.03330  1.0000 0.1490295351
C   C136      1.0  0.99100  0.36310  0.30890  1.0000 0.1317299531
C   C137      1.0  0.96280  0.24400  0.11510  1.0000 0.3464483106
C   C138      1.0  0.03030  0.29310  0.15120  1.0000 -0.3133726559
C   C139      1.0  0.79820  0.24020  0.18370  1.0000 0.2355141797
C   C140      1.0  0.96710  0.31110  0.20500  1.0000 0.3331950613
C   C141      1.0  0.14940  0.20360  0.98380  1.0000 -0.0197759131
C   C142      1.0  0.12590  0.24870  0.02900  1.0000 -0.0979944701
C   C143      1.0  0.13160  0.40200  0.23780  1.0000 -0.0979944701
C   C144      1.0  0.15110  0.43110  0.29300  1.0000 -0.0108775715
N   N1        1.0  0.51990  0.21970  0.43970  1.0000 -0.0197759131
N   N2        1.0  0.56910  0.40700  0.16310  1.0000 -0.2818292222
N   N3        1.0  0.56460  0.14720  0.51410  1.0000 -0.2976349475
N   N4        1.0  0.34680  0.21890  0.36990  1.0000 -0.3607736557
N   N5        1.0  0.52610  0.35740  0.25180  1.0000 -0.0197759131
N   N6        1.0  0.08620  0.81430  0.61870  1.0000 0.5059477546
N   N7        1.0  0.35190  0.28510  0.27710  1.0000 -0.3656304545
N   N8        1.0  0.51990  0.28030  0.93970  1.0000 -0.0197759131
N   N9        1.0  0.56910  0.09300  0.66310  1.0000 -0.2818292222
N   N10       1.0  0.56460  0.35280  0.01410  1.0000 -0.2879873423
N   N11       1.0  0.34680  0.28110  0.86990  1.0000 -0.3607736557
N   N12       1.0  0.52610  0.14260  0.75180  1.0000 -0.0197759131
N   N13       1.0  0.08620  0.68570  0.11870  1.0000 0.5059477546
N   N14       1.0  0.35190  0.21490  0.77710  1.0000 -0.3656304545
N   N15       1.0  0.98010  0.78030  0.93970  1.0000 -0.0197759131
N   N16       1.0  0.93090  0.59300  0.66310  1.0000 -0.2818292222
N   N17       1.0  0.93540  0.85280  0.01410  1.0000 -0.2976349475
N   N18       1.0  0.15320  0.78110  0.86990  1.0000 -0.3607736557
N   N19       1.0  0.97390  0.64260  0.75180  1.0000 -0.0197759131
N   N20       1.0  0.41380  0.18570  0.11870  1.0000 0.5059477546
N   N21       1.0  0.14810  0.71490  0.77710  1.0000 -0.3656304545
N   N22       1.0  0.98010  0.71970  0.43970  1.0000 -0.0197759131
N   N23       1.0  0.93090  0.90700  0.16310  1.0000 -0.2818292222
N   N24       1.0  0.93540  0.64720  0.51410  1.0000 -0.2976349475
N   N25       1.0  0.15320  0.71890  0.36990  1.0000 -0.3607736557
N   N26       1.0  0.97390  0.85740  0.25180  1.0000 -0.0197759131
N   N27       1.0  0.41380  0.31430  0.61870  1.0000 0.5059477546
N   N28       1.0  0.14810  0.78510  0.27710  1.0000 -0.3656304545
N   N29       1.0  0.48010  0.71970  0.06030  1.0000 -0.0197759131
N   N30       1.0  0.43090  0.90700  0.33690  1.0000 -0.2818292222
N   N31       1.0  0.43540  0.64720  0.98590  1.0000 -0.2976349475
N   N32       1.0  0.65320  0.71890  0.13010  1.0000 -0.3607736557
N   N33       1.0  0.47390  0.85740  0.24820  1.0000 -0.0197759131
N   N34       1.0  0.91380  0.31430  0.88130  1.0000 0.5059477546
N   N35       1.0  0.64810  0.78510  0.22290  1.0000 -0.3656304545
N   N36       1.0  0.48010  0.78030  0.56030  1.0000 -0.0197759131
N   N37       1.0  0.43090  0.59300  0.83690  1.0000 -0.2818292222
N   N38       1.0  0.43540  0.85280  0.48590  1.0000 -0.2976349475
N   N39       1.0  0.65320  0.78110  0.63010  1.0000 -0.3607736557
N   N40       1.0  0.47390  0.64260  0.74820  1.0000 -0.0197759131
N   N41       1.0  0.91380  0.18570  0.38130  1.0000 0.5059477546
N   N42       1.0  0.64810  0.71490  0.72290  1.0000 -0.3656304545
N   N43       1.0  0.01990  0.28030  0.56030  1.0000 -0.0197759131
N   N44       1.0  0.06910  0.09300  0.83690  1.0000 -0.2818292222
N   N45       1.0  0.06460  0.35280  0.48590  1.0000 -0.2976349475
N   N46       1.0  0.84680  0.28110  0.63010  1.0000 -0.3607736557
N   N47       1.0  0.02610  0.14260  0.74820  1.0000 -0.0197759131
N   N48       1.0  0.58620  0.68570  0.38130  1.0000 0.5059477546
N   N49       1.0  0.85190  0.21490  0.72290  1.0000 -0.3656304545
N   N50       1.0  0.01990  0.21970  0.06030  1.0000 -0.0197759131
N   N51       1.0  0.06910  0.40700  0.33690  1.0000 -0.2818292222
N   N52       1.0  0.06460  0.14720  0.98590  1.0000 -0.2976349475
N   N53       1.0  0.84680  0.21890  0.13010  1.0000 -0.3607736557
N   N54       1.0  0.02610  0.35740  0.24820  1.0000 -0.0197759131
N   N55       1.0  0.58620  0.81430  0.88130  1.0000 0.5059477546
N   N56       1.0  0.85190  0.28510  0.22290  1.0000 -0.3656304545
O   O1        1.0  0.40500  0.00920  0.56350  1.0000 -0.5479530535
O   O2        1.0  0.70400  0.98360  0.57470  1.0000 -0.5187445722
O   O3        1.0  0.80050  0.08610  0.57670  1.0000 -0.5187445722
O   O4        1.0  0.28770  0.10480  0.58360  1.0000 -0.56517817
O   O5        1.0  0.19500  0.79110  0.63150  1.0000 -0.2976349475
O   O6        1.0  0.98880  0.77950  0.62280  1.0000 -0.2879873423
O   O7        1.0  0.40500  0.49080  0.06350  1.0000 -0.5479530535
O   O8        1.0  0.70400  0.51640  0.07470  1.0000 -0.5187445722
O   O9        1.0  0.80050  0.41390  0.07670  1.0000 -0.5187445722
O   O10       1.0  0.28770  0.39520  0.08360  1.0000 -0.56517817
O   O11       1.0  0.19500  0.70890  0.13150  1.0000 -0.2976349475
O   O12       1.0  0.98880  0.72050  0.12280  1.0000 -0.2879873423
O   O13       1.0  0.09500  0.99080  0.06350  1.0000 -0.5479530535
O   O14       1.0  0.79600  0.01640  0.07470  1.0000 -0.5187445722
O   O15       1.0  0.69950  0.91390  0.07670  1.0000 -0.5187445722
O   O16       1.0  0.21230  0.89520  0.08360  1.0000 -0.56517817
O   O17       1.0  0.30500  0.20890  0.13150  1.0000 -0.2976349475
O   O18       1.0  0.51120  0.22050  0.12280  1.0000 -0.2879873423
O   O19       1.0  0.09500  0.50920  0.56350  1.0000 -0.5479530535
O   O20       1.0  0.79600  0.48360  0.57470  1.0000 -0.5187445722
O   O21       1.0  0.69950  0.58610  0.57670  1.0000 -0.5187445722
O   O22       1.0  0.21230  0.60480  0.58360  1.0000 -0.56517817
O   O23       1.0  0.30500  0.29110  0.63150  1.0000 -0.2976349475
O   O24       1.0  0.51120  0.27950  0.62280  1.0000 -0.2879873423
O   O25       1.0  0.59500  0.50920  0.93650  1.0000 -0.5479530535
O   O26       1.0  0.29600  0.48360  0.92530  1.0000 -0.5187445722
O   O27       1.0  0.19950  0.58610  0.92330  1.0000 -0.5187445722
O   O28       1.0  0.71230  0.60480  0.91640  1.0000 -0.56517817
O   O29       1.0  0.80500  0.29110  0.86850  1.0000 -0.2976349475
O   O30       1.0  0.01120  0.27950  0.87720  1.0000 -0.2879873423
O   O31       1.0  0.59500  0.99080  0.43650  1.0000 -0.5479530535
O   O32       1.0  0.29600  0.01640  0.42530  1.0000 -0.5187445722
O   O33       1.0  0.19950  0.91390  0.42330  1.0000 -0.5187445722
O   O34       1.0  0.71230  0.89520  0.41640  1.0000 -0.56517817
O   O35       1.0  0.80500  0.20890  0.36850  1.0000 -0.2976349475
O   O36       1.0  0.01120  0.22050  0.37720  1.0000 -0.2879873423
O   O37       1.0  0.90500  0.49080  0.43650  1.0000 -0.5479530535
O   O38       1.0  0.20400  0.51640  0.42530  1.0000 -0.5187445722
O   O39       1.0  0.30050  0.41390  0.42330  1.0000 -0.5187445722
O   O40       1.0  0.78770  0.39520  0.41640  1.0000 -0.56517817
O   O41       1.0  0.69500  0.70890  0.36850  1.0000 -0.2976349475
O   O42       1.0  0.48880  0.72050  0.37720  1.0000 -0.2879873423
O   O43       1.0  0.90500  0.00920  0.93650  1.0000 -0.5479530535
O   O44       1.0  0.20400  0.98360  0.92530  1.0000 -0.5187445722
O   O45       1.0  0.30050  0.08610  0.92330  1.0000 -0.5187445722
O   O46       1.0  0.78770  0.10480  0.91640  1.0000 -0.56517817
O   O47       1.0  0.69500  0.79110  0.86850  1.0000 -0.2976349475
O   O48       1.0  0.48880  0.77950  0.87720  1.0000 -0.2879873423
