# DDEC6 charges by PACMAN v1.1 (https://github.com/mtap-research/PACMAN-charge/)
data_2017[Zn][sql]2[FSR]18
_chemical_formula_sum              "Zn4 H64 C96 N8 O16"
_cell_length_a       14.3663
_cell_length_b       15.0845
_cell_length_c       15.1445
_cell_angle_alpha    90
_cell_angle_beta     106.646
_cell_angle_gamma    90

_symmetry_space_group_name_H-M    "P 1"
_symmetry_Int_Tables_number       1

loop_
  _symmetry_equiv_pos_as_xyz
  'x, y, z'

loop_
  _atom_site_type_symbol
  _atom_site_label
  _atom_site_symmetry_multiplicity
  _atom_site_fract_x
  _atom_site_fract_y
  _atom_site_fract_z
  _atom_site_occupancy
  _atom_site_charge
Zn  Zn1       1.0  0.00899  0.73036  0.25368  1.0000 0.7261814312
Zn  Zn2       1.0  0.49101  0.23036  0.74632  1.0000 0.7261814312
Zn  Zn3       1.0  0.99101  0.26964  0.74632  1.0000 0.7261814312
Zn  Zn4       1.0  0.50899  0.76964  0.25368  1.0000 0.7261814312
H   H1        1.0  0.16847  0.52619  0.49232  1.0000 0.1112601577
H   H2        1.0  0.95647  0.68308  0.53269  1.0000 0.1112601577
H   H3        1.0  0.81269  0.53040  0.01088  1.0000 0.1112601577
H   H4        1.0  0.09559  0.50995  0.73127  1.0000 0.1218544771
H   H5        1.0  0.88295  0.51198  0.77016  1.0000 0.1218544771
H   H6        1.0  0.33198  0.28349  0.57201  1.0000 0.1112601577
H   H7        1.0  0.04157  0.66679  0.97678  1.0000 0.1112601577
H   H8        1.0  0.80491  0.38302  0.75588  1.0000 0.1405526758
H   H9        1.0  0.24943  0.45792  0.78700  1.0000 0.1405526758
H   H10       1.0  0.97786  0.61863  0.67762  1.0000 0.1112601577
H   H11       1.0  0.67671  0.28549  0.70665  1.0000 0.1112601577
H   H12       1.0  0.20947  0.38467  0.52219  1.0000 0.1305613615
H   H13       1.0  0.37120  0.35330  0.82986  1.0000 0.1112601577
H   H14       1.0  0.54532  0.38609  0.87839  1.0000 0.1003992655
H   H15       1.0  0.01263  0.60770  0.82928  1.0000 0.1112601577
H   H16       1.0  0.66674  0.48907  0.92979  1.0000 0.1305613615
H   H17       1.0  0.33153  0.02619  0.50768  1.0000 0.1112601577
H   H18       1.0  0.54353  0.18308  0.46731  1.0000 0.1112601577
H   H19       1.0  0.68731  0.03040  0.98912  1.0000 0.1112601577
H   H20       1.0  0.40441  0.00995  0.26873  1.0000 0.1218544771
H   H21       1.0  0.61705  0.01198  0.22984  1.0000 0.1218544771
H   H22       1.0  0.16802  0.78349  0.42799  1.0000 0.1112601577
H   H23       1.0  0.45843  0.16679  0.02322  1.0000 0.1112601577
H   H24       1.0  0.69509  0.88302  0.24412  1.0000 0.1405526758
H   H25       1.0  0.25057  0.95792  0.21300  1.0000 0.1405526758
H   H26       1.0  0.52214  0.11863  0.32238  1.0000 0.1112601577
H   H27       1.0  0.82329  0.78549  0.29335  1.0000 0.1112601577
H   H28       1.0  0.29053  0.88467  0.47781  1.0000 0.1305613615
H   H29       1.0  0.12880  0.85330  0.17014  1.0000 0.1112601577
H   H30       1.0  0.95468  0.88609  0.12161  1.0000 0.1003992655
H   H31       1.0  0.48737  0.10770  0.17072  1.0000 0.1112601577
H   H32       1.0  0.83326  0.98907  0.07021  1.0000 0.1305613615
H   H33       1.0  0.83153  0.47381  0.50768  1.0000 0.1112601577
H   H34       1.0  0.04353  0.31692  0.46731  1.0000 0.1112601577
H   H35       1.0  0.18731  0.46960  0.98912  1.0000 0.1112601577
H   H36       1.0  0.90441  0.49005  0.26873  1.0000 0.1218544771
H   H37       1.0  0.11705  0.48802  0.22984  1.0000 0.1218544771
H   H38       1.0  0.66802  0.71651  0.42799  1.0000 0.1112601577
H   H39       1.0  0.95843  0.33321  0.02322  1.0000 0.1112601577
H   H40       1.0  0.19509  0.61698  0.24412  1.0000 0.1405526758
H   H41       1.0  0.75057  0.54208  0.21300  1.0000 0.1405526758
H   H42       1.0  0.02214  0.38137  0.32238  1.0000 0.1112601577
H   H43       1.0  0.32329  0.71451  0.29335  1.0000 0.1112601577
H   H44       1.0  0.79053  0.61533  0.47781  1.0000 0.1305613615
H   H45       1.0  0.62880  0.64670  0.17014  1.0000 0.1112601577
H   H46       1.0  0.45468  0.61391  0.12161  1.0000 0.1003992655
H   H47       1.0  0.98737  0.39230  0.17072  1.0000 0.1112601577
H   H48       1.0  0.33326  0.51093  0.07021  1.0000 0.1305613615
H   H49       1.0  0.66847  0.97381  0.49232  1.0000 0.1112601577
H   H50       1.0  0.45647  0.81692  0.53269  1.0000 0.1112601577
H   H51       1.0  0.31269  0.96960  0.01088  1.0000 0.1112601577
H   H52       1.0  0.59559  0.99005  0.73127  1.0000 0.1218544771
H   H53       1.0  0.38295  0.98802  0.77016  1.0000 0.1218544771
H   H54       1.0  0.83198  0.21651  0.57201  1.0000 0.1112601577
H   H55       1.0  0.54157  0.83321  0.97678  1.0000 0.1112601577
H   H56       1.0  0.30491  0.11698  0.75588  1.0000 0.1405526758
H   H57       1.0  0.74943  0.04208  0.78700  1.0000 0.1405526758
H   H58       1.0  0.47786  0.88137  0.67762  1.0000 0.1112601577
H   H59       1.0  0.17671  0.21451  0.70665  1.0000 0.1112601577
H   H60       1.0  0.70947  0.11533  0.52219  1.0000 0.1305613615
H   H61       1.0  0.87120  0.14670  0.82986  1.0000 0.1112601577
H   H62       1.0  0.04532  0.11391  0.87839  1.0000 0.1003992655
H   H63       1.0  0.51263  0.89230  0.82928  1.0000 0.1112601577
H   H64       1.0  0.16674  0.01093  0.92979  1.0000 0.1305613615
C   C1        1.0  0.14520  0.50700  0.61690  1.0000 0.054384964
C   C2        1.0  0.21960  0.43840  0.64810  1.0000 0.1305613615
C   C3        1.0  0.04450  0.64700  0.40310  1.0000 0.5339433388
C   C4        1.0  0.05950  0.60990  0.49770  1.0000 -0.0235356786
C   C5        1.0  0.12990  0.54500  0.53030  1.0000 -0.1424441576
C   C6        1.0  0.93000  0.60440  0.00790  1.0000 -0.0112762865
C   C7        1.0  0.83360  0.51100  0.88480  1.0000 0.0615102597
C   C8        1.0  0.75300  0.44730  0.85040  1.0000 0.1305613615
C   C9        1.0  0.00380  0.63790  0.55350  1.0000 -0.110692591
C   C10       1.0  0.85300  0.54630  0.97340  1.0000 -0.1506694495
C   C11       1.0  0.08700  0.53530  0.67200  1.0000 -0.1214880957
C   C12       1.0  0.94950  0.64060  0.10430  1.0000 0.5426984862
C   C13       1.0  0.89460  0.53500  0.83070  1.0000 -0.1214880957
C   C14       1.0  0.31690  0.32120  0.61620  1.0000 0.0704290108
C   C15       1.0  0.98890  0.62710  0.95380  1.0000 -0.110692591
C   C16       1.0  0.75260  0.38520  0.78250  1.0000 -0.1787404022
C   C17       1.0  0.26710  0.42450  0.74110  1.0000 -0.1787404022
C   C18       1.0  0.01710  0.60000  0.64010  1.0000 -0.095221167
C   C19       1.0  0.67590  0.32670  0.75390  1.0000 0.1003992655
C   C20       1.0  0.24380  0.38150  0.58590  1.0000 -0.1908302321
C   C21       1.0  0.33980  0.36170  0.76610  1.0000 0.0704290108
C   C22       1.0  0.59900  0.38560  0.85350  1.0000 0.0615102597
C   C23       1.0  0.97130  0.59210  0.86580  1.0000 -0.0918337475
C   C24       1.0  0.67140  0.44680  0.88480  1.0000 -0.199533952
C   C25       1.0  0.35480  0.00700  0.38310  1.0000 0.054384964
C   C26       1.0  0.28040  0.93840  0.35190  1.0000 0.1305613615
C   C27       1.0  0.45550  0.14700  0.59690  1.0000 0.5339433388
C   C28       1.0  0.44050  0.10990  0.50230  1.0000 -0.0235356786
C   C29       1.0  0.37010  0.04500  0.46970  1.0000 -0.1424441576
C   C30       1.0  0.57000  0.10440  0.99210  1.0000 -0.0112762865
C   C31       1.0  0.66640  0.01100  0.11520  1.0000 0.0615102597
C   C32       1.0  0.74700  0.94730  0.14960  1.0000 0.1305613615
C   C33       1.0  0.49620  0.13790  0.44650  1.0000 -0.110692591
C   C34       1.0  0.64700  0.04630  0.02660  1.0000 -0.1506694495
C   C35       1.0  0.41300  0.03530  0.32800  1.0000 -0.1214880957
C   C36       1.0  0.55050  0.14060  0.89570  1.0000 0.5426984862
C   C37       1.0  0.60540  0.03500  0.16930  1.0000 -0.1214880957
C   C38       1.0  0.18310  0.82120  0.38380  1.0000 0.0704290108
C   C39       1.0  0.51110  0.12710  0.04620  1.0000 -0.110692591
C   C40       1.0  0.74740  0.88520  0.21750  1.0000 -0.1787404022
C   C41       1.0  0.23290  0.92450  0.25890  1.0000 -0.1787404022
C   C42       1.0  0.48290  0.10000  0.35990  1.0000 -0.095221167
C   C43       1.0  0.82410  0.82670  0.24610  1.0000 0.1003992655
C   C44       1.0  0.25620  0.88150  0.41410  1.0000 -0.1908302321
C   C45       1.0  0.16020  0.86170  0.23390  1.0000 0.0704290108
C   C46       1.0  0.90100  0.88560  0.14650  1.0000 0.0615102597
C   C47       1.0  0.52870  0.09210  0.13420  1.0000 -0.0918337475
C   C48       1.0  0.82860  0.94680  0.11520  1.0000 -0.199533952
C   C49       1.0  0.85480  0.49300  0.38310  1.0000 0.054384964
C   C50       1.0  0.78040  0.56160  0.35190  1.0000 0.1305613615
C   C51       1.0  0.95550  0.35300  0.59690  1.0000 0.5339433388
C   C52       1.0  0.94050  0.39010  0.50230  1.0000 -0.0235356786
C   C53       1.0  0.87010  0.45500  0.46970  1.0000 -0.1424441576
C   C54       1.0  0.07000  0.39560  0.99210  1.0000 -0.0112762865
C   C55       1.0  0.16640  0.48900  0.11520  1.0000 0.0615102597
C   C56       1.0  0.24700  0.55270  0.14960  1.0000 0.1305613615
C   C57       1.0  0.99620  0.36210  0.44650  1.0000 -0.110692591
C   C58       1.0  0.14700  0.45370  0.02660  1.0000 -0.1506694495
C   C59       1.0  0.91300  0.46470  0.32800  1.0000 -0.1214880957
C   C60       1.0  0.05050  0.35940  0.89570  1.0000 0.5426984862
C   C61       1.0  0.10540  0.46500  0.16930  1.0000 -0.1214880957
C   C62       1.0  0.68310  0.67880  0.38380  1.0000 0.0704290108
C   C63       1.0  0.01110  0.37290  0.04620  1.0000 -0.110692591
C   C64       1.0  0.24740  0.61480  0.21750  1.0000 -0.1787404022
C   C65       1.0  0.73290  0.57550  0.25890  1.0000 -0.1787404022
C   C66       1.0  0.98290  0.40000  0.35990  1.0000 -0.095221167
C   C67       1.0  0.32410  0.67330  0.24610  1.0000 0.1003992655
C   C68       1.0  0.75620  0.61850  0.41410  1.0000 -0.1908302321
C   C69       1.0  0.66020  0.63830  0.23390  1.0000 0.0704290108
C   C70       1.0  0.40100  0.61440  0.14650  1.0000 0.0615102597
C   C71       1.0  0.02870  0.40790  0.13420  1.0000 -0.0918337475
C   C72       1.0  0.32860  0.55320  0.11520  1.0000 -0.199533952
C   C73       1.0  0.64520  0.99300  0.61690  1.0000 0.054384964
C   C74       1.0  0.71960  0.06160  0.64810  1.0000 0.1305613615
C   C75       1.0  0.54450  0.85300  0.40310  1.0000 0.5339433388
C   C76       1.0  0.55950  0.89010  0.49770  1.0000 -0.0235356786
C   C77       1.0  0.62990  0.95500  0.53030  1.0000 -0.1424441576
C   C78       1.0  0.43000  0.89560  0.00790  1.0000 -0.0112762865
C   C79       1.0  0.33360  0.98900  0.88480  1.0000 0.0615102597
C   C80       1.0  0.25300  0.05270  0.85040  1.0000 0.1305613615
C   C81       1.0  0.50380  0.86210  0.55350  1.0000 -0.110692591
C   C82       1.0  0.35300  0.95370  0.97340  1.0000 -0.1506694495
C   C83       1.0  0.58700  0.96470  0.67200  1.0000 -0.1214880957
C   C84       1.0  0.44950  0.85940  0.10430  1.0000 0.5426984862
C   C85       1.0  0.39460  0.96500  0.83070  1.0000 -0.1214880957
C   C86       1.0  0.81690  0.17880  0.61620  1.0000 0.0704290108
C   C87       1.0  0.48890  0.87290  0.95380  1.0000 -0.110692591
C   C88       1.0  0.25260  0.11480  0.78250  1.0000 -0.1787404022
C   C89       1.0  0.76710  0.07550  0.74110  1.0000 -0.1787404022
C   C90       1.0  0.51710  0.90000  0.64010  1.0000 -0.095221167
C   C91       1.0  0.17590  0.17330  0.75390  1.0000 0.1003992655
C   C92       1.0  0.74380  0.11850  0.58590  1.0000 -0.1908302321
C   C93       1.0  0.83980  0.13830  0.76610  1.0000 0.0704290108
C   C94       1.0  0.09900  0.11440  0.85350  1.0000 0.0615102597
C   C95       1.0  0.47130  0.90790  0.86580  1.0000 -0.0918337475
C   C96       1.0  0.17140  0.05320  0.88480  1.0000 -0.199533952
N   N1        1.0  0.60080  0.32500  0.78905  1.0000 -0.2281896188
N   N2        1.0  0.36890  0.31190  0.70530  1.0000 -0.2396920934
N   N3        1.0  0.89920  0.82500  0.21095  1.0000 -0.2281896188
N   N4        1.0  0.13110  0.81190  0.29470  1.0000 -0.2396920934
N   N5        1.0  0.39920  0.67500  0.21095  1.0000 -0.2281896188
N   N6        1.0  0.63110  0.68810  0.29470  1.0000 -0.2396920934
N   N7        1.0  0.10080  0.17500  0.78905  1.0000 -0.2281896188
N   N8        1.0  0.86890  0.18810  0.70530  1.0000 -0.2396920934
O   O1        1.0  0.02195  0.69249  0.13178  1.0000 -0.5476640328
O   O2        1.0  0.09260  0.61970  0.35210  1.0000 -0.5399449184
O   O3        1.0  0.98168  0.70819  0.37726  1.0000 -0.5399449184
O   O4        1.0  0.89590  0.62090  0.15253  1.0000 -0.5476640328
O   O5        1.0  0.47805  0.19249  0.86822  1.0000 -0.5476640328
O   O6        1.0  0.40740  0.11970  0.64790  1.0000 -0.5399449184
O   O7        1.0  0.51832  0.20819  0.62274  1.0000 -0.5399449184
O   O8        1.0  0.60410  0.12090  0.84747  1.0000 -0.5476640328
O   O9        1.0  0.97805  0.30751  0.86822  1.0000 -0.5476640328
O   O10       1.0  0.90740  0.38030  0.64790  1.0000 -0.5399449184
O   O11       1.0  0.01832  0.29181  0.62274  1.0000 -0.5399449184
O   O12       1.0  0.10410  0.37910  0.84747  1.0000 -0.5476640328
O   O13       1.0  0.52195  0.80751  0.13178  1.0000 -0.5476640328
O   O14       1.0  0.59260  0.88030  0.35210  1.0000 -0.5399449184
O   O15       1.0  0.48168  0.79181  0.37726  1.0000 -0.5399449184
O   O16       1.0  0.39590  0.87910  0.15253  1.0000 -0.5476640328
