# DDEC6 charges by PACMAN v1.1 (https://github.com/mtap-research/PACMAN-charge/)
data_2017[V][nan]3[FSR]2
_chemical_formula_sum              "V4 H16 C32 O20"
_cell_length_a       12.2966
_cell_length_b       12.2966
_cell_length_c       12.2966
_cell_angle_alpha    103.885
_cell_angle_beta     103.885
_cell_angle_gamma    121.336

_symmetry_space_group_name_H-M    "P 1"
_symmetry_Int_Tables_number       1

loop_
  _symmetry_equiv_pos_as_xyz
  'x, y, z'

loop_
  _atom_site_type_symbol
  _atom_site_label
  _atom_site_symmetry_multiplicity
  _atom_site_fract_x
  _atom_site_fract_y
  _atom_site_fract_z
  _atom_site_occupancy
  _atom_site_charge
V   V1        1.0  0.18671  0.81329  0.00000  1.0000 1.6976119337
V   V2        1.0  0.43671  0.93671  0.87342  1.0000 1.6976119337
V   V3        1.0  0.81329  0.18671  0.00000  1.0000 1.6976119337
V   V4        1.0  0.06329  0.56329  0.12658  1.0000 1.6976119337
H   H1        1.0  0.44760  0.87500  0.07260  1.0000 0.4221450148
H   H2        1.0  0.62500  0.19760  0.07260  1.0000 0.4221450148
H   H3        1.0  0.80240  0.37500  0.92740  1.0000 0.4221450148
H   H4        1.0  0.12500  0.55240  0.92740  1.0000 0.4221450148
H   H5        1.0  0.11810  0.11810  0.00000  1.0000 0.144256862
H   H6        1.0  0.36810  0.86810  0.50000  1.0000 0.144256862
H   H7        1.0  0.13190  0.63190  0.50000  1.0000 0.144256862
H   H8        1.0  0.88190  0.88190  0.00000  1.0000 0.144256862
H   H9        1.0  0.49320  0.30210  0.95150  1.0000 0.1192014666
H   H10       1.0  0.79170  0.24320  0.69110  1.0000 0.1192014666
H   H11       1.0  0.35060  0.54170  0.04850  1.0000 0.1192014666
H   H12       1.0  0.55210  0.10060  0.30890  1.0000 0.1192014666
H   H13       1.0  0.89940  0.44790  0.69110  1.0000 0.1192014666
H   H14       1.0  0.45830  0.64940  0.95150  1.0000 0.1192014666
H   H15       1.0  0.75680  0.20830  0.30890  1.0000 0.1192014666
H   H16       1.0  0.69790  0.50680  0.04850  1.0000 0.1192014666
C   C1        1.0  0.29060  0.06560  0.95140  1.0000 0.6202834604
C   C2        1.0  0.58920  0.04060  0.72500  1.0000 0.6202834604
C   C3        1.0  0.11420  0.33920  0.04860  1.0000 0.6202834604
C   C4        1.0  0.31560  0.86420  0.27500  1.0000 0.6202834604
C   C5        1.0  0.13580  0.68440  0.72500  1.0000 0.6202834604
C   C6        1.0  0.66080  0.88580  0.95140  1.0000 0.6202834604
C   C7        1.0  0.95940  0.41080  0.27500  1.0000 0.6202834604
C   C8        1.0  0.93440  0.70940  0.04860  1.0000 0.6202834604
C   C9        1.0  0.30342  0.19374  0.97216  1.0000 -0.0536875924
C   C10       1.0  0.58126  0.05342  0.60968  1.0000 -0.0536875924
C   C11       1.0  0.22158  0.33126  0.02784  1.0000 -0.0536875924
C   C12       1.0  0.44374  0.97158  0.39032  1.0000 -0.0536875924
C   C13       1.0  0.02842  0.55626  0.60968  1.0000 -0.0536875924
C   C14       1.0  0.66874  0.77842  0.97216  1.0000 -0.0536875924
C   C15       1.0  0.94658  0.41874  0.39032  1.0000 -0.0536875924
C   C16       1.0  0.80626  0.69658  0.02784  1.0000 -0.0536875924
C   C17       1.0  0.20440  0.20440  0.00000  1.0000 -0.0784174891
C   C18       1.0  0.45440  0.95440  0.50000  1.0000 -0.0784174891
C   C19       1.0  0.04560  0.54560  0.50000  1.0000 -0.0784174891
C   C20       1.0  0.79560  0.79560  0.00000  1.0000 -0.0784174891
C   C21       1.0  0.41972  0.31004  0.97216  1.0000 -0.1322395968
C   C22       1.0  0.69756  0.16972  0.60968  1.0000 -0.1322395968
C   C23       1.0  0.33788  0.44756  0.02784  1.0000 -0.1322395968
C   C24       1.0  0.56004  0.08788  0.39032  1.0000 -0.1322395968
C   C25       1.0  0.91212  0.43996  0.60968  1.0000 -0.1322395968
C   C26       1.0  0.55244  0.66212  0.97216  1.0000 -0.1322395968
C   C27       1.0  0.83028  0.30244  0.39032  1.0000 -0.1322395968
C   C28       1.0  0.68996  0.58028  0.02784  1.0000 -0.1322395968
C   C29       1.0  0.43690  0.43690  0.00000  1.0000 0.0778553916
C   C30       1.0  0.68690  0.18690  0.50000  1.0000 0.0778553916
C   C31       1.0  0.81310  0.31310  0.50000  1.0000 0.0778553916
C   C32       1.0  0.56310  0.56310  0.00000  1.0000 0.0778553916
O   O1        1.0  0.37640  0.87500  0.00140  1.0000 -0.9998140278
O   O2        1.0  0.62500  0.12640  0.00140  1.0000 -0.9998140278
O   O3        1.0  0.87360  0.37500  0.99860  1.0000 -0.9998140278
O   O4        1.0  0.12500  0.62360  0.99860  1.0000 -0.9998140278
O   O5        1.0  0.22680  0.98910  0.00030  1.0000 -0.5825288685
O   O6        1.0  0.47650  0.97680  0.73770  1.0000 -0.5825288685
O   O7        1.0  0.98880  0.22650  0.99970  1.0000 -0.5825288685
O   O8        1.0  0.23910  0.73880  0.26230  1.0000 -0.5825288685
O   O9        1.0  0.26120  0.76090  0.73770  1.0000 -0.5825288685
O   O10       1.0  0.77350  0.01120  0.00030  1.0000 -0.5825288685
O   O11       1.0  0.02320  0.52350  0.26230  1.0000 -0.5825288685
O   O12       1.0  0.01090  0.77320  0.99970  1.0000 -0.5825288685
O   O13       1.0  0.34380  0.03530  0.88510  1.0000 -0.602847712
O   O14       1.0  0.70870  0.09380  0.80850  1.0000 -0.602847712
O   O15       1.0  0.15020  0.45870  0.11490  1.0000 -0.602847712
O   O16       1.0  0.28530  0.90020  0.19150  1.0000 -0.602847712
O   O17       1.0  0.09980  0.71470  0.80850  1.0000 -0.602847712
O   O18       1.0  0.54130  0.84980  0.88510  1.0000 -0.602847712
O   O19       1.0  0.90620  0.29130  0.19150  1.0000 -0.602847712
O   O20       1.0  0.96470  0.65620  0.11490  1.0000 -0.602847712
