# DDEC6 charges by PACMAN v1.1 (https://github.com/mtap-research/PACMAN-charge/)
data_2017[Ag][hcb]2[FSR]7
_chemical_formula_sum              "Ag6 H126 C168 S6 N18 O54 F18"
_cell_length_a       16.9367
_cell_length_b       17.5999
_cell_length_c       19.8024
_cell_angle_alpha    93.994
_cell_angle_beta     97.679
_cell_angle_gamma    118.114

_symmetry_space_group_name_H-M    "P 1"
_symmetry_Int_Tables_number       1

loop_
  _symmetry_equiv_pos_as_xyz
  'x, y, z'

loop_
  _atom_site_type_symbol
  _atom_site_label
  _atom_site_symmetry_multiplicity
  _atom_site_fract_x
  _atom_site_fract_y
  _atom_site_fract_z
  _atom_site_occupancy
  _atom_site_charge
Ag  Ag1       1.0  0.81303  0.83106  0.05854  1.0000 0.3042685631
Ag  Ag2       1.0  0.77761  0.50330  0.35300  1.0000 0.2917159888
Ag  Ag3       1.0  0.21870  0.85954  0.27247  1.0000 0.2917159888
Ag  Ag4       1.0  0.18697  0.16894  0.94146  1.0000 0.3042685631
Ag  Ag5       1.0  0.22239  0.49670  0.64700  1.0000 0.2917159888
Ag  Ag6       1.0  0.78130  0.14046  0.72753  1.0000 0.2917159888
H   H1        1.0  0.87100  0.68430  0.06280  1.0000 0.100949504
H   H2        1.0  0.99440  0.66080  0.07770  1.0000 0.1311660017
H   H3        1.0  0.15970  0.92130  0.09690  1.0000 0.1383362393
H   H4        1.0  0.03090  0.93710  0.07870  1.0000 0.1096311755
H   H5        1.0  0.25430  0.69210  0.04640  1.0000 0.119499146
H   H6        1.0  0.27430  0.71030  0.12910  1.0000 0.1096311755
H   H7        1.0  0.69930  0.93380  0.03870  1.0000 0.1096311755
H   H8        1.0  0.71710  0.07230  0.04060  1.0000 0.1383362393
H   H9        1.0  0.98840  0.16870  0.10210  1.0000 0.1311660017
H   H10       1.0  0.96240  0.02690  0.09970  1.0000 0.1096311755
H   H11       1.0  0.93510  0.37810  0.04230  1.0000 0.1096311755
H   H12       1.0  0.95090  0.39350  0.12490  1.0000 0.1096311755
H   H13       1.0  0.60640  0.71170  0.99960  1.0000 0.119499146
H   H14       1.0  0.47370  0.59800  0.01960  1.0000 0.1311660017
H   H15       1.0  0.62530  0.55100  0.16870  1.0000 0.1383362393
H   H16       1.0  0.75370  0.66880  0.14640  1.0000 0.100949504
H   H17       1.0  0.26810  0.37230  0.07420  1.0000 0.1096311755
H   H18       1.0  0.30340  0.41840  0.15320  1.0000 0.1096311755
H   H19       1.0  0.31690  0.58970  0.09900  1.0000 0.119499146
H   H20       1.0  0.05710  0.54210  0.08260  1.0000 0.119499146
H   H21       1.0  0.11410  0.34450  0.09400  1.0000 0.119499146
H   H22       1.0  0.99220  0.60900  0.39150  1.0000 0.1096311755
H   H23       1.0  0.12070  0.59620  0.42500  1.0000 0.1383362393
H   H24       1.0  0.95660  0.33800  0.41820  1.0000 0.1311660017
H   H25       1.0  0.83240  0.35920  0.39140  1.0000 0.1096311755
H   H26       1.0  0.23540  0.38640  0.41560  1.0000 0.119499146
H   H27       1.0  0.23290  0.38690  0.49630  1.0000 0.1096311755
H   H28       1.0  0.65990  0.40160  0.45780  1.0000 0.1096311755
H   H29       1.0  0.51810  0.29140  0.46730  1.0000 0.1383362393
H   H30       1.0  0.44390  0.25580  0.26030  1.0000 0.1383362393
H   H31       1.0  0.58650  0.36930  0.25720  1.0000 0.119499146
H   H32       1.0  0.24710  0.06400  0.40340  1.0000 0.119499146
H   H33       1.0  0.27500  0.09530  0.48490  1.0000 0.119499146
H   H34       1.0  0.67320  0.61200  0.33940  1.0000 0.1096311755
H   H35       1.0  0.69060  0.75020  0.35750  1.0000 0.1383362393
H   H36       1.0  0.96210  0.84440  0.41280  1.0000 0.1311660017
H   H37       1.0  0.93660  0.70240  0.39670  1.0000 0.1096311755
H   H38       1.0  0.90930  0.06320  0.38270  1.0000 0.100949504
H   H39       1.0  0.92570  0.06140  0.46410  1.0000 0.119499146
H   H40       1.0  0.09140  0.02630  0.42350  1.0000 0.1311660017
H   H41       1.0  0.29050  0.27710  0.44670  1.0000 0.119499146
H   H42       1.0  0.02760  0.22080  0.42980  1.0000 0.119499146
H   H43       1.0  0.16410  0.00950  0.26490  1.0000 0.1096311755
H   H44       1.0  0.04120  0.03370  0.25600  1.0000 0.1311660017
H   H45       1.0  0.87640  0.77300  0.23510  1.0000 0.1311660017
H   H46       1.0  0.00420  0.75700  0.24860  1.0000 0.1096311755
H   H47       1.0  0.76070  0.98180  0.20110  1.0000 0.1096311755
H   H48       1.0  0.77310  0.99380  0.28360  1.0000 0.119499146
H   H49       1.0  0.32880  0.75660  0.28230  1.0000 0.1096311755
H   H50       1.0  0.31410  0.62080  0.28970  1.0000 0.1383362393
H   H51       1.0  0.04090  0.52020  0.24720  1.0000 0.1383362393
H   H52       1.0  0.06320  0.65970  0.24170  1.0000 0.1096311755
H   H53       1.0  0.08400  0.30230  0.22520  1.0000 0.1096311755
H   H54       1.0  0.09390  0.31220  0.30750  1.0000 0.100949504
H   H55       1.0  0.40170  0.98590  0.37480  1.0000 0.119499146
H   H56       1.0  0.54740  0.10010  0.38060  1.0000 0.1311660017
H   H57       1.0  0.48220  0.10090  0.17700  1.0000 0.1383362393
H   H58       1.0  0.33680  0.98930  0.17760  1.0000 0.1096311755
H   H59       1.0  0.73990  0.27850  0.17140  1.0000 0.119499146
H   H60       1.0  0.75620  0.31390  0.25140  1.0000 0.1096311755
H   H61       1.0  0.71260  0.09930  0.22590  1.0000 0.119499146
H   H62       1.0  0.97430  0.15080  0.26760  1.0000 0.119499146
H   H63       1.0  0.91690  0.34680  0.24440  1.0000 0.1311660017
H   H64       1.0  0.12900  0.31570  0.93720  1.0000 0.100949504
H   H65       1.0  0.00560  0.33920  0.92230  1.0000 0.1311660017
H   H66       1.0  0.84030  0.07870  0.90310  1.0000 0.1383362393
H   H67       1.0  0.96910  0.06290  0.92130  1.0000 0.1096311755
H   H68       1.0  0.74570  0.30790  0.95360  1.0000 0.119499146
H   H69       1.0  0.72570  0.28970  0.87090  1.0000 0.1096311755
H   H70       1.0  0.30070  0.06620  0.96130  1.0000 0.1096311755
H   H71       1.0  0.28290  0.92770  0.95940  1.0000 0.1383362393
H   H72       1.0  0.01160  0.83130  0.89790  1.0000 0.1311660017
H   H73       1.0  0.03760  0.97310  0.90030  1.0000 0.1096311755
H   H74       1.0  0.06490  0.62190  0.95770  1.0000 0.1096311755
H   H75       1.0  0.04910  0.60650  0.87510  1.0000 0.1096311755
H   H76       1.0  0.39360  0.28830  0.00040  1.0000 0.119499146
H   H77       1.0  0.52630  0.40200  0.98040  1.0000 0.1311660017
H   H78       1.0  0.37470  0.44900  0.83130  1.0000 0.1383362393
H   H79       1.0  0.24630  0.33120  0.85360  1.0000 0.100949504
H   H80       1.0  0.73190  0.62770  0.92580  1.0000 0.1096311755
H   H81       1.0  0.69660  0.58160  0.84680  1.0000 0.1096311755
H   H82       1.0  0.68310  0.41030  0.90100  1.0000 0.119499146
H   H83       1.0  0.94290  0.45790  0.91740  1.0000 0.119499146
H   H84       1.0  0.88590  0.65550  0.90600  1.0000 0.119499146
H   H85       1.0  0.00780  0.39100  0.60850  1.0000 0.1096311755
H   H86       1.0  0.87930  0.40380  0.57500  1.0000 0.1383362393
H   H87       1.0  0.04340  0.66200  0.58180  1.0000 0.1311660017
H   H88       1.0  0.16760  0.64080  0.60860  1.0000 0.1096311755
H   H89       1.0  0.76460  0.61360  0.58440  1.0000 0.119499146
H   H90       1.0  0.76710  0.61310  0.50370  1.0000 0.1096311755
H   H91       1.0  0.34010  0.59840  0.54220  1.0000 0.1096311755
H   H92       1.0  0.48190  0.70860  0.53270  1.0000 0.1383362393
H   H93       1.0  0.55610  0.74420  0.73970  1.0000 0.1383362393
H   H94       1.0  0.41350  0.63070  0.74280  1.0000 0.119499146
H   H95       1.0  0.75290  0.93600  0.59660  1.0000 0.119499146
H   H96       1.0  0.72500  0.90470  0.51510  1.0000 0.119499146
H   H97       1.0  0.32680  0.38800  0.66060  1.0000 0.1096311755
H   H98       1.0  0.30940  0.24980  0.64250  1.0000 0.1383362393
H   H99       1.0  0.03790  0.15560  0.58720  1.0000 0.1311660017
H   H100      1.0  0.06340  0.29760  0.60330  1.0000 0.1096311755
H   H101      1.0  0.09070  0.93680  0.61730  1.0000 0.100949504
H   H102      1.0  0.07430  0.93860  0.53590  1.0000 0.119499146
H   H103      1.0  0.90860  0.97370  0.57650  1.0000 0.1311660017
H   H104      1.0  0.70950  0.72290  0.55330  1.0000 0.119499146
H   H105      1.0  0.97240  0.77920  0.57020  1.0000 0.119499146
H   H106      1.0  0.83590  0.99050  0.73510  1.0000 0.1096311755
H   H107      1.0  0.95880  0.96630  0.74400  1.0000 0.1311660017
H   H108      1.0  0.12360  0.22700  0.76490  1.0000 0.1311660017
H   H109      1.0  0.99580  0.24300  0.75140  1.0000 0.1096311755
H   H110      1.0  0.23930  0.01820  0.79890  1.0000 0.1096311755
H   H111      1.0  0.22690  0.00620  0.71640  1.0000 0.119499146
H   H112      1.0  0.67120  0.24340  0.71770  1.0000 0.1096311755
H   H113      1.0  0.68590  0.37920  0.71030  1.0000 0.1383362393
H   H114      1.0  0.95910  0.47980  0.75280  1.0000 0.1383362393
H   H115      1.0  0.93680  0.34030  0.75830  1.0000 0.1096311755
H   H116      1.0  0.91600  0.69770  0.77480  1.0000 0.1096311755
H   H117      1.0  0.90610  0.68780  0.69250  1.0000 0.100949504
H   H118      1.0  0.59830  0.01410  0.62520  1.0000 0.119499146
H   H119      1.0  0.45260  0.89990  0.61940  1.0000 0.1311660017
H   H120      1.0  0.51780  0.89910  0.82300  1.0000 0.1383362393
H   H121      1.0  0.66320  0.01070  0.82240  1.0000 0.1096311755
H   H122      1.0  0.26010  0.72150  0.82860  1.0000 0.119499146
H   H123      1.0  0.24380  0.68610  0.74860  1.0000 0.1096311755
H   H124      1.0  0.28740  0.90070  0.77410  1.0000 0.119499146
H   H125      1.0  0.02570  0.84920  0.73240  1.0000 0.119499146
H   H126      1.0  0.08310  0.65320  0.75560  1.0000 0.1311660017
C   C1        1.0  0.93050  0.73300  0.06910  1.0000 0.079889382
C   C2        1.0  0.00360  0.71840  0.07830  1.0000 -0.1609016192
C   C3        1.0  0.09120  0.78870  0.08850  1.0000 -0.0029220959
C   C4        1.0  0.10080  0.87150  0.08930  1.0000 -0.1499946181
C   C5        1.0  0.02380  0.88030  0.07880  1.0000 0.079889382
C   C6        1.0  0.17470  0.77850  0.09620  1.0000 0.491395587
C   C7        1.0  0.22680  0.67590  0.08780  1.0000 -0.0783575181
C   C8        1.0  0.75880  0.98230  0.05210  1.0000 0.069985885
C   C9        1.0  0.76870  0.06450  0.05320  1.0000 -0.1499946181
C   C10       1.0  0.85530  0.13600  0.07290  1.0000 -0.0029220959
C   C11       1.0  0.92810  0.12120  0.08950  1.0000 -0.1499946181
C   C12       1.0  0.91190  0.03640  0.08740  1.0000 0.079889382
C   C13       1.0  0.86540  0.22480  0.07310  1.0000 0.491395587
C   C14       1.0  0.97040  0.37480  0.08500  1.0000 -0.071954978
C   C15       1.0  0.60990  0.67980  0.03550  1.0000 0.0863025156
C   C16       1.0  0.53080  0.61160  0.04650  1.0000 -0.1609016192
C   C17       1.0  0.53540  0.56270  0.09750  1.0000 0.0081877214
C   C18       1.0  0.61960  0.58410  0.13440  1.0000 -0.1499946181
C   C19       1.0  0.69570  0.65440  0.12070  1.0000 0.079889382
C   C20       1.0  0.45160  0.48820  0.11330  1.0000 0.4988300147
C   C21       1.0  0.29280  0.42840  0.10510  1.0000 -0.071954978
C   C22       1.0  0.22570  0.46230  0.09660  1.0000 0.1096311755
C   C23       1.0  0.25390  0.54990  0.09560  1.0000 -0.2097935502
C   C24       1.0  0.19110  0.58020  0.08960  1.0000 0.100949504
C   C25       1.0  0.10030  0.52190  0.08630  1.0000 -0.2097935502
C   C26       1.0  0.07090  0.43390  0.08820  1.0000 0.1096311755
C   C27       1.0  0.13380  0.40460  0.09300  1.0000 -0.2097935502
C   C28       1.0  0.78370  0.78730  0.81490  1.0000 0.491395587
C   C29       1.0  0.98510  0.55340  0.39820  1.0000 0.069985885
C   C30       1.0  0.06190  0.54620  0.41700  1.0000 -0.1499946181
C   C31       1.0  0.05230  0.46470  0.42430  1.0000 0.0081877214
C   C32       1.0  0.96550  0.39480  0.41390  1.0000 -0.1672272106
C   C33       1.0  0.89180  0.40770  0.39720  1.0000 0.079889382
C   C34       1.0  0.13670  0.45730  0.44110  1.0000 0.491395587
C   C35       1.0  0.19630  0.35960  0.44950  1.0000 -0.0783575181
C   C36       1.0  0.61480  0.37210  0.41720  1.0000 0.0647869798
C   C37       1.0  0.53080  0.30590  0.42320  1.0000 -0.1609016192
C   C38       1.0  0.46550  0.26120  0.36490  1.0000 0.0032145531
C   C39       1.0  0.48700  0.28530  0.30180  1.0000 -0.1499946181
C   C40       1.0  0.57230  0.35290  0.30060  1.0000 0.0863025156
C   C41       1.0  0.37280  0.18770  0.36670  1.0000 0.4988300147
C   C42       1.0  0.26960  0.11490  0.43970  1.0000 -0.071954978
C   C43       1.0  0.73270  0.65980  0.35550  1.0000 0.0647869798
C   C44       1.0  0.74230  0.74190  0.36550  1.0000 -0.1499946181
C   C45       1.0  0.82870  0.81240  0.38750  1.0000 0.0032145531
C   C46       1.0  0.90180  0.79730  0.39850  1.0000 -0.1499946181
C   C47       1.0  0.88590  0.71240  0.38830  1.0000 0.069985885
C   C48       1.0  0.83990  0.90240  0.39790  1.0000 0.491395587
C   C49       1.0  0.94490  0.05190  0.42060  1.0000 -0.0783575181
C   C50       1.0  0.04440  0.11340  0.42600  1.0000 0.1096311755
C   C51       1.0  0.10960  0.08670  0.42760  1.0000 -0.2097935502
C   C52       1.0  0.20160  0.14760  0.43530  1.0000 0.1096311755
C   C53       1.0  0.22780  0.23540  0.44160  1.0000 -0.2181444791
C   C54       1.0  0.16310  0.26330  0.44040  1.0000 0.1096311755
C   C55       1.0  0.07200  0.20210  0.43180  1.0000 -0.2181444791
C   C56       1.0  0.78970  0.47610  0.10240  1.0000 0.491395587
C   C57       1.0  0.10460  0.96100  0.25940  1.0000 0.079889382
C   C58       1.0  0.03180  0.97580  0.25350  1.0000 -0.1609016192
C   C59       1.0  0.94420  0.90570  0.24380  1.0000 -0.0095295994
C   C60       1.0  0.93510  0.82290  0.24170  1.0000 -0.1499946181
C   C61       1.0  0.01140  0.81400  0.24940  1.0000 0.079889382
C   C62       1.0  0.86110  0.91470  0.23750  1.0000 0.4812424424
C   C63       1.0  0.80470  0.01410  0.24460  1.0000 -0.0783575181
C   C64       1.0  0.26930  0.70780  0.27530  1.0000 0.069985885
C   C65       1.0  0.26130  0.62720  0.27970  1.0000 -0.1499946181
C   C66       1.0  0.17540  0.55540  0.26930  1.0000 0.0032145531
C   C67       1.0  0.10090  0.56810  0.25480  1.0000 -0.1499946181
C   C68       1.0  0.11490  0.65160  0.25160  1.0000 0.079889382
C   C69       1.0  0.16610  0.46710  0.27250  1.0000 0.491395587
C   C70       1.0  0.06150  0.31820  0.26450  1.0000 -0.071954978
C   C71       1.0  0.41860  0.00930  0.33400  1.0000 0.079889382
C   C72       1.0  0.50550  0.07730  0.33790  1.0000 -0.1609016192
C   C73       1.0  0.53100  0.11190  0.27900  1.0000 -0.0095295994
C   C74       1.0  0.46710  0.07820  0.21840  1.0000 -0.1499946181
C   C75       1.0  0.38110  0.01100  0.21900  1.0000 0.100949504
C   C76       1.0  0.62530  0.18480  0.28330  1.0000 0.491395587
C   C77       1.0  0.73770  0.26140  0.21790  1.0000 -0.071954978
C   C78       1.0  0.80390  0.22750  0.23420  1.0000 0.119499146
C   C79       1.0  0.77590  0.14010  0.23430  1.0000 -0.2181444791
C   C80       1.0  0.83950  0.11090  0.24670  1.0000 0.1096311755
C   C81       1.0  0.93080  0.17010  0.25830  1.0000 -0.2181444791
C   C82       1.0  0.96030  0.25890  0.25670  1.0000 0.1096311755
C   C83       1.0  0.89710  0.28670  0.24510  1.0000 -0.2007474658
C   C84       1.0  0.20900  0.83610  0.51980  1.0000 0.491395587
C   C85       1.0  0.06950  0.26700  0.93090  1.0000 0.079889382
C   C86       1.0  0.99640  0.28160  0.92170  1.0000 -0.1609016192
C   C87       1.0  0.90880  0.21130  0.91150  1.0000 -0.0029220959
C   C88       1.0  0.89920  0.12850  0.91070  1.0000 -0.1499946181
C   C89       1.0  0.97620  0.11970  0.92120  1.0000 0.079889382
C   C90       1.0  0.82530  0.22150  0.90380  1.0000 0.491395587
C   C91       1.0  0.77320  0.32410  0.91220  1.0000 -0.071954978
C   C92       1.0  0.24120  0.01770  0.94790  1.0000 0.069985885
C   C93       1.0  0.23130  0.93550  0.94680  1.0000 -0.1499946181
C   C94       1.0  0.14470  0.86400  0.92710  1.0000 -0.0029220959
C   C95       1.0  0.07190  0.87880  0.91050  1.0000 -0.1499946181
C   C96       1.0  0.08810  0.96360  0.91260  1.0000 0.079889382
C   C97       1.0  0.13460  0.77520  0.92690  1.0000 0.491395587
C   C98       1.0  0.02960  0.62520  0.91500  1.0000 -0.071954978
C   C99       1.0  0.39010  0.32020  0.96450  1.0000 0.079889382
C   C100      1.0  0.46920  0.38840  0.95350  1.0000 -0.1609016192
C   C101      1.0  0.46460  0.43730  0.90250  1.0000 0.0081877214
C   C102      1.0  0.38040  0.41590  0.86560  1.0000 -0.1499946181
C   C103      1.0  0.30430  0.34560  0.87930  1.0000 0.079889382
C   C104      1.0  0.54840  0.51180  0.88670  1.0000 0.4988300147
C   C105      1.0  0.70720  0.57160  0.89490  1.0000 -0.071954978
C   C106      1.0  0.77430  0.53770  0.90340  1.0000 0.1096311755
C   C107      1.0  0.74610  0.45010  0.90440  1.0000 -0.2097935502
C   C108      1.0  0.80890  0.41980  0.91040  1.0000 0.100949504
C   C109      1.0  0.89970  0.47810  0.91370  1.0000 -0.2097935502
C   C110      1.0  0.92910  0.56610  0.91180  1.0000 0.1096311755
C   C111      1.0  0.86620  0.59540  0.90700  1.0000 -0.2097935502
C   C112      1.0  0.21630  0.21270  0.18510  1.0000 0.491395587
C   C113      1.0  0.01490  0.44660  0.60180  1.0000 0.069985885
C   C114      1.0  0.93810  0.45380  0.58300  1.0000 -0.1499946181
C   C115      1.0  0.94770  0.53530  0.57570  1.0000 0.0081877214
C   C116      1.0  0.03450  0.60520  0.58610  1.0000 -0.1672272106
C   C117      1.0  0.10820  0.59230  0.60280  1.0000 0.079889382
C   C118      1.0  0.86330  0.54270  0.55890  1.0000 0.491395587
C   C119      1.0  0.80370  0.64040  0.55050  1.0000 -0.0783575181
C   C120      1.0  0.38520  0.62790  0.58280  1.0000 0.0647869798
C   C121      1.0  0.46920  0.69410  0.57680  1.0000 -0.1609016192
C   C122      1.0  0.53450  0.73880  0.63510  1.0000 0.0032145531
C   C123      1.0  0.51300  0.71470  0.69820  1.0000 -0.1499946181
C   C124      1.0  0.42770  0.64710  0.69940  1.0000 0.0863025156
C   C125      1.0  0.62720  0.81230  0.63330  1.0000 0.4988300147
C   C126      1.0  0.73040  0.88510  0.56030  1.0000 -0.071954978
C   C127      1.0  0.26730  0.34020  0.64450  1.0000 0.0647869798
C   C128      1.0  0.25770  0.25810  0.63450  1.0000 -0.1499946181
C   C129      1.0  0.17130  0.18760  0.61250  1.0000 0.0032145531
C   C130      1.0  0.09820  0.20270  0.60150  1.0000 -0.1444640514
C   C131      1.0  0.11410  0.28760  0.61170  1.0000 0.069985885
C   C132      1.0  0.16010  0.09760  0.60210  1.0000 0.491395587
C   C133      1.0  0.05510  0.94810  0.57940  1.0000 -0.0783575181
C   C134      1.0  0.95560  0.88660  0.57400  1.0000 0.1096311755
C   C135      1.0  0.89040  0.91330  0.57240  1.0000 -0.2097935502
C   C136      1.0  0.79840  0.85240  0.56470  1.0000 0.1096311755
C   C137      1.0  0.77220  0.76460  0.55840  1.0000 -0.2181444791
C   C138      1.0  0.83690  0.73670  0.55960  1.0000 0.1096311755
C   C139      1.0  0.92800  0.79790  0.56820  1.0000 -0.2181444791
C   C140      1.0  0.21030  0.52390  0.89760  1.0000 0.491395587
C   C141      1.0  0.89540  0.03900  0.74060  1.0000 0.079889382
C   C142      1.0  0.96820  0.02420  0.74650  1.0000 -0.1609016192
C   C143      1.0  0.05580  0.09430  0.75620  1.0000 -0.0095295994
C   C144      1.0  0.06490  0.17710  0.75830  1.0000 -0.1499946181
C   C145      1.0  0.98860  0.18600  0.75060  1.0000 0.079889382
C   C146      1.0  0.13890  0.08530  0.76250  1.0000 0.4812424424
C   C147      1.0  0.19530  0.98590  0.75540  1.0000 -0.0783575181
C   C148      1.0  0.73070  0.29220  0.72470  1.0000 0.069985885
C   C149      1.0  0.73870  0.37280  0.72030  1.0000 -0.1499946181
C   C150      1.0  0.82460  0.44460  0.73070  1.0000 0.0032145531
C   C151      1.0  0.89910  0.43190  0.74520  1.0000 -0.1499946181
C   C152      1.0  0.88510  0.34840  0.74840  1.0000 0.079889382
C   C153      1.0  0.83390  0.53290  0.72750  1.0000 0.491395587
C   C154      1.0  0.93850  0.68180  0.73550  1.0000 -0.071954978
C   C155      1.0  0.58140  0.99070  0.66600  1.0000 0.079889382
C   C156      1.0  0.49450  0.92270  0.66210  1.0000 -0.1609016192
C   C157      1.0  0.46900  0.88810  0.72100  1.0000 -0.0095295994
C   C158      1.0  0.53290  0.92180  0.78160  1.0000 -0.1499946181
C   C159      1.0  0.61890  0.98900  0.78100  1.0000 0.100949504
C   C160      1.0  0.37470  0.81520  0.71670  1.0000 0.491395587
C   C161      1.0  0.26230  0.73860  0.78210  1.0000 -0.071954978
C   C162      1.0  0.19610  0.77250  0.76580  1.0000 0.119499146
C   C163      1.0  0.22410  0.85990  0.76570  1.0000 -0.2181444791
C   C164      1.0  0.16050  0.88910  0.75330  1.0000 0.1096311755
C   C165      1.0  0.06920  0.82990  0.74170  1.0000 -0.2181444791
C   C166      1.0  0.03970  0.74110  0.74330  1.0000 0.1096311755
C   C167      1.0  0.10290  0.71330  0.75490  1.0000 -0.2007474658
C   C168      1.0  0.79100  0.16390  0.48020  1.0000 0.491395587
S   S1        1.0  0.78468  0.85431  0.88787  1.0000 0.9827131274
S   S2        1.0  0.82538  0.51397  0.19430  1.0000 0.9601427558
S   S3        1.0  0.17047  0.84749  0.43323  1.0000 0.9717432203
S   S4        1.0  0.21532  0.14569  0.11213  1.0000 0.9827131274
S   S5        1.0  0.17462  0.48603  0.80570  1.0000 0.9601427558
S   S6        1.0  0.82953  0.15251  0.56677  1.0000 0.9717432203
N   N1        1.0  0.93900  0.81240  0.06859  1.0000 -0.2097935502
N   N2        1.0  0.82860  0.96680  0.06900  1.0000 -0.1893546676
N   N3        1.0  0.69170  0.70320  0.07310  1.0000 -0.1893546676
N   N4        1.0  0.90010  0.48550  0.38870  1.0000 -0.2007474658
N   N5        1.0  0.80270  0.64340  0.36730  1.0000 -0.2007474658
N   N6        1.0  0.63560  0.39640  0.35670  1.0000 -0.1893546676
N   N7        1.0  0.09570  0.88110  0.25781  1.0000 -0.1893546676
N   N8        1.0  0.19780  0.72150  0.26170  1.0000 -0.1893546676
N   N9        1.0  0.35750  0.97520  0.27560  1.0000 -0.1800315077
N   N10       1.0  0.06100  0.18760  0.93141  1.0000 -0.2097935502
N   N11       1.0  0.17140  0.03320  0.93100  1.0000 -0.1893546676
N   N12       1.0  0.30830  0.29680  0.92690  1.0000 -0.1893546676
N   N13       1.0  0.09990  0.51450  0.61130  1.0000 -0.2007474658
N   N14       1.0  0.19730  0.35660  0.63270  1.0000 -0.2007474658
N   N15       1.0  0.36440  0.60360  0.64330  1.0000 -0.1893546676
N   N16       1.0  0.90430  0.11890  0.74219  1.0000 -0.1893546676
N   N17       1.0  0.80220  0.27850  0.73830  1.0000 -0.1893546676
N   N18       1.0  0.64250  0.02480  0.72440  1.0000 -0.1800315077
O   O1        1.0  0.25130  0.83750  0.10895  1.0000 -0.4660519716
O   O2        1.0  0.15230  0.69414  0.08605  1.0000 -0.2097935502
O   O3        1.0  0.45270  0.43400  0.14610  1.0000 -0.4582577852
O   O4        1.0  0.37710  0.49170  0.08813  1.0000 -0.2264045236
O   O5        1.0  0.80320  0.23960  0.06215  1.0000 -0.4385253248
O   O6        1.0  0.95370  0.28661  0.08570  1.0000 -0.2097935502
O   O7        1.0  0.73670  0.89650  0.85890  1.0000 -0.5523180721
O   O8        1.0  0.73830  0.79150  0.93070  1.0000 -0.5581263897
O   O9        1.0  0.87950  0.90940  0.91560  1.0000 -0.5728541372
O   O10       1.0  0.21230  0.51750  0.45300  1.0000 -0.4582577852
O   O11       1.0  0.11750  0.37393  0.43922  1.0000 -0.2097935502
O   O12       1.0  0.77730  0.91730  0.39655  1.0000 -0.4385253248
O   O13       1.0  0.92734  0.96319  0.40763  1.0000 -0.2007474658
O   O14       1.0  0.31930  0.14150  0.31710  1.0000 -0.4385253248
O   O15       1.0  0.35880  0.18140  0.43141  1.0000 -0.2181444791
O   O16       1.0  0.74110  0.47830  0.21927  1.0000 -0.5581263897
O   O17       1.0  0.88130  0.47530  0.21510  1.0000 -0.5728541372
O   O18       1.0  0.87180  0.60650  0.19862  1.0000 -0.5581263897
O   O19       1.0  0.78450  0.85470  0.22360  1.0000 -0.4582577852
O   O20       1.0  0.88110  0.99852  0.24900  1.0000 -0.2007474658
O   O21       1.0  0.22780  0.45180  0.27930  1.0000 -0.4259656278
O   O22       1.0  0.07840  0.40684  0.26661  1.0000 -0.2097935502
O   O23       1.0  0.67600  0.22600  0.33604  1.0000 -0.4474069831
O   O24       1.0  0.64530  0.19680  0.22047  1.0000 -0.2097935502
O   O25       1.0  0.25330  0.88520  0.40617  1.0000 -0.5523180721
O   O26       1.0  0.13270  0.90440  0.44376  1.0000 -0.5581263897
O   O27       1.0  0.10570  0.76060  0.40180  1.0000 -0.5581263897
O   O28       1.0  0.74870  0.16250  0.89105  1.0000 -0.4660519716
O   O29       1.0  0.84770  0.30586  0.91395  1.0000 -0.2097935502
O   O30       1.0  0.54730  0.56600  0.85390  1.0000 -0.4582577852
O   O31       1.0  0.62290  0.50830  0.91187  1.0000 -0.2264045236
O   O32       1.0  0.19680  0.76040  0.93785  1.0000 -0.4385253248
O   O33       1.0  0.04630  0.71339  0.91430  1.0000 -0.2097935502
O   O34       1.0  0.26330  0.10350  0.14110  1.0000 -0.5523180721
O   O35       1.0  0.26170  0.20850  0.06930  1.0000 -0.5581263897
O   O36       1.0  0.12050  0.09060  0.08440  1.0000 -0.5728541372
O   O37       1.0  0.78770  0.48250  0.54700  1.0000 -0.4582577852
O   O38       1.0  0.88250  0.62607  0.56078  1.0000 -0.2097935502
O   O39       1.0  0.22270  0.08270  0.60345  1.0000 -0.4385253248
O   O40       1.0  0.07266  0.03681  0.59237  1.0000 -0.2007474658
O   O41       1.0  0.68070  0.85850  0.68290  1.0000 -0.4385253248
O   O42       1.0  0.64120  0.81860  0.56859  1.0000 -0.2181444791
O   O43       1.0  0.25890  0.52170  0.78073  1.0000 -0.5581263897
O   O44       1.0  0.11870  0.52470  0.78490  1.0000 -0.5728541372
O   O45       1.0  0.12820  0.39350  0.80138  1.0000 -0.5581263897
O   O46       1.0  0.21550  0.14530  0.77640  1.0000 -0.4582577852
O   O47       1.0  0.11890  0.00148  0.75100  1.0000 -0.2007474658
O   O48       1.0  0.77220  0.54820  0.72070  1.0000 -0.4259656278
O   O49       1.0  0.92160  0.59316  0.73339  1.0000 -0.2097935502
O   O50       1.0  0.32400  0.77400  0.66396  1.0000 -0.4474069831
O   O51       1.0  0.35470  0.80320  0.77953  1.0000 -0.2097935502
O   O52       1.0  0.74670  0.11480  0.59383  1.0000 -0.5523180721
O   O53       1.0  0.86730  0.09560  0.55624  1.0000 -0.5581263897
O   O54       1.0  0.89430  0.23940  0.59820  1.0000 -0.5581263897
F   F1        1.0  0.70010  0.72840  0.78348  1.0000 -0.1609016192
F   F2        1.0  0.82790  0.74350  0.83590  1.0000 -0.1893546676
F   F3        1.0  0.82550  0.83310  0.76801  1.0000 -0.1800315077
F   F4        1.0  0.74400  0.39050  0.08750  1.0000 -0.1672272106
F   F5        1.0  0.86150  0.50290  0.07177  1.0000 -0.1800315077
F   F6        1.0  0.73780  0.50600  0.07231  1.0000 -0.1800315077
F   F7        1.0  0.14190  0.80900  0.55562  1.0000 -0.1800315077
F   F8        1.0  0.27540  0.90850  0.55444  1.0000 -0.1609016192
F   F9        1.0  0.23590  0.77600  0.51800  1.0000 -0.1800315077
F   F10       1.0  0.29990  0.27160  0.21652  1.0000 -0.1609016192
F   F11       1.0  0.17210  0.25650  0.16410  1.0000 -0.1893546676
F   F12       1.0  0.17450  0.16690  0.23199  1.0000 -0.1800315077
F   F13       1.0  0.25600  0.60950  0.91250  1.0000 -0.1672272106
F   F14       1.0  0.13850  0.49710  0.92823  1.0000 -0.1800315077
F   F15       1.0  0.26220  0.49400  0.92769  1.0000 -0.1800315077
F   F16       1.0  0.85810  0.19100  0.44438  1.0000 -0.1800315077
F   F17       1.0  0.72460  0.09150  0.44556  1.0000 -0.1609016192
F   F18       1.0  0.76410  0.22400  0.48200  1.0000 -0.1800315077
