# DDEC6 charges by PACMAN v1.1 (https://github.com/mtap-research/PACMAN-charge/)
data_2017[Ag][hcb]2[FSR]4
_chemical_formula_sum              "Ag4 H84 C112 S4 N12 O36 F12"
_cell_length_a       13.8794
_cell_length_b       16.7601
_cell_length_c       17.663
_cell_angle_alpha    62.254
_cell_angle_beta     70.785
_cell_angle_gamma    77.217

_symmetry_space_group_name_H-M    "P 1"
_symmetry_Int_Tables_number       1

loop_
  _symmetry_equiv_pos_as_xyz
  'x, y, z'

loop_
  _atom_site_type_symbol
  _atom_site_label
  _atom_site_symmetry_multiplicity
  _atom_site_fract_x
  _atom_site_fract_y
  _atom_site_fract_z
  _atom_site_occupancy
  _atom_site_charge
Ag  Ag1       1.0  0.91030  0.31225  0.19582  1.0000 0.3091553151
Ag  Ag2       1.0  0.45361  0.27988  0.69192  1.0000 0.296270281
Ag  Ag3       1.0  0.08970  0.68775  0.80418  1.0000 0.3091553151
Ag  Ag4       1.0  0.54639  0.72012  0.30808  1.0000 0.296270281
H   H1        1.0  0.86370  0.45930  0.01740  1.0000 0.1095600756
H   H2        1.0  0.86270  0.48370  0.87800  1.0000 0.1378067681
H   H3        1.0  0.94040  0.21740  0.94600  1.0000 0.1378067681
H   H4        1.0  0.93970  0.20020  0.08330  1.0000 0.1095600756
H   H5        1.0  0.95050  0.43940  0.63820  1.0000 0.1012893849
H   H6        1.0  0.82820  0.43800  0.66850  1.0000 0.1095600756
H   H7        1.0  0.90560  0.37000  0.34360  1.0000 0.1012893849
H   H8        1.0  0.87670  0.48890  0.38140  1.0000 0.131147725
H   H9        1.0  0.83580  0.65410  0.13650  1.0000 0.1378067681
H   H10       1.0  0.86700  0.53010  0.10720  1.0000 0.1095600756
H   H11       1.0  0.91060  0.75970  0.33290  1.0000 0.1189137562
H   H12       1.0  0.78810  0.76120  0.36770  1.0000 0.1095600756
H   H13       1.0  0.76540  0.24180  0.39840  1.0000 0.1012893849
H   H14       1.0  0.73160  0.11280  0.52960  1.0000 0.1378067681
H   H15       1.0  0.97250  0.98160  0.41860  1.0000 0.131147725
H   H16       1.0  0.00840  0.11950  0.29220  1.0000 0.1095600756
H   H17       1.0  0.89230  0.76770  0.66420  1.0000 0.1095600756
H   H18       1.0  0.77390  0.79020  0.66350  1.0000 0.1189137562
H   H19       1.0  0.87070  0.60980  0.70060  1.0000 0.131147725
H   H20       1.0  0.87690  0.55270  0.50080  1.0000 0.1189137562
H   H21       1.0  0.84100  0.81000  0.46300  1.0000 0.1189137562
H   H22       1.0  0.39410  0.48820  0.61270  1.0000 0.1012893849
H   H23       1.0  0.35870  0.61410  0.64140  1.0000 0.131147725
H   H24       1.0  0.39490  0.45140  0.88770  1.0000 0.131147725
H   H25       1.0  0.42560  0.32990  0.85240  1.0000 0.1095600756
H   H26       1.0  0.42510  0.72570  0.83820  1.0000 0.1189137562
H   H27       1.0  0.30260  0.72750  0.86610  1.0000 0.1095600756
H   H28       1.0  0.36910  0.42950  0.52420  1.0000 0.1095600756
H   H29       1.0  0.35510  0.45370  0.38870  1.0000 0.1378067681
H   H30       1.0  0.46860  0.19600  0.44030  1.0000 0.1378067681
H   H31       1.0  0.48740  0.18130  0.57110  1.0000 0.1095600756
H   H32       1.0  0.42950  0.40770  0.14700  1.0000 0.1012893849
H   H33       1.0  0.30730  0.41490  0.18480  1.0000 0.1189137562
H   H34       1.0  0.30400  0.14950  0.84930  1.0000 0.1095600756
H   H35       1.0  0.28940  0.00680  0.96800  1.0000 0.1378067681
H   H36       1.0  0.59510  0.96100  0.89230  1.0000 0.131147725
H   H37       1.0  0.60020  0.10140  0.77310  1.0000 0.1189137562
H   H38       1.0  0.38090  0.74770  0.16530  1.0000 0.1095600756
H   H39       1.0  0.26120  0.75960  0.17120  1.0000 0.1189137562
H   H40       1.0  0.35120  0.58550  0.20910  1.0000 0.131147725
H   H41       1.0  0.38240  0.52130  0.00810  1.0000 0.1189137562
H   H42       1.0  0.34380  0.78330  0.96640  1.0000 0.1189137562
H   H43       1.0  0.13630  0.54070  0.98260  1.0000 0.1095600756
H   H44       1.0  0.13730  0.51630  0.12200  1.0000 0.1378067681
H   H45       1.0  0.05960  0.78260  0.05400  1.0000 0.1378067681
H   H46       1.0  0.06030  0.79980  0.91670  1.0000 0.1095600756
H   H47       1.0  0.04950  0.56060  0.36180  1.0000 0.1012893849
H   H48       1.0  0.17180  0.56200  0.33150  1.0000 0.1095600756
H   H49       1.0  0.09440  0.63000  0.65640  1.0000 0.1012893849
H   H50       1.0  0.12330  0.51110  0.61860  1.0000 0.131147725
H   H51       1.0  0.16420  0.34590  0.86350  1.0000 0.1378067681
H   H52       1.0  0.13300  0.46990  0.89280  1.0000 0.1095600756
H   H53       1.0  0.08940  0.24030  0.66710  1.0000 0.1189137562
H   H54       1.0  0.21190  0.23880  0.63230  1.0000 0.1095600756
H   H55       1.0  0.23460  0.75820  0.60160  1.0000 0.1012893849
H   H56       1.0  0.26840  0.88720  0.47040  1.0000 0.1378067681
H   H57       1.0  0.02750  0.01840  0.58140  1.0000 0.131147725
H   H58       1.0  0.99160  0.88050  0.70780  1.0000 0.1095600756
H   H59       1.0  0.10770  0.23230  0.33580  1.0000 0.1095600756
H   H60       1.0  0.22610  0.20980  0.33650  1.0000 0.1189137562
H   H61       1.0  0.12930  0.39020  0.29940  1.0000 0.131147725
H   H62       1.0  0.12310  0.44730  0.49920  1.0000 0.1189137562
H   H63       1.0  0.15900  0.19000  0.53700  1.0000 0.1189137562
H   H64       1.0  0.60590  0.51180  0.38730  1.0000 0.1012893849
H   H65       1.0  0.64130  0.38590  0.35860  1.0000 0.131147725
H   H66       1.0  0.60510  0.54860  0.11230  1.0000 0.131147725
H   H67       1.0  0.57440  0.67010  0.14760  1.0000 0.1095600756
H   H68       1.0  0.57490  0.27430  0.16180  1.0000 0.1189137562
H   H69       1.0  0.69740  0.27250  0.13390  1.0000 0.1095600756
H   H70       1.0  0.63090  0.57050  0.47580  1.0000 0.1095600756
H   H71       1.0  0.64490  0.54630  0.61130  1.0000 0.1378067681
H   H72       1.0  0.53140  0.80400  0.55970  1.0000 0.1378067681
H   H73       1.0  0.51260  0.81870  0.42890  1.0000 0.1095600756
H   H74       1.0  0.57050  0.59230  0.85300  1.0000 0.1012893849
H   H75       1.0  0.69270  0.58510  0.81520  1.0000 0.1189137562
H   H76       1.0  0.69600  0.85050  0.15070  1.0000 0.1095600756
H   H77       1.0  0.71060  0.99320  0.03200  1.0000 0.1378067681
H   H78       1.0  0.40490  0.03900  0.10770  1.0000 0.1378067681
H   H79       1.0  0.39980  0.89860  0.22690  1.0000 0.1189137562
H   H80       1.0  0.61910  0.25230  0.83470  1.0000 0.1095600756
H   H81       1.0  0.73880  0.24040  0.82880  1.0000 0.1189137562
H   H82       1.0  0.64880  0.41450  0.79090  1.0000 0.131147725
H   H83       1.0  0.61760  0.47870  0.99190  1.0000 0.1189137562
H   H84       1.0  0.65620  0.21670  0.03360  1.0000 0.1189137562
C   C1        1.0  0.87860  0.40920  0.00290  1.0000 0.0707088229
C   C2        1.0  0.87840  0.42450  0.91950  1.0000 -0.1431215084
C   C3        1.0  0.90150  0.35260  0.89700  1.0000 -0.0035654644
C   C4        1.0  0.92410  0.26830  0.95940  1.0000 -0.1491800324
C   C5        1.0  0.92270  0.25860  0.04120  1.0000 0.0707088229
C   C6        1.0  0.90360  0.36300  0.80760  1.0000 0.4901974722
C   C7        1.0  0.88580  0.46630  0.66540  1.0000 -0.0726928507
C   C8        1.0  0.89140  0.42900  0.30090  1.0000 0.0707088229
C   C9        1.0  0.87440  0.49890  0.32440  1.0000 -0.1598671765
C   C10       1.0  0.85360  0.58570  0.26170  1.0000 0.0016719257
C   C11       1.0  0.85050  0.59600  0.18020  1.0000 -0.1491800324
C   C12       1.0  0.86890  0.52190  0.16370  1.0000 0.0584277584
C   C13       1.0  0.83830  0.66790  0.27890  1.0000 0.4901974722
C   C14       1.0  0.85270  0.72260  0.37460  1.0000 -0.0726928507
C   C15       1.0  0.80850  0.18800  0.40310  1.0000 0.0584277584
C   C16       1.0  0.78660  0.11180  0.48070  1.0000 -0.1491800324
C   C17       1.0  0.84780  0.03320  0.48530  1.0000 0.0078278826
C   C18       1.0  0.92950  0.03510  0.41570  1.0000 -0.1598671765
C   C19       1.0  0.94950  0.11730  0.33950  1.0000 0.1012893849
C   C20       1.0  0.82080  0.94750  0.56730  1.0000 0.5005418806
C   C21       1.0  0.84470  0.78770  0.62640  1.0000 -0.0726928507
C   C22       1.0  0.85620  0.72230  0.58740  1.0000 0.1095600756
C   C23       1.0  0.86800  0.62940  0.64140  1.0000 -0.2092167978
C   C24       1.0  0.87550  0.56660  0.61000  1.0000 0.1012893849
C   C25       1.0  0.87150  0.59610  0.52270  1.0000 -0.2174028507
C   C26       1.0  0.85990  0.68670  0.46800  1.0000 0.1012893849
C   C27       1.0  0.85190  0.74930  0.50140  1.0000 -0.2092167978
C   C28       1.0  0.28300  0.25480  0.08910  1.0000 0.4774753748
C   C29       1.0  0.39370  0.48080  0.66950  1.0000 0.0707088229
C   C30       1.0  0.37330  0.55620  0.68560  1.0000 -0.1491800324
C   C31       1.0  0.37450  0.54610  0.76770  1.0000 0.0016719257
C   C32       1.0  0.39420  0.46050  0.83060  1.0000 -0.1598671765
C   C33       1.0  0.41260  0.38870  0.80880  1.0000 0.0707088229
C   C34       1.0  0.35750  0.62960  0.78300  1.0000 0.4901974722
C   C35       1.0  0.36620  0.68910  0.87760  1.0000 -0.0805173219
C   C36       1.0  0.39070  0.38130  0.50660  1.0000 0.0707088229
C   C37       1.0  0.38080  0.39620  0.42620  1.0000 -0.1431215084
C   C38       1.0  0.40860  0.32680  0.40070  1.0000 -0.0050125167
C   C39       1.0  0.44830  0.24550  0.45610  1.0000 -0.1491800324
C   C40       1.0  0.45810  0.23710  0.53430  1.0000 0.0584277584
C   C41       1.0  0.39970  0.33660  0.31520  1.0000 0.4901974722
C   C42       1.0  0.37110  0.43890  0.17590  1.0000 -0.0726928507
C   C43       1.0  0.36420  0.11000  0.85760  1.0000 0.0857004783
C   C44       1.0  0.35460  0.02520  0.92920  1.0000 -0.1598671765
C   C45       1.0  0.44160  0.96880  0.94240  1.0000 0.0016719257
C   C46       1.0  0.53360  0.99830  0.88420  1.0000 -0.1491800324
C   C47       1.0  0.53610  0.08240  0.81400  1.0000 0.0707088229
C   C48       1.0  0.43790  0.87680  0.01930  1.0000 0.5005418806
C   C49       1.0  0.33080  0.76290  0.13060  1.0000 -0.0805173219
C   C50       1.0  0.34760  0.69510  0.09260  1.0000 0.1095600756
C   C51       1.0  0.35490  0.60370  0.14870  1.0000 -0.2043320761
C   C52       1.0  0.36740  0.53910  0.11830  1.0000 0.1095600756
C   C53       1.0  0.37300  0.56580  0.02960  1.0000 -0.2092167978
C   C54       1.0  0.36500  0.65680  0.97250  1.0000 0.1095600756
C   C55       1.0  0.35110  0.72090  0.00480  1.0000 -0.2174028507
C   C56       1.0  0.83080  0.28860  0.58070  1.0000 0.4558717608
C   C57       1.0  0.12140  0.59080  0.99710  1.0000 0.0707088229
C   C58       1.0  0.12160  0.57550  0.08050  1.0000 -0.1431215084
C   C59       1.0  0.09850  0.64740  0.10300  1.0000 -0.0035654644
C   C60       1.0  0.07590  0.73170  0.04060  1.0000 -0.1491800324
C   C61       1.0  0.07730  0.74140  0.95880  1.0000 0.0707088229
C   C62       1.0  0.09640  0.63700  0.19240  1.0000 0.4901974722
C   C63       1.0  0.11420  0.53370  0.33460  1.0000 -0.0726928507
C   C64       1.0  0.10860  0.57100  0.69910  1.0000 0.0707088229
C   C65       1.0  0.12560  0.50110  0.67560  1.0000 -0.1598671765
C   C66       1.0  0.14640  0.41430  0.73830  1.0000 0.0016719257
C   C67       1.0  0.14950  0.40400  0.81980  1.0000 -0.1491800324
C   C68       1.0  0.13110  0.47810  0.83630  1.0000 0.0584277584
C   C69       1.0  0.16170  0.33210  0.72110  1.0000 0.4901974722
C   C70       1.0  0.14730  0.27740  0.62540  1.0000 -0.0726928507
C   C71       1.0  0.19150  0.81200  0.59690  1.0000 0.0584277584
C   C72       1.0  0.21340  0.88820  0.51930  1.0000 -0.1491800324
C   C73       1.0  0.15220  0.96680  0.51470  1.0000 0.0078278826
C   C74       1.0  0.07050  0.96490  0.58430  1.0000 -0.1598671765
C   C75       1.0  0.05050  0.88270  0.66050  1.0000 0.1012893849
C   C76       1.0  0.17920  0.05250  0.43270  1.0000 0.5005418806
C   C77       1.0  0.15530  0.21230  0.37360  1.0000 -0.0726928507
C   C78       1.0  0.14380  0.27770  0.41260  1.0000 0.1095600756
C   C79       1.0  0.13200  0.37060  0.35860  1.0000 -0.2092167978
C   C80       1.0  0.12450  0.43340  0.39000  1.0000 0.1012893849
C   C81       1.0  0.12850  0.40390  0.47730  1.0000 -0.2174028507
C   C82       1.0  0.14010  0.31330  0.53200  1.0000 0.1012893849
C   C83       1.0  0.14810  0.25070  0.49860  1.0000 -0.2092167978
C   C84       1.0  0.71700  0.74520  0.91090  1.0000 0.4774753748
C   C85       1.0  0.60630  0.51920  0.33050  1.0000 0.0707088229
C   C86       1.0  0.62670  0.44380  0.31440  1.0000 -0.1491800324
C   C87       1.0  0.62550  0.45390  0.23230  1.0000 0.0016719257
C   C88       1.0  0.60580  0.53950  0.16940  1.0000 -0.1598671765
C   C89       1.0  0.58740  0.61130  0.19120  1.0000 0.0707088229
C   C90       1.0  0.64250  0.37040  0.21700  1.0000 0.4901974722
C   C91       1.0  0.63380  0.31090  0.12240  1.0000 -0.0805173219
C   C92       1.0  0.60930  0.61870  0.49340  1.0000 0.0707088229
C   C93       1.0  0.61920  0.60380  0.57380  1.0000 -0.1431215084
C   C94       1.0  0.59140  0.67320  0.59930  1.0000 -0.0050125167
C   C95       1.0  0.55170  0.75450  0.54390  1.0000 -0.1491800324
C   C96       1.0  0.54190  0.76290  0.46570  1.0000 0.0584277584
C   C97       1.0  0.60030  0.66340  0.68480  1.0000 0.4901974722
C   C98       1.0  0.62890  0.56110  0.82410  1.0000 -0.0726928507
C   C99       1.0  0.63580  0.89000  0.14240  1.0000 0.0857004783
C   C100      1.0  0.64540  0.97480  0.07080  1.0000 -0.1598671765
C   C101      1.0  0.55840  0.03120  0.05760  1.0000 0.0016719257
C   C102      1.0  0.46640  0.00170  0.11580  1.0000 -0.1491800324
C   C103      1.0  0.46390  0.91760  0.18600  1.0000 0.0707088229
C   C104      1.0  0.56210  0.12320  0.98070  1.0000 0.5005418806
C   C105      1.0  0.66920  0.23710  0.86940  1.0000 -0.0805173219
C   C106      1.0  0.65240  0.30490  0.90740  1.0000 0.1095600756
C   C107      1.0  0.64510  0.39630  0.85130  1.0000 -0.2043320761
C   C108      1.0  0.63260  0.46090  0.88170  1.0000 0.1095600756
C   C109      1.0  0.62700  0.43420  0.97040  1.0000 -0.2092167978
C   C110      1.0  0.63500  0.34320  0.02750  1.0000 0.1095600756
C   C111      1.0  0.64890  0.27910  0.99520  1.0000 -0.2174028507
C   C112      1.0  0.16920  0.71140  0.41930  1.0000 0.4558717608
S   S1        1.0  0.16526  0.31704  0.11348  1.0000 0.9760786592
S   S2        1.0  0.69955  0.33432  0.58777  1.0000 0.955628097
S   S3        1.0  0.83474  0.68296  0.88652  1.0000 0.9760786592
S   S4        1.0  0.30045  0.66568  0.41223  1.0000 0.955628097
N   N1        1.0  0.89850  0.32750  0.06470  1.0000 -0.1815217312
N   N2        1.0  0.88950  0.43760  0.22240  1.0000 -0.2092167978
N   N3        1.0  0.88800  0.19130  0.33250  1.0000 -0.1903617588
N   N4        1.0  0.41310  0.39720  0.72950  1.0000 -0.1903617588
N   N5        1.0  0.42870  0.30330  0.56170  1.0000 -0.1903617588
N   N6        1.0  0.45210  0.13830  0.80100  1.0000 -0.1815217312
N   N7        1.0  0.10150  0.67250  0.93530  1.0000 -0.1815217312
N   N8        1.0  0.11050  0.56240  0.77760  1.0000 -0.2092167978
N   N9        1.0  0.11200  0.80870  0.66750  1.0000 -0.1903617588
N   N10       1.0  0.58690  0.60280  0.27050  1.0000 -0.1903617588
N   N11       1.0  0.57130  0.69670  0.43830  1.0000 -0.1903617588
N   N12       1.0  0.54790  0.86170  0.19900  1.0000 -0.1815217312
O   O1        1.0  0.91990  0.30150  0.78740  1.0000 -0.438586712
O   O2        1.0  0.88530  0.44980  0.75320  1.0000 -0.2092167978
O   O3        1.0  0.81470  0.74230  0.22870  1.0000 -0.4792168141
O   O4        1.0  0.85570  0.64720  0.35560  1.0000 -0.2092167978
O   O5        1.0  0.76390  0.94500  0.63600  1.0000 -0.4528330864
O   O6        1.0  0.86720  0.87630  0.55480  1.0000 -0.2340990902
O   O7        1.0  0.09390  0.24670  0.16350  1.0000 -0.5622479022
O   O8        1.0  0.17930  0.35440  0.16560  1.0000 -0.5480290652
O   O9        1.0  0.14590  0.37870  0.03150  1.0000 -0.5480290652
O   O10       1.0  0.33400  0.70360  0.73140  1.0000 -0.4628953339
O   O11       1.0  0.37410  0.61180  0.85960  1.0000 -0.2092167978
O   O12       1.0  0.40900  0.27440  0.29640  1.0000 -0.4340460003
O   O13       1.0  0.38270  0.42300  0.26050  1.0000 -0.2092167978
O   O14       1.0  0.51250  0.82950  0.03900  1.0000 -0.4528330864
O   O15       1.0  0.34210  0.85390  0.06110  1.0000 -0.2174028507
O   O16       1.0  0.64680  0.25750  0.64360  1.0000 -0.5222043098
O   O17       1.0  0.68280  0.38490  0.64050  1.0000 -0.5670271815
O   O18       1.0  0.68690  0.37730  0.50580  1.0000 -0.5067422093
O   O19       1.0  0.08010  0.69850  0.21260  1.0000 -0.438586712
O   O20       1.0  0.11470  0.55020  0.24680  1.0000 -0.2092167978
O   O21       1.0  0.18530  0.25770  0.77130  1.0000 -0.4792168141
O   O22       1.0  0.14430  0.35280  0.64440  1.0000 -0.2092167978
O   O23       1.0  0.23610  0.05500  0.36400  1.0000 -0.4528330864
O   O24       1.0  0.13280  0.12370  0.44520  1.0000 -0.2340990902
O   O25       1.0  0.90610  0.75330  0.83650  1.0000 -0.5622479022
O   O26       1.0  0.82070  0.64560  0.83440  1.0000 -0.5480290652
O   O27       1.0  0.85410  0.62130  0.96850  1.0000 -0.5480290652
O   O28       1.0  0.66600  0.29640  0.26860  1.0000 -0.4628953339
O   O29       1.0  0.62590  0.38820  0.14040  1.0000 -0.2092167978
O   O30       1.0  0.59100  0.72560  0.70360  1.0000 -0.4340460003
O   O31       1.0  0.61730  0.57700  0.73950  1.0000 -0.2092167978
O   O32       1.0  0.48750  0.17050  0.96100  1.0000 -0.4528330864
O   O33       1.0  0.65790  0.14610  0.93890  1.0000 -0.2174028507
O   O34       1.0  0.35320  0.74250  0.35640  1.0000 -0.5222043098
O   O35       1.0  0.31720  0.61510  0.35950  1.0000 -0.5670271815
O   O36       1.0  0.31310  0.62270  0.49420  1.0000 -0.5067422093
F   F1        1.0  0.30770  0.19020  0.15830  1.0000 -0.1598671765
F   F2        1.0  0.35870  0.30820  0.04400  1.0000 -0.1815217312
F   F3        1.0  0.27800  0.21780  0.03670  1.0000 -0.1903617588
F   F4        1.0  0.86520  0.24840  0.53400  1.0000 -0.1491800324
F   F5        1.0  0.85680  0.25440  0.65110  1.0000 -0.1431215084
F   F6        1.0  0.88870  0.36350  0.53150  1.0000 -0.1707054527
F   F7        1.0  0.69230  0.80980  0.84170  1.0000 -0.1598671765
F   F8        1.0  0.64130  0.69180  0.95600  1.0000 -0.1815217312
F   F9        1.0  0.72200  0.78220  0.96330  1.0000 -0.1903617588
F   F10       1.0  0.13480  0.75160  0.46600  1.0000 -0.1491800324
F   F11       1.0  0.14320  0.74560  0.34890  1.0000 -0.1431215084
F   F12       1.0  0.11130  0.63650  0.46850  1.0000 -0.1707054527
