# DDEC6 charges by PACMAN v1.1 (https://github.com/mtap-research/PACMAN-charge/)
data_2017[Zn][raa]3[FSR]4
_chemical_formula_sum              "Zn8 H64 C56 N48"
_cell_length_a       10.887
_cell_length_b       12.471
_cell_length_c       19.0964
_cell_angle_alpha    90
_cell_angle_beta     119.873
_cell_angle_gamma    90

_symmetry_space_group_name_H-M    "P 1"
_symmetry_Int_Tables_number       1

loop_
  _symmetry_equiv_pos_as_xyz
  'x, y, z'

loop_
  _atom_site_type_symbol
  _atom_site_label
  _atom_site_symmetry_multiplicity
  _atom_site_fract_x
  _atom_site_fract_y
  _atom_site_fract_z
  _atom_site_occupancy
  _atom_site_charge
Zn  Zn1       1.0  0.86975  0.73422  0.59714  1.0000 0.6794679084
Zn  Zn2       1.0  0.25112  0.74213  0.46388  1.0000 0.6794679084
Zn  Zn3       1.0  0.13025  0.23422  0.90286  1.0000 0.6794679084
Zn  Zn4       1.0  0.74888  0.24213  0.03612  1.0000 0.6794679084
Zn  Zn5       1.0  0.13025  0.26578  0.40286  1.0000 0.6794679084
Zn  Zn6       1.0  0.74888  0.25787  0.53612  1.0000 0.6794679084
Zn  Zn7       1.0  0.86975  0.76578  0.09714  1.0000 0.6794679084
Zn  Zn8       1.0  0.25112  0.75787  0.96388  1.0000 0.6794679084
H   H1        1.0  0.12770  0.63160  0.21150  1.0000 0.1610188209
H   H2        1.0  0.26760  0.67350  0.28980  1.0000 0.1610188209
H   H3        1.0  0.16720  0.58760  0.29890  1.0000 0.1689276565
H   H4        1.0  0.89140  0.95260  0.35990  1.0000 0.1610188209
H   H5        1.0  0.05570  0.98360  0.40360  1.0000 0.1521153016
H   H6        1.0  0.18440  0.67610  0.66840  1.0000 0.1610188209
H   H7        1.0  0.24380  0.63520  0.61140  1.0000 0.1610188209
H   H8        1.0  0.30930  0.74020  0.66570  1.0000 0.1689276565
H   H9        1.0  0.67710  0.99000  0.67770  1.0000 0.1689276565
H   H10       1.0  0.81340  0.92200  0.69370  1.0000 0.1521153016
H   H11       1.0  0.75180  0.01250  0.62520  1.0000 0.1521153016
H   H12       1.0  0.45240  0.62840  0.42690  1.0000 0.1521153016
H   H13       1.0  0.56060  0.69130  0.40810  1.0000 0.1610188209
H   H14       1.0  0.01610  0.38820  0.62750  1.0000 0.1610188209
H   H15       1.0  0.05750  0.48810  0.59080  1.0000 0.1610188209
H   H16       1.0  0.03940  0.50400  0.66830  1.0000 0.1610188209
H   H17       1.0  0.87230  0.13160  0.28850  1.0000 0.1610188209
H   H18       1.0  0.73240  0.17350  0.21020  1.0000 0.1610188209
H   H19       1.0  0.83280  0.08760  0.20110  1.0000 0.1689276565
H   H20       1.0  0.10860  0.45260  0.14010  1.0000 0.1610188209
H   H21       1.0  0.94430  0.48360  0.09640  1.0000 0.1521153016
H   H22       1.0  0.81560  0.17610  0.83160  1.0000 0.1610188209
H   H23       1.0  0.75620  0.13520  0.88860  1.0000 0.1610188209
H   H24       1.0  0.69070  0.24020  0.83430  1.0000 0.1689276565
H   H25       1.0  0.32290  0.49000  0.82230  1.0000 0.1689276565
H   H26       1.0  0.18660  0.42200  0.80630  1.0000 0.1521153016
H   H27       1.0  0.24820  0.51250  0.87480  1.0000 0.1521153016
H   H28       1.0  0.54760  0.12840  0.07310  1.0000 0.1521153016
H   H29       1.0  0.43940  0.19130  0.09190  1.0000 0.1610188209
H   H30       1.0  0.98390  0.88820  0.87250  1.0000 0.1610188209
H   H31       1.0  0.94250  0.98810  0.90920  1.0000 0.1610188209
H   H32       1.0  0.96060  0.00400  0.83170  1.0000 0.1610188209
H   H33       1.0  0.87230  0.36840  0.78850  1.0000 0.1610188209
H   H34       1.0  0.73240  0.32650  0.71020  1.0000 0.1610188209
H   H35       1.0  0.83280  0.41240  0.70110  1.0000 0.1689276565
H   H36       1.0  0.10860  0.04740  0.64010  1.0000 0.1610188209
H   H37       1.0  0.94430  0.01640  0.59640  1.0000 0.1521153016
H   H38       1.0  0.81560  0.32390  0.33160  1.0000 0.1610188209
H   H39       1.0  0.75620  0.36480  0.38860  1.0000 0.1610188209
H   H40       1.0  0.69070  0.25980  0.33430  1.0000 0.1689276565
H   H41       1.0  0.32290  0.01000  0.32230  1.0000 0.1689276565
H   H42       1.0  0.18660  0.07800  0.30630  1.0000 0.1521153016
H   H43       1.0  0.24820  0.98750  0.37480  1.0000 0.1521153016
H   H44       1.0  0.54760  0.37160  0.57310  1.0000 0.1521153016
H   H45       1.0  0.43940  0.30870  0.59190  1.0000 0.1610188209
H   H46       1.0  0.98390  0.61180  0.37250  1.0000 0.1610188209
H   H47       1.0  0.94250  0.51190  0.40920  1.0000 0.1610188209
H   H48       1.0  0.96060  0.49600  0.33170  1.0000 0.1610188209
H   H49       1.0  0.12770  0.86840  0.71150  1.0000 0.1610188209
H   H50       1.0  0.26760  0.82650  0.78980  1.0000 0.1610188209
H   H51       1.0  0.16720  0.91240  0.79890  1.0000 0.1689276565
H   H52       1.0  0.89140  0.54740  0.85990  1.0000 0.1610188209
H   H53       1.0  0.05570  0.51640  0.90360  1.0000 0.1521153016
H   H54       1.0  0.18440  0.82390  0.16840  1.0000 0.1610188209
H   H55       1.0  0.24380  0.86480  0.11140  1.0000 0.1610188209
H   H56       1.0  0.30930  0.75980  0.16570  1.0000 0.1689276565
H   H57       1.0  0.67710  0.51000  0.17770  1.0000 0.1689276565
H   H58       1.0  0.81340  0.57800  0.19370  1.0000 0.1521153016
H   H59       1.0  0.75180  0.48750  0.12520  1.0000 0.1521153016
H   H60       1.0  0.45240  0.87160  0.92690  1.0000 0.1521153016
H   H61       1.0  0.56060  0.80870  0.90810  1.0000 0.1610188209
H   H62       1.0  0.01610  0.11180  0.12750  1.0000 0.1610188209
H   H63       1.0  0.05750  0.01190  0.09080  1.0000 0.1610188209
H   H64       1.0  0.03940  0.99600  0.16830  1.0000 0.1610188209
C   C1        1.0  0.16940  0.65040  0.26870  1.0000 -0.5397973724
C   C2        1.0  0.08630  0.73940  0.27750  1.0000 0.3997186065
C   C3        1.0  0.00600  0.85530  0.32680  1.0000 0.3523459056
C   C4        1.0  0.98850  0.92270  0.38670  1.0000 -0.3732971481
C   C5        1.0  0.01360  0.86130  0.46070  1.0000 0.3523459056
C   C6        1.0  0.11570  0.76630  0.56650  1.0000 0.3997186065
C   C7        1.0  0.22250  0.69870  0.63380  1.0000 -0.5397973724
C   C8        1.0  0.72690  0.95710  0.65230  1.0000 -0.5201238027
C   C9        1.0  0.63360  0.87630  0.59220  1.0000 0.3997186065
C   C10       1.0  0.55870  0.74780  0.50770  1.0000 0.3660566093
C   C11       1.0  0.54850  0.66000  0.45190  1.0000 -0.3834651938
C   C12       1.0  0.65570  0.57210  0.49190  1.0000 0.3660566093
C   C13       1.0  0.85070  0.49020  0.56330  1.0000 0.3997186065
C   C14       1.0  0.00410  0.46550  0.61710  1.0000 -0.5397973724
C   C15       1.0  0.83060  0.15040  0.23130  1.0000 -0.5397973724
C   C16       1.0  0.91370  0.23940  0.22250  1.0000 0.3997186065
C   C17       1.0  0.99400  0.35530  0.17320  1.0000 0.3523459056
C   C18       1.0  0.01150  0.42270  0.11330  1.0000 -0.3732971481
C   C19       1.0  0.98640  0.36130  0.03930  1.0000 0.3523459056
C   C20       1.0  0.88430  0.26630  0.93350  1.0000 0.4052366981
C   C21       1.0  0.77750  0.19870  0.86620  1.0000 -0.5397973724
C   C22       1.0  0.27310  0.45710  0.84770  1.0000 -0.5201238027
C   C23       1.0  0.36640  0.37630  0.90780  1.0000 0.3997186065
C   C24       1.0  0.44130  0.24780  0.99230  1.0000 0.3660566093
C   C25       1.0  0.45150  0.16000  0.04810  1.0000 -0.3834651938
C   C26       1.0  0.34430  0.07210  0.00810  1.0000 0.3660566093
C   C27       1.0  0.14930  0.99020  0.93670  1.0000 0.3997186065
C   C28       1.0  0.99590  0.96550  0.88290  1.0000 -0.5397973724
C   C29       1.0  0.83060  0.34960  0.73130  1.0000 -0.5397973724
C   C30       1.0  0.91370  0.26060  0.72250  1.0000 0.3997186065
C   C31       1.0  0.99400  0.14470  0.67320  1.0000 0.3523459056
C   C32       1.0  0.01150  0.07730  0.61330  1.0000 -0.3732971481
C   C33       1.0  0.98640  0.13870  0.53930  1.0000 0.3523459056
C   C34       1.0  0.88430  0.23370  0.43350  1.0000 0.4052366981
C   C35       1.0  0.77750  0.30130  0.36620  1.0000 -0.5397973724
C   C36       1.0  0.27310  0.04290  0.34770  1.0000 -0.5201238027
C   C37       1.0  0.36640  0.12370  0.40780  1.0000 0.3997186065
C   C38       1.0  0.44130  0.25220  0.49230  1.0000 0.3660566093
C   C39       1.0  0.45150  0.34000  0.54810  1.0000 -0.3834651938
C   C40       1.0  0.34430  0.42790  0.50810  1.0000 0.3660566093
C   C41       1.0  0.14930  0.50980  0.43670  1.0000 0.3997186065
C   C42       1.0  0.99590  0.53450  0.38290  1.0000 -0.5397973724
C   C43       1.0  0.16940  0.84960  0.76870  1.0000 -0.5346731177
C   C44       1.0  0.08630  0.76060  0.77750  1.0000 0.3997186065
C   C45       1.0  0.00600  0.64470  0.82680  1.0000 0.3523459056
C   C46       1.0  0.98850  0.57730  0.88670  1.0000 -0.3732971481
C   C47       1.0  0.01360  0.63870  0.96070  1.0000 0.3523459056
C   C48       1.0  0.11570  0.73370  0.06650  1.0000 0.3997186065
C   C49       1.0  0.22250  0.80130  0.13380  1.0000 -0.5397973724
C   C50       1.0  0.72690  0.54290  0.15230  1.0000 -0.5201238027
C   C51       1.0  0.63360  0.62370  0.09220  1.0000 0.3997186065
C   C52       1.0  0.55870  0.75220  0.00770  1.0000 0.3660566093
C   C53       1.0  0.54850  0.84000  0.95190  1.0000 -0.3834651938
C   C54       1.0  0.65570  0.92790  0.99190  1.0000 0.3660566093
C   C55       1.0  0.85070  0.00980  0.06330  1.0000 0.3997186065
C   C56       1.0  0.00410  0.03450  0.11710  1.0000 -0.5397973724
N   N1        1.0  0.67870  0.79930  0.55930  1.0000 -0.4387096917
N   N2        1.0  0.49620  0.87450  0.56370  1.0000 -0.2984827689
N   N3        1.0  0.44820  0.79030  0.50830  1.0000 -0.2786441116
N   N4        1.0  0.79610  0.59010  0.54400  1.0000 -0.4486626467
N   N5        1.0  0.62290  0.47060  0.47750  1.0000 -0.288934665
N   N6        1.0  0.75090  0.41760  0.52420  1.0000 -0.2786441116
N   N7        1.0  0.99020  0.79590  0.55620  1.0000 -0.288934665
N   N8        1.0  0.92270  0.85860  0.48740  1.0000 -0.288934665
N   N9        1.0  0.13460  0.80500  0.50750  1.0000 -0.4303113825
N   N10       1.0  0.11120  0.78060  0.34780  1.0000 -0.4486626467
N   N11       1.0  0.92370  0.86260  0.24860  1.0000 -0.288934665
N   N12       1.0  0.97530  0.78580  0.21630  1.0000 -0.288934665
N   N13       1.0  0.32130  0.29930  0.94070  1.0000 -0.4387096917
N   N14       1.0  0.50380  0.37450  0.93630  1.0000 -0.2984827689
N   N15       1.0  0.55180  0.29030  0.99170  1.0000 -0.2786441116
N   N16       1.0  0.20390  0.09010  0.95600  1.0000 -0.4486626467
N   N17       1.0  0.37710  0.97060  0.02250  1.0000 -0.288934665
N   N18       1.0  0.24910  0.91760  0.97580  1.0000 -0.2786441116
N   N19       1.0  0.00980  0.29590  0.94380  1.0000 -0.288934665
N   N20       1.0  0.07730  0.35860  0.01260  1.0000 -0.288934665
N   N21       1.0  0.86540  0.30500  0.99250  1.0000 -0.4303113825
N   N22       1.0  0.88880  0.28060  0.15220  1.0000 -0.4486626467
N   N23       1.0  0.07630  0.36260  0.25140  1.0000 -0.288934665
N   N24       1.0  0.02470  0.28580  0.28370  1.0000 -0.288934665
N   N25       1.0  0.32130  0.20070  0.44070  1.0000 -0.4387096917
N   N26       1.0  0.50380  0.12550  0.43630  1.0000 -0.2984827689
N   N27       1.0  0.55180  0.20970  0.49170  1.0000 -0.2786441116
N   N28       1.0  0.20390  0.40990  0.45600  1.0000 -0.4486626467
N   N29       1.0  0.37710  0.52940  0.52250  1.0000 -0.288934665
N   N30       1.0  0.24910  0.58240  0.47580  1.0000 -0.2786441116
N   N31       1.0  0.00980  0.20410  0.44380  1.0000 -0.288934665
N   N32       1.0  0.07730  0.14140  0.51260  1.0000 -0.288934665
N   N33       1.0  0.86540  0.19500  0.49250  1.0000 -0.4303113825
N   N34       1.0  0.88880  0.21940  0.65220  1.0000 -0.4486626467
N   N35       1.0  0.07630  0.13740  0.75140  1.0000 -0.288934665
N   N36       1.0  0.02470  0.21420  0.78370  1.0000 -0.288934665
N   N37       1.0  0.67870  0.70070  0.05930  1.0000 -0.4387096917
N   N38       1.0  0.49620  0.62550  0.06370  1.0000 -0.2984827689
N   N39       1.0  0.44820  0.70970  0.00830  1.0000 -0.2786441116
N   N40       1.0  0.79610  0.90990  0.04400  1.0000 -0.4486626467
N   N41       1.0  0.62290  0.02940  0.97750  1.0000 -0.288934665
N   N42       1.0  0.75090  0.08240  0.02420  1.0000 -0.2786441116
N   N43       1.0  0.99020  0.70410  0.05620  1.0000 -0.288934665
N   N44       1.0  0.92270  0.64140  0.98740  1.0000 -0.288934665
N   N45       1.0  0.13460  0.69500  0.00750  1.0000 -0.4303113825
N   N46       1.0  0.11120  0.71940  0.84780  1.0000 -0.4486626467
N   N47       1.0  0.92370  0.63740  0.74860  1.0000 -0.288934665
N   N48       1.0  0.97530  0.71420  0.71630  1.0000 -0.288934665
