# DDEC6 charges by PACMAN v1.1 (https://github.com/mtap-research/PACMAN-charge/)
data_2017[Co][bnn]3[FSR]3
_chemical_formula_sum              "Co4 H76 C92 N12 O12"
_cell_length_a       10.227
_cell_length_b       25.3057
_cell_length_c       11.4193
_cell_angle_alpha    90
_cell_angle_beta     91.298
_cell_angle_gamma    90

_symmetry_space_group_name_H-M    "P 1"
_symmetry_Int_Tables_number       1

loop_
  _symmetry_equiv_pos_as_xyz
  'x, y, z'

loop_
  _atom_site_type_symbol
  _atom_site_label
  _atom_site_symmetry_multiplicity
  _atom_site_fract_x
  _atom_site_fract_y
  _atom_site_fract_z
  _atom_site_occupancy
  _atom_site_charge
Co  Co1       1.0  0.54804  0.29559  0.47338  1.0000 0.7215101848
Co  Co2       1.0  0.04633  0.37897  0.46487  1.0000 0.7215101848
Co  Co3       1.0  0.45196  0.79559  0.52662  1.0000 0.7215101848
Co  Co4       1.0  0.95367  0.87897  0.53513  1.0000 0.7215101848
H   H1        1.0  0.50350  0.39460  0.25530  1.0000 0.10941404
H   H2        1.0  0.19170  0.15960  0.45120  1.0000 0.10941404
H   H3        1.0  0.59910  0.52470  0.07610  1.0000 0.10941404
H   H4        1.0  0.50510  0.44240  0.08190  1.0000 0.099321572
H   H5        1.0  0.04220  0.27040  0.66380  1.0000 0.10941404
H   H6        1.0  0.86120  0.40780  0.25280  1.0000 0.099321572
H   H7        1.0  0.08000  0.11820  0.77430  1.0000 0.10941404
H   H8        1.0  0.02500  0.20780  0.81380  1.0000 0.099321572
H   H9        1.0  0.16080  0.09620  0.59610  1.0000 0.099321572
H   H10       1.0  0.72400  0.50730  0.41410  1.0000 0.10941404
H   H11       1.0  0.96300  0.29100  0.37800  1.0000 0.3364585619
H   H12       1.0  0.47000  0.38100  0.53900  1.0000 0.3311577122
H   H13       1.0  0.23010  0.40850  0.87430  1.0000 0.1202087226
H   H14       1.0  0.23400  0.36820  0.25630  1.0000 0.099321572
H   H15       1.0  0.74110  0.30220  0.06650  1.0000 0.1202087226
H   H16       1.0  0.85100  0.36180  0.87380  1.0000 0.1202087226
H   H17       1.0  0.35620  0.27400  0.25820  1.0000 0.099321572
H   H18       1.0  0.35390  0.27150  0.05720  1.0000 0.1202087226
H   H19       1.0  0.23710  0.36970  0.05420  1.0000 0.1202087226
H   H20       1.0  0.73240  0.26890  0.68450  1.0000 0.099321572
H   H21       1.0  0.73190  0.30390  0.26830  1.0000 0.0915527836
H   H22       1.0  0.85650  0.35720  0.67270  1.0000 0.099321572
H   H23       1.0  0.36440  0.31500  0.67970  1.0000 0.099321572
H   H24       1.0  0.29240  0.44180  0.40360  1.0000 0.099321572
H   H25       1.0  0.71620  0.55660  0.23910  1.0000 0.099321572
H   H26       1.0  0.35830  0.31210  0.88120  1.0000 0.1202087226
H   H27       1.0  0.62940  0.43710  0.53050  1.0000 0.0915527836
H   H28       1.0  0.19310  0.73590  0.51880  1.0000 0.099321572
H   H29       1.0  0.73730  0.26510  0.88720  1.0000 0.1202087226
H   H30       1.0  0.22330  0.40170  0.67260  1.0000 0.0915527836
H   H31       1.0  0.38340  0.52460  0.42080  1.0000 0.1256230752
H   H32       1.0  0.85210  0.40550  0.05080  1.0000 0.1202087226
H   H33       1.0  0.97220  0.48790  0.55660  1.0000 0.099321572
H   H34       1.0  0.47440  0.59400  0.52840  1.0000 0.1256230752
H   H35       1.0  0.13880  0.24330  0.37150  1.0000 0.0915527836
H   H36       1.0  0.55140  0.68040  0.53370  1.0000 0.099321572
H   H37       1.0  0.10800  0.65160  0.50750  1.0000 0.10941404
H   H38       1.0  0.05370  0.57290  0.57720  1.0000 0.1202087226
H   H39       1.0  0.49650  0.89460  0.74470  1.0000 0.10941404
H   H40       1.0  0.80830  0.65960  0.54880  1.0000 0.10941404
H   H41       1.0  0.40090  0.02470  0.92390  1.0000 0.10941404
H   H42       1.0  0.49490  0.94240  0.91810  1.0000 0.099321572
H   H43       1.0  0.95780  0.77040  0.33620  1.0000 0.10941404
H   H44       1.0  0.13880  0.90780  0.74720  1.0000 0.099321572
H   H45       1.0  0.92000  0.61820  0.22570  1.0000 0.10941404
H   H46       1.0  0.97500  0.70780  0.18620  1.0000 0.099321572
H   H47       1.0  0.83920  0.59620  0.40390  1.0000 0.099321572
H   H48       1.0  0.27600  0.00730  0.58590  1.0000 0.10941404
H   H49       1.0  0.03700  0.79100  0.62200  1.0000 0.3364585619
H   H50       1.0  0.53000  0.88100  0.46100  1.0000 0.3311577122
H   H51       1.0  0.76990  0.90850  0.12570  1.0000 0.1202087226
H   H52       1.0  0.76600  0.86820  0.74370  1.0000 0.099321572
H   H53       1.0  0.25890  0.80220  0.93350  1.0000 0.1202087226
H   H54       1.0  0.14900  0.86180  0.12620  1.0000 0.1202087226
H   H55       1.0  0.64380  0.77400  0.74180  1.0000 0.099321572
H   H56       1.0  0.64610  0.77150  0.94280  1.0000 0.1202087226
H   H57       1.0  0.76290  0.86970  0.94580  1.0000 0.1202087226
H   H58       1.0  0.26760  0.76890  0.31550  1.0000 0.099321572
H   H59       1.0  0.26810  0.80390  0.73170  1.0000 0.0915527836
H   H60       1.0  0.14350  0.85720  0.32730  1.0000 0.099321572
H   H61       1.0  0.63560  0.81500  0.32030  1.0000 0.099321572
H   H62       1.0  0.70760  0.94180  0.59640  1.0000 0.099321572
H   H63       1.0  0.28380  0.05660  0.76090  1.0000 0.099321572
H   H64       1.0  0.64170  0.81210  0.11880  1.0000 0.1202087226
H   H65       1.0  0.37060  0.93710  0.46950  1.0000 0.0915527836
H   H66       1.0  0.80690  0.23590  0.48120  1.0000 0.099321572
H   H67       1.0  0.26270  0.76510  0.11280  1.0000 0.1202087226
H   H68       1.0  0.77670  0.90170  0.32740  1.0000 0.0915527836
H   H69       1.0  0.61660  0.02460  0.57920  1.0000 0.1256230752
H   H70       1.0  0.14790  0.90550  0.94920  1.0000 0.1202087226
H   H71       1.0  0.02780  0.98790  0.44340  1.0000 0.099321572
H   H72       1.0  0.52560  0.09400  0.47160  1.0000 0.1256230752
H   H73       1.0  0.86120  0.74330  0.62850  1.0000 0.0915527836
H   H74       1.0  0.44860  0.18040  0.46630  1.0000 0.099321572
H   H75       1.0  0.89200  0.15160  0.49250  1.0000 0.10941404
H   H76       1.0  0.94630  0.07290  0.42280  1.0000 0.1202087226
C   C1        1.0  0.54890  0.42730  0.25260  1.0000 -0.1527225991
C   C2        1.0  0.15460  0.16940  0.52360  1.0000 -0.168873502
C   C3        1.0  0.60500  0.50420  0.14570  1.0000 -0.1113655984
C   C4        1.0  0.54730  0.45630  0.15010  1.0000 -0.1180488623
C   C5        1.0  0.06800  0.23490  0.65010  1.0000 -0.1527225991
C   C6        1.0  0.93770  0.39830  0.21200  1.0000 0.0610707625
C   C7        1.0  0.11660  0.22138  0.54290  1.0000 0.0610707625
C   C8        1.0  0.61540  0.44528  0.35080  1.0000 0.0610707625
C   C9        1.0  0.09030  0.14460  0.71610  1.0000 -0.1180488623
C   C10       1.0  0.05580  0.19770  0.73920  1.0000 -0.1113655984
C   C11       1.0  0.13790  0.13190  0.61110  1.0000 -0.1180488623
C   C12       1.0  0.67820  0.49400  0.34700  1.0000 -0.168873502
C   C13       1.0  0.74740  0.37780  0.46610  1.0000 0.5234868805
C   C14       1.0  0.15210  0.39710  0.83520  1.0000 -0.2104470517
C   C15       1.0  0.15510  0.37590  0.21420  1.0000 0.0707985756
C   C16       1.0  0.65990  0.29700  0.10360  1.0000 -0.2104470517
C   C17       1.0  0.54700  0.28810  0.03780  1.0000 0.099321572
C   C18       1.0  0.92960  0.36980  0.83480  1.0000 -0.2159491126
C   C19       1.0  0.43520  0.28080  0.21870  1.0000 0.0497712175
C   C20       1.0  0.43330  0.27900  0.09870  1.0000 -0.2104470517
C   C21       1.0  0.15760  0.37630  0.09300  1.0000 -0.2104470517
C   C22       1.0  0.54710  0.28850  0.90840  1.0000 0.099321572
C   C23       1.0  0.65580  0.27820  0.72530  1.0000 0.0707985756
C   C24       1.0  0.65320  0.29810  0.22450  1.0000 0.0707985756
C   C25       1.0  0.24940  0.29742  0.46890  1.0000 0.5234868805
C   C26       1.0  0.04250  0.38430  0.89940  1.0000 0.099321572
C   C27       1.0  0.93380  0.36730  0.71470  1.0000 0.0707985756
C   C28       1.0  0.44130  0.30500  0.72240  1.0000 0.0707985756
C   C29       1.0  0.24310  0.46895  0.43940  1.0000 0.0707985756
C   C30       1.0  0.67300  0.52340  0.24290  1.0000 -0.1113655984
C   C31       1.0  0.04400  0.38610  0.02880  1.0000 0.099321572
C   C32       1.0  0.43680  0.30320  0.84290  1.0000 -0.2104470517
C   C33       1.0  0.62490  0.41241  0.46220  1.0000 -0.011978035
C   C34       1.0  0.25180  0.70670  0.51880  1.0000 0.0707985756
C   C35       1.0  0.65940  0.27560  0.84650  1.0000 -0.2159491126
C   C36       1.0  0.14690  0.39330  0.71460  1.0000 0.0610707625
C   C37       1.0  0.29830  0.51820  0.44950  1.0000 -0.2104470517
C   C38       1.0  0.28230  0.61310  0.51270  1.0000 0.099321572
C   C39       1.0  0.93200  0.39780  0.09130  1.0000 -0.2104470517
C   C40       1.0  0.05660  0.49560  0.52820  1.0000 0.0707985756
C   C41       1.0  0.41450  0.62260  0.52380  1.0000 -0.2009771188
C   C42       1.0  0.12890  0.26209  0.44780  1.0000 -0.0167263226
C   C43       1.0  0.22890  0.55890  0.50210  1.0000 0.10941404
C   C44       1.0  0.45970  0.67440  0.52820  1.0000 0.0707985756
C   C45       1.0  0.20010  0.65640  0.51220  1.0000 -0.2009771188
C   C46       1.0  0.10520  0.54650  0.54130  1.0000 -0.2104470517
C   C47       1.0  0.45110  0.92730  0.74740  1.0000 -0.1527225991
C   C48       1.0  0.84540  0.66940  0.47640  1.0000 -0.168873502
C   C49       1.0  0.39500  0.00420  0.85430  1.0000 -0.1113655984
C   C50       1.0  0.45270  0.95630  0.84990  1.0000 -0.1180488623
C   C51       1.0  0.93200  0.73490  0.34990  1.0000 -0.1527225991
C   C52       1.0  0.06230  0.89830  0.78800  1.0000 0.0610707625
C   C53       1.0  0.88340  0.72138  0.45710  1.0000 0.0610707625
C   C54       1.0  0.38460  0.94528  0.64920  1.0000 0.0610707625
C   C55       1.0  0.90970  0.64460  0.28390  1.0000 -0.1180488623
C   C56       1.0  0.94420  0.69770  0.26080  1.0000 -0.1113655984
C   C57       1.0  0.86210  0.63190  0.38890  1.0000 -0.1180488623
C   C58       1.0  0.32180  0.99400  0.65300  1.0000 -0.168873502
C   C59       1.0  0.25260  0.87780  0.53390  1.0000 0.5234868805
C   C60       1.0  0.84790  0.89710  0.16480  1.0000 -0.2104470517
C   C61       1.0  0.84490  0.87590  0.78580  1.0000 0.0707985756
C   C62       1.0  0.34010  0.79700  0.89640  1.0000 -0.2104470517
C   C63       1.0  0.45300  0.78810  0.96220  1.0000 0.099321572
C   C64       1.0  0.07040  0.86980  0.16520  1.0000 -0.2159491126
C   C65       1.0  0.56480  0.78080  0.78130  1.0000 0.0497712175
C   C66       1.0  0.56670  0.77900  0.90130  1.0000 -0.2104470517
C   C67       1.0  0.84240  0.87630  0.90700  1.0000 -0.2104470517
C   C68       1.0  0.45290  0.78850  0.09160  1.0000 0.099321572
C   C69       1.0  0.34420  0.77820  0.27470  1.0000 0.0707985756
C   C70       1.0  0.34680  0.79810  0.77550  1.0000 0.0707985756
C   C71       1.0  0.75060  0.79742  0.53110  1.0000 0.5234868805
C   C72       1.0  0.95750  0.88430  0.10060  1.0000 0.099321572
C   C73       1.0  0.06620  0.86730  0.28530  1.0000 0.0707985756
C   C74       1.0  0.55870  0.80500  0.27760  1.0000 0.0707985756
C   C75       1.0  0.75690  0.96895  0.56060  1.0000 0.0707985756
C   C76       1.0  0.32700  0.02340  0.75710  1.0000 -0.1113655984
C   C77       1.0  0.95600  0.88610  0.97120  1.0000 0.099321572
C   C78       1.0  0.56320  0.80320  0.15710  1.0000 -0.2104470517
C   C79       1.0  0.37510  0.91241  0.53780  1.0000 -0.011978035
C   C80       1.0  0.74820  0.20670  0.48120  1.0000 0.0707985756
C   C81       1.0  0.34060  0.77560  0.15350  1.0000 -0.2159491126
C   C82       1.0  0.85310  0.89330  0.28540  1.0000 0.0610707625
C   C83       1.0  0.70170  0.01820  0.55050  1.0000 -0.2104470517
C   C84       1.0  0.71770  0.11310  0.48730  1.0000 0.099321572
C   C85       1.0  0.06800  0.89780  0.90870  1.0000 -0.2104470517
C   C86       1.0  0.94340  0.99560  0.47180  1.0000 0.0707985756
C   C87       1.0  0.58550  0.12260  0.47620  1.0000 -0.2009771188
C   C88       1.0  0.87110  0.76209  0.55220  1.0000 -0.0167263226
C   C89       1.0  0.77110  0.05890  0.49790  1.0000 0.10941404
C   C90       1.0  0.54030  0.17440  0.47180  1.0000 0.0707985756
C   C91       1.0  0.79990  0.15640  0.48780  1.0000 -0.2009771188
C   C92       1.0  0.89480  0.04650  0.45870  1.0000 -0.2104470517
N   N1        1.0  0.54940  0.29327  0.66230  1.0000 -0.2593999525
N   N2        1.0  0.04000  0.37832  0.65400  1.0000 -0.2404204552
N   N3        1.0  0.04710  0.38587  0.27550  1.0000 -0.268323036
N   N4        1.0  0.54360  0.29169  0.28320  1.0000 -0.2404204552
N   N5        1.0  0.12400  0.45697  0.47710  1.0000 -0.2454374378
N   N6        1.0  0.37900  0.71650  0.52490  1.0000 -0.2404204552
N   N7        1.0  0.45060  0.79327  0.33770  1.0000 -0.2593999525
N   N8        1.0  0.96000  0.87832  0.34600  1.0000 -0.2404204552
N   N9        1.0  0.95290  0.88587  0.72450  1.0000 -0.268323036
N   N10       1.0  0.45640  0.79169  0.71680  1.0000 -0.2404204552
N   N11       1.0  0.87600  0.95697  0.52290  1.0000 -0.2454374378
N   N12       1.0  0.62100  0.21650  0.47510  1.0000 -0.2404204552
O   O1        1.0  0.73450  0.32856  0.47420  1.0000 -0.5510642846
O   O2        1.0  0.23510  0.34635  0.47750  1.0000 -0.5510642846
O   O3        1.0  0.01420  0.29476  0.43990  1.0000 -0.4871810396
O   O4        1.0  0.51190  0.37983  0.47360  1.0000 -0.4871810396
O   O5        1.0  0.85410  0.40191  0.46220  1.0000 -0.5510642846
O   O6        1.0  0.35550  0.27286  0.47370  1.0000 -0.5510642846
O   O7        1.0  0.26550  0.82856  0.52580  1.0000 -0.5510642846
O   O8        1.0  0.76490  0.84635  0.52250  1.0000 -0.5510642846
O   O9        1.0  0.98580  0.79476  0.56010  1.0000 -0.4871810396
O   O10       1.0  0.48810  0.87983  0.52640  1.0000 -0.4871810396
O   O11       1.0  0.14590  0.90191  0.53780  1.0000 -0.5510642846
O   O12       1.0  0.64450  0.77286  0.52630  1.0000 -0.5510642846
