# DDEC6 charges by PACMAN v1.1 (https://github.com/mtap-research/PACMAN-charge/)
data_2017[Gd][sql]2[FSR]1
_chemical_formula_sum              "Gd4 H52 C36 O32"
_cell_length_a       9.418
_cell_length_b       14.96
_cell_length_c       11.184
_cell_angle_alpha    90
_cell_angle_beta     108.22
_cell_angle_gamma    90

_symmetry_space_group_name_H-M    "P 1"
_symmetry_Int_Tables_number       1

loop_
  _symmetry_equiv_pos_as_xyz
  'x, y, z'

loop_
  _atom_site_type_symbol
  _atom_site_label
  _atom_site_symmetry_multiplicity
  _atom_site_fract_x
  _atom_site_fract_y
  _atom_site_fract_z
  _atom_site_occupancy
  _atom_site_charge
Gd  Gd1       1.0  0.53109  0.37084  0.07926  1.0000 1.9727584264
Gd  Gd2       1.0  0.46891  0.62916  0.92074  1.0000 1.9727584264
Gd  Gd3       1.0  0.96891  0.87084  0.92074  1.0000 1.9727584264
Gd  Gd4       1.0  0.03109  0.12916  0.07926  1.0000 1.9727584264
H   H1        1.0  0.96860  0.34000  0.43530  1.0000 0.1416016846
H   H2        1.0  0.02410  0.40750  0.35280  1.0000 0.1497393391
H   H3        1.0  0.87250  0.46960  0.51850  1.0000 0.1109451605
H   H4        1.0  0.69180  0.48490  0.74280  1.0000 0.1497393391
H   H5        1.0  0.82640  0.52320  0.85190  1.0000 0.1497393391
H   H6        1.0  0.82770  0.34470  0.76730  1.0000 0.1109451605
H   H7        1.0  0.05100  0.46730  0.83340  1.0000 0.1157016447
H   H8        1.0  0.06510  0.28410  0.76830  1.0000 0.1497393391
H   H9        1.0  0.12900  0.35690  0.69780  1.0000 0.1416016846
H   H10       1.0  0.44300  0.18400  0.02700  1.0000 0.329181566
H   H11       1.0  0.58500  0.18700  0.04000  1.0000 0.3390043965
H   H12       1.0  0.48100  0.34700  0.32900  1.0000 0.3390043965
H   H13       1.0  0.39900  0.29200  0.23900  1.0000 0.3665396712
H   H14       1.0  0.03140  0.66000  0.56470  1.0000 0.1416016846
H   H15       1.0  0.97590  0.59250  0.64720  1.0000 0.1497393391
H   H16       1.0  0.12750  0.53040  0.48150  1.0000 0.1109451605
H   H17       1.0  0.30820  0.51510  0.25720  1.0000 0.1497393391
H   H18       1.0  0.17360  0.47680  0.14810  1.0000 0.1497393391
H   H19       1.0  0.17230  0.65530  0.23270  1.0000 0.1109451605
H   H20       1.0  0.94900  0.53270  0.16660  1.0000 0.1157016447
H   H21       1.0  0.93490  0.71590  0.23170  1.0000 0.1497393391
H   H22       1.0  0.87100  0.64310  0.30220  1.0000 0.1416016846
H   H23       1.0  0.55700  0.81600  0.97300  1.0000 0.329181566
H   H24       1.0  0.41500  0.81300  0.96000  1.0000 0.3390043965
H   H25       1.0  0.51900  0.65300  0.67100  1.0000 0.3390043965
H   H26       1.0  0.60100  0.70800  0.76100  1.0000 0.3665396712
H   H27       1.0  0.53140  0.84000  0.56470  1.0000 0.1416016846
H   H28       1.0  0.47590  0.90750  0.64720  1.0000 0.1497393391
H   H29       1.0  0.62750  0.96960  0.48150  1.0000 0.1109451605
H   H30       1.0  0.80820  0.98490  0.25720  1.0000 0.1497393391
H   H31       1.0  0.67360  0.02320  0.14810  1.0000 0.1497393391
H   H32       1.0  0.67230  0.84470  0.23270  1.0000 0.1109451605
H   H33       1.0  0.44900  0.96730  0.16660  1.0000 0.1157016447
H   H34       1.0  0.43490  0.78410  0.23170  1.0000 0.1497393391
H   H35       1.0  0.37100  0.85690  0.30220  1.0000 0.1416016846
H   H36       1.0  0.05700  0.68400  0.97300  1.0000 0.329181566
H   H37       1.0  0.91500  0.68700  0.96000  1.0000 0.3390043965
H   H38       1.0  0.01900  0.84700  0.67100  1.0000 0.3390043965
H   H39       1.0  0.10100  0.79200  0.76100  1.0000 0.3665396712
H   H40       1.0  0.46860  0.16000  0.43530  1.0000 0.1416016846
H   H41       1.0  0.52410  0.09250  0.35280  1.0000 0.1497393391
H   H42       1.0  0.37250  0.03040  0.51850  1.0000 0.1109451605
H   H43       1.0  0.19180  0.01510  0.74280  1.0000 0.1497393391
H   H44       1.0  0.32640  0.97680  0.85190  1.0000 0.1497393391
H   H45       1.0  0.32770  0.15530  0.76730  1.0000 0.1109451605
H   H46       1.0  0.55100  0.03270  0.83340  1.0000 0.1157016447
H   H47       1.0  0.56510  0.21590  0.76830  1.0000 0.1497393391
H   H48       1.0  0.62900  0.14310  0.69780  1.0000 0.1416016846
H   H49       1.0  0.94300  0.31600  0.02700  1.0000 0.329181566
H   H50       1.0  0.08500  0.31300  0.04000  1.0000 0.3390043965
H   H51       1.0  0.98100  0.15300  0.32900  1.0000 0.3390043965
H   H52       1.0  0.89900  0.20800  0.23900  1.0000 0.3665396712
C   C1        1.0  0.79930  0.38570  0.28500  1.0000 0.6246380947
C   C2        1.0  0.94560  0.39620  0.39010  1.0000 -0.334921793
C   C3        1.0  0.94920  0.46880  0.48260  1.0000 -0.0731900678
C   C4        1.0  0.69510  0.43950  0.91550  1.0000 0.688979759
C   C5        1.0  0.76860  0.46960  0.82080  1.0000 -0.3491096281
C   C6        1.0  0.86900  0.40040  0.79410  1.0000 -0.0776429855
C   C7        1.0  0.00960  0.41180  0.80540  1.0000 -0.0776429855
C   C8        1.0  0.11210  0.34240  0.77680  1.0000 -0.3219746509
C   C9        1.0  0.26030  0.33980  0.88150  1.0000 0.6454198501
C   C10       1.0  0.20070  0.61430  0.71500  1.0000 0.6246380947
C   C11       1.0  0.05440  0.60380  0.60990  1.0000 -0.334921793
C   C12       1.0  0.05080  0.53120  0.51740  1.0000 -0.0731900678
C   C13       1.0  0.30490  0.56050  0.08450  1.0000 0.688979759
C   C14       1.0  0.23140  0.53040  0.17920  1.0000 -0.3491096281
C   C15       1.0  0.13100  0.59960  0.20590  1.0000 -0.0776429855
C   C16       1.0  0.99040  0.58820  0.19460  1.0000 -0.0776429855
C   C17       1.0  0.88790  0.65760  0.22320  1.0000 -0.3219746509
C   C18       1.0  0.73970  0.66020  0.11850  1.0000 0.6454198501
C   C19       1.0  0.70070  0.88570  0.71500  1.0000 0.6246380947
C   C20       1.0  0.55440  0.89620  0.60990  1.0000 -0.3352254489
C   C21       1.0  0.55080  0.96880  0.51740  1.0000 -0.0731900678
C   C22       1.0  0.80490  0.93950  0.08450  1.0000 0.688979759
C   C23       1.0  0.73140  0.96960  0.17920  1.0000 -0.3491096281
C   C24       1.0  0.63100  0.90040  0.20590  1.0000 -0.0776429855
C   C25       1.0  0.49040  0.91180  0.19460  1.0000 -0.0776429855
C   C26       1.0  0.38790  0.84240  0.22320  1.0000 -0.3219746509
C   C27       1.0  0.23970  0.83980  0.11850  1.0000 0.6454198501
C   C28       1.0  0.29930  0.11430  0.28500  1.0000 0.6246380947
C   C29       1.0  0.44560  0.10380  0.39010  1.0000 -0.334921793
C   C30       1.0  0.44920  0.03120  0.48260  1.0000 -0.0731900678
C   C31       1.0  0.19510  0.06050  0.91550  1.0000 0.688979759
C   C32       1.0  0.26860  0.03040  0.82080  1.0000 -0.3491096281
C   C33       1.0  0.36900  0.09960  0.79410  1.0000 -0.0776429855
C   C34       1.0  0.50960  0.08820  0.80540  1.0000 -0.0776429855
C   C35       1.0  0.61210  0.15760  0.77680  1.0000 -0.3219746509
C   C36       1.0  0.76030  0.16020  0.88150  1.0000 0.6454198501
O   O1        1.0  0.76200  0.30980  0.23680  1.0000 -0.619585649
O   O2        1.0  0.71680  0.45250  0.24440  1.0000 -0.619585649
O   O3        1.0  0.72880  0.36610  0.97270  1.0000 -0.6037994483
O   O4        1.0  0.59510  0.48850  0.93620  1.0000 -0.7224901178
O   O5        1.0  0.26020  0.33980  0.99540  1.0000 -0.619585649
O   O6        1.0  0.38260  0.34080  0.85780  1.0000 -0.619585649
O   O7        1.0  0.52120  0.20990  0.06870  1.0000 -0.7506841877
O   O8        1.0  0.44170  0.34060  0.25270  1.0000 -0.7354044774
O   O9        1.0  0.23800  0.69020  0.76320  1.0000 -0.619585649
O   O10       1.0  0.28320  0.54750  0.75560  1.0000 -0.619585649
O   O11       1.0  0.27120  0.63390  0.02730  1.0000 -0.6037994483
O   O12       1.0  0.40490  0.51150  0.06380  1.0000 -0.7224901178
O   O13       1.0  0.73980  0.66020  0.00460  1.0000 -0.619585649
O   O14       1.0  0.61740  0.65920  0.14220  1.0000 -0.619585649
O   O15       1.0  0.47880  0.79010  0.93130  1.0000 -0.7506841877
O   O16       1.0  0.55830  0.65940  0.74730  1.0000 -0.7354044774
O   O17       1.0  0.73800  0.80980  0.76320  1.0000 -0.619585649
O   O18       1.0  0.78320  0.95250  0.75560  1.0000 -0.619585649
O   O19       1.0  0.77120  0.86610  0.02730  1.0000 -0.6037994483
O   O20       1.0  0.90490  0.98850  0.06380  1.0000 -0.7224901178
O   O21       1.0  0.23980  0.83980  0.00460  1.0000 -0.619585649
O   O22       1.0  0.11740  0.84080  0.14220  1.0000 -0.619585649
O   O23       1.0  0.97880  0.70990  0.93130  1.0000 -0.7506841877
O   O24       1.0  0.05830  0.84060  0.74730  1.0000 -0.7354044774
O   O25       1.0  0.26200  0.19020  0.23680  1.0000 -0.619585649
O   O26       1.0  0.21680  0.04750  0.24440  1.0000 -0.619585649
O   O27       1.0  0.22880  0.13390  0.97270  1.0000 -0.6037994483
O   O28       1.0  0.09510  0.01150  0.93620  1.0000 -0.7224901178
O   O29       1.0  0.76020  0.16020  0.99540  1.0000 -0.619585649
O   O30       1.0  0.88260  0.15920  0.85780  1.0000 -0.619585649
O   O31       1.0  0.02120  0.29010  0.06870  1.0000 -0.7506841877
O   O32       1.0  0.94170  0.15940  0.25270  1.0000 -0.7354044774
