# DDEC6 charges by PACMAN v1.1 (https://github.com/mtap-research/PACMAN-charge/)
data_2017[Tb][nan]2[FSR]2
_chemical_formula_sum              "Tb8 H128 C184 N24 O56"
_cell_length_a       8.5937
_cell_length_b       24.2425
_cell_length_c       24.6767
_cell_angle_alpha    90
_cell_angle_beta     90
_cell_angle_gamma    90

_symmetry_space_group_name_H-M    "P 1"
_symmetry_Int_Tables_number       1

loop_
  _symmetry_equiv_pos_as_xyz
  'x, y, z'

loop_
  _atom_site_type_symbol
  _atom_site_label
  _atom_site_symmetry_multiplicity
  _atom_site_fract_x
  _atom_site_fract_y
  _atom_site_fract_z
  _atom_site_occupancy
  _atom_site_charge
Tb  Tb1       1.0  0.74118  0.75519  0.02924  1.0000 2.0951319586
Tb  Tb2       1.0  0.24118  0.74481  0.97076  1.0000 2.0951319586
Tb  Tb3       1.0  0.25882  0.24481  0.97076  1.0000 2.0951319586
Tb  Tb4       1.0  0.75882  0.25519  0.02924  1.0000 2.0951319586
Tb  Tb5       1.0  0.75882  0.24481  0.52924  1.0000 2.0951319586
Tb  Tb6       1.0  0.25882  0.25519  0.47076  1.0000 2.0951319586
Tb  Tb7       1.0  0.24118  0.75519  0.47076  1.0000 2.0951319586
Tb  Tb8       1.0  0.74118  0.74481  0.52924  1.0000 2.0951319586
H   H1        1.0  0.33690  0.42830  0.30610  1.0000 0.2952142309
H   H2        1.0  0.34650  0.42940  0.48430  1.0000 0.0944498636
H   H3        1.0  0.26080  0.50520  0.53270  1.0000 0.128810751
H   H4        1.0  0.15650  0.58010  0.48550  1.0000 0.1216020448
H   H5        1.0  0.13340  0.57600  0.39130  1.0000 0.1418407511
H   H6        1.0  0.34230  0.54210  0.15060  1.0000 0.1105100337
H   H7        1.0  0.28660  0.60190  0.07930  1.0000 0.1105100337
H   H8        1.0  0.87980  0.64370  0.15180  1.0000 0.128810751
H   H9        1.0  0.93890  0.58570  0.22430  1.0000 0.1216020448
H   H10       1.0  0.51380  0.41060  0.22540  1.0000 0.1105100337
H   H11       1.0  0.58120  0.35370  0.15330  1.0000 0.1216020448
H   H12       1.0  0.17050  0.38760  0.08010  1.0000 0.1105100337
H   H13       1.0  0.10490  0.44700  0.15090  1.0000 0.1105100337
H   H14       1.0  0.87320  0.79390  0.89710  1.0000 0.0998036496
H   H15       1.0  0.52570  0.83040  0.08200  1.0000 0.3902528833
H   H16       1.0  0.66980  0.86150  0.07730  1.0000 0.3694895755
H   H17       1.0  0.83690  0.07170  0.69390  1.0000 0.2952142309
H   H18       1.0  0.84650  0.07060  0.51570  1.0000 0.0944498636
H   H19       1.0  0.76080  0.99480  0.46730  1.0000 0.128810751
H   H20       1.0  0.65650  0.91990  0.51450  1.0000 0.1216020448
H   H21       1.0  0.63340  0.92400  0.60870  1.0000 0.1418407511
H   H22       1.0  0.84230  0.95790  0.84940  1.0000 0.1105100337
H   H23       1.0  0.78660  0.89810  0.92070  1.0000 0.1105100337
H   H24       1.0  0.37980  0.85630  0.84820  1.0000 0.128810751
H   H25       1.0  0.43890  0.91430  0.77570  1.0000 0.1216020448
H   H26       1.0  0.01380  0.08940  0.77460  1.0000 0.1105100337
H   H27       1.0  0.08120  0.14630  0.84670  1.0000 0.1216020448
H   H28       1.0  0.67050  0.11240  0.91990  1.0000 0.1105100337
H   H29       1.0  0.60490  0.05300  0.84910  1.0000 0.1105100337
H   H30       1.0  0.37320  0.70610  0.10290  1.0000 0.0998036496
H   H31       1.0  0.02570  0.66960  0.91800  1.0000 0.3902528833
H   H32       1.0  0.16980  0.63850  0.92270  1.0000 0.3694895755
H   H33       1.0  0.66310  0.57170  0.69390  1.0000 0.2952142309
H   H34       1.0  0.65350  0.57060  0.51570  1.0000 0.0944498636
H   H35       1.0  0.73920  0.49480  0.46730  1.0000 0.128810751
H   H36       1.0  0.84350  0.41990  0.51450  1.0000 0.1216020448
H   H37       1.0  0.86660  0.42400  0.60870  1.0000 0.1418407511
H   H38       1.0  0.65770  0.45790  0.84940  1.0000 0.1105100337
H   H39       1.0  0.71340  0.39810  0.92070  1.0000 0.1105100337
H   H40       1.0  0.12020  0.35630  0.84820  1.0000 0.128810751
H   H41       1.0  0.06110  0.41430  0.77570  1.0000 0.1216020448
H   H42       1.0  0.48620  0.58940  0.77460  1.0000 0.1105100337
H   H43       1.0  0.41880  0.64630  0.84670  1.0000 0.1216020448
H   H44       1.0  0.82950  0.61240  0.91990  1.0000 0.1105100337
H   H45       1.0  0.89510  0.55300  0.84910  1.0000 0.1105100337
H   H46       1.0  0.12680  0.20610  0.10290  1.0000 0.0998036496
H   H47       1.0  0.47430  0.16960  0.91800  1.0000 0.3902528833
H   H48       1.0  0.33020  0.13850  0.92270  1.0000 0.3694895755
H   H49       1.0  0.16310  0.92830  0.30610  1.0000 0.2952142309
H   H50       1.0  0.15350  0.92940  0.48430  1.0000 0.0944498636
H   H51       1.0  0.23920  0.00520  0.53270  1.0000 0.128810751
H   H52       1.0  0.34350  0.08010  0.48550  1.0000 0.1216020448
H   H53       1.0  0.36660  0.07600  0.39130  1.0000 0.1418407511
H   H54       1.0  0.15770  0.04210  0.15060  1.0000 0.1105100337
H   H55       1.0  0.21340  0.10190  0.07930  1.0000 0.1105100337
H   H56       1.0  0.62020  0.14370  0.15180  1.0000 0.128810751
H   H57       1.0  0.56110  0.08570  0.22430  1.0000 0.1216020448
H   H58       1.0  0.98620  0.91060  0.22540  1.0000 0.1105100337
H   H59       1.0  0.91880  0.85370  0.15330  1.0000 0.1216020448
H   H60       1.0  0.32950  0.88760  0.08010  1.0000 0.1105100337
H   H61       1.0  0.39510  0.94700  0.15090  1.0000 0.1105100337
H   H62       1.0  0.62680  0.29390  0.89710  1.0000 0.0998036496
H   H63       1.0  0.97430  0.33040  0.08200  1.0000 0.3902528833
H   H64       1.0  0.83020  0.36150  0.07730  1.0000 0.3694895755
H   H65       1.0  0.16310  0.57170  0.80610  1.0000 0.2952142309
H   H66       1.0  0.15350  0.57060  0.98430  1.0000 0.0944498636
H   H67       1.0  0.23920  0.49480  0.03270  1.0000 0.128810751
H   H68       1.0  0.34350  0.41990  0.98550  1.0000 0.1216020448
H   H69       1.0  0.36660  0.42400  0.89130  1.0000 0.1418407511
H   H70       1.0  0.15770  0.45790  0.65060  1.0000 0.1105100337
H   H71       1.0  0.21340  0.39810  0.57930  1.0000 0.1105100337
H   H72       1.0  0.62020  0.35630  0.65180  1.0000 0.128810751
H   H73       1.0  0.56110  0.41430  0.72430  1.0000 0.1216020448
H   H74       1.0  0.98620  0.58940  0.72540  1.0000 0.1105100337
H   H75       1.0  0.91880  0.64630  0.65330  1.0000 0.1216020448
H   H76       1.0  0.32950  0.61240  0.58010  1.0000 0.1105100337
H   H77       1.0  0.39510  0.55300  0.65090  1.0000 0.1105100337
H   H78       1.0  0.62680  0.20610  0.39710  1.0000 0.0998036496
H   H79       1.0  0.97430  0.16960  0.58200  1.0000 0.3902528833
H   H80       1.0  0.83020  0.13850  0.57730  1.0000 0.3694895755
H   H81       1.0  0.66310  0.92830  0.19390  1.0000 0.2952142309
H   H82       1.0  0.65350  0.92940  0.01570  1.0000 0.0944498636
H   H83       1.0  0.73920  0.00520  0.96730  1.0000 0.128810751
H   H84       1.0  0.84350  0.08010  0.01450  1.0000 0.1216020448
H   H85       1.0  0.86660  0.07600  0.10870  1.0000 0.1418407511
H   H86       1.0  0.65770  0.04210  0.34940  1.0000 0.1105100337
H   H87       1.0  0.71340  0.10190  0.42070  1.0000 0.1105100337
H   H88       1.0  0.12020  0.14370  0.34820  1.0000 0.128810751
H   H89       1.0  0.06110  0.08570  0.27570  1.0000 0.1216020448
H   H90       1.0  0.48620  0.91060  0.27460  1.0000 0.1105100337
H   H91       1.0  0.41880  0.85370  0.34670  1.0000 0.1216020448
H   H92       1.0  0.82950  0.88760  0.41990  1.0000 0.1105100337
H   H93       1.0  0.89510  0.94700  0.34910  1.0000 0.1105100337
H   H94       1.0  0.12680  0.29390  0.60290  1.0000 0.0998036496
H   H95       1.0  0.47430  0.33040  0.41800  1.0000 0.3902528833
H   H96       1.0  0.33020  0.36150  0.42270  1.0000 0.3694895755
H   H97       1.0  0.83690  0.42830  0.19390  1.0000 0.2952142309
H   H98       1.0  0.84650  0.42940  0.01570  1.0000 0.0944498636
H   H99       1.0  0.76080  0.50520  0.96730  1.0000 0.128810751
H   H100      1.0  0.65650  0.58010  0.01450  1.0000 0.1216020448
H   H101      1.0  0.63340  0.57600  0.10870  1.0000 0.1418407511
H   H102      1.0  0.84230  0.54210  0.34940  1.0000 0.1105100337
H   H103      1.0  0.78660  0.60190  0.42070  1.0000 0.1105100337
H   H104      1.0  0.37980  0.64370  0.34820  1.0000 0.128810751
H   H105      1.0  0.43890  0.58570  0.27570  1.0000 0.1216020448
H   H106      1.0  0.01380  0.41060  0.27460  1.0000 0.1105100337
H   H107      1.0  0.08120  0.35370  0.34670  1.0000 0.1216020448
H   H108      1.0  0.67050  0.38760  0.41990  1.0000 0.1105100337
H   H109      1.0  0.60490  0.44700  0.34910  1.0000 0.1105100337
H   H110      1.0  0.37320  0.79390  0.60290  1.0000 0.0998036496
H   H111      1.0  0.02570  0.83040  0.41800  1.0000 0.3902528833
H   H112      1.0  0.16980  0.86150  0.42270  1.0000 0.3694895755
H   H113      1.0  0.33690  0.07170  0.80610  1.0000 0.2952142309
H   H114      1.0  0.34650  0.07060  0.98430  1.0000 0.0944498636
H   H115      1.0  0.26080  0.99480  0.03270  1.0000 0.128810751
H   H116      1.0  0.15650  0.91990  0.98550  1.0000 0.1216020448
H   H117      1.0  0.13340  0.92400  0.89130  1.0000 0.1418407511
H   H118      1.0  0.34230  0.95790  0.65060  1.0000 0.1105100337
H   H119      1.0  0.28660  0.89810  0.57930  1.0000 0.1105100337
H   H120      1.0  0.87980  0.85630  0.65180  1.0000 0.128810751
H   H121      1.0  0.93890  0.91430  0.72430  1.0000 0.1216020448
H   H122      1.0  0.51380  0.08940  0.72540  1.0000 0.1105100337
H   H123      1.0  0.58120  0.14630  0.65330  1.0000 0.1216020448
H   H124      1.0  0.17050  0.11240  0.58010  1.0000 0.1105100337
H   H125      1.0  0.10490  0.05300  0.65090  1.0000 0.1105100337
H   H126      1.0  0.87320  0.70610  0.39710  1.0000 0.0998036496
H   H127      1.0  0.52570  0.66960  0.58200  1.0000 0.3902528833
H   H128      1.0  0.66980  0.63850  0.57730  1.0000 0.3694895755
C   C1        1.0  0.30290  0.45968  0.46513  1.0000 0.0579875575
C   C2        1.0  0.25280  0.50449  0.49429  1.0000 -0.1381312061
C   C3        1.0  0.19070  0.54832  0.46645  1.0000 -0.0373241019
C   C4        1.0  0.17800  0.54621  0.41086  1.0000 -0.1381312061
C   C5        1.0  0.23100  0.50011  0.38420  1.0000 0.1451049677
C   C6        1.0  0.22470  0.49835  0.32488  1.0000 0.2557458531
C   C7        1.0  0.26130  0.47151  0.24073  1.0000 0.0421629955
C   C8        1.0  0.18520  0.52161  0.24087  1.0000 0.0678262476
C   C9        1.0  0.14590  0.55752  0.19482  1.0000 0.0678262476
C   C10       1.0  0.24870  0.56292  0.15112  1.0000 -0.1514548634
C   C11       1.0  0.21540  0.59834  0.10856  1.0000 -0.1381312061
C   C12       1.0  0.07720  0.62879  0.10851  1.0000 -0.0451162469
C   C13       1.0  0.97440  0.62340  0.15171  1.0000 -0.0998846639
C   C14       1.0  0.00910  0.58848  0.19470  1.0000 -0.1381312061
C   C15       1.0  0.04230  0.66911  0.06407  1.0000 0.6459915887
C   C16       1.0  0.30280  0.43503  0.19539  1.0000 0.0579875575
C   C17       1.0  0.44440  0.40648  0.19571  1.0000 -0.1620765601
C   C18       1.0  0.48390  0.37233  0.15305  1.0000 -0.0998846639
C   C19       1.0  0.38210  0.36497  0.10972  1.0000 -0.0222874146
C   C20       1.0  0.24060  0.39270  0.10938  1.0000 -0.1233089755
C   C21       1.0  0.20130  0.42777  0.15163  1.0000 -0.1620765601
C   C22       1.0  0.42670  0.32639  0.06451  1.0000 0.6459915887
C   C23       1.0  0.96210  0.78181  0.91662  1.0000 0.4993800547
C   C24       1.0  0.80290  0.04032  0.53487  1.0000 0.0579875575
C   C25       1.0  0.75280  0.99551  0.50571  1.0000 -0.1381312061
C   C26       1.0  0.69070  0.95168  0.53355  1.0000 -0.0373241019
C   C27       1.0  0.67800  0.95379  0.58914  1.0000 -0.1381312061
C   C28       1.0  0.73100  0.99989  0.61580  1.0000 0.1451049677
C   C29       1.0  0.72470  0.00165  0.67512  1.0000 0.2557458531
C   C30       1.0  0.76130  0.02849  0.75927  1.0000 0.0421629955
C   C31       1.0  0.68520  0.97839  0.75913  1.0000 0.0678262476
C   C32       1.0  0.64590  0.94248  0.80518  1.0000 0.0678262476
C   C33       1.0  0.74870  0.93708  0.84888  1.0000 -0.1514548634
C   C34       1.0  0.71540  0.90166  0.89144  1.0000 -0.1381312061
C   C35       1.0  0.57720  0.87121  0.89149  1.0000 -0.0451162469
C   C36       1.0  0.47440  0.87660  0.84829  1.0000 -0.0998846639
C   C37       1.0  0.50910  0.91152  0.80530  1.0000 -0.1381312061
C   C38       1.0  0.54230  0.83089  0.93593  1.0000 0.6459915887
C   C39       1.0  0.80280  0.06497  0.80461  1.0000 0.0579875575
C   C40       1.0  0.94440  0.09352  0.80429  1.0000 -0.1620765601
C   C41       1.0  0.98390  0.12767  0.84695  1.0000 -0.0998846639
C   C42       1.0  0.88210  0.13503  0.89028  1.0000 -0.0222874146
C   C43       1.0  0.74060  0.10730  0.89062  1.0000 -0.1233089755
C   C44       1.0  0.70130  0.07223  0.84837  1.0000 -0.1620765601
C   C45       1.0  0.92670  0.17361  0.93549  1.0000 0.6459915887
C   C46       1.0  0.46210  0.71819  0.08338  1.0000 0.4993800547
C   C47       1.0  0.69710  0.54032  0.53487  1.0000 0.0579875575
C   C48       1.0  0.74720  0.49551  0.50571  1.0000 -0.1381312061
C   C49       1.0  0.80930  0.45168  0.53355  1.0000 -0.0373241019
C   C50       1.0  0.82200  0.45379  0.58914  1.0000 -0.1381312061
C   C51       1.0  0.76900  0.49989  0.61580  1.0000 0.1451049677
C   C52       1.0  0.77530  0.50165  0.67512  1.0000 0.2548519622
C   C53       1.0  0.73870  0.52849  0.75927  1.0000 0.0421629955
C   C54       1.0  0.81480  0.47839  0.75913  1.0000 0.0678262476
C   C55       1.0  0.85410  0.44248  0.80518  1.0000 0.0678262476
C   C56       1.0  0.75130  0.43708  0.84888  1.0000 -0.1514548634
C   C57       1.0  0.78460  0.40166  0.89144  1.0000 -0.1381312061
C   C58       1.0  0.92280  0.37121  0.89149  1.0000 -0.0451162469
C   C59       1.0  0.02560  0.37660  0.84829  1.0000 -0.0998846639
C   C60       1.0  0.99090  0.41152  0.80530  1.0000 -0.1381312061
C   C61       1.0  0.95770  0.33089  0.93593  1.0000 0.6459915887
C   C62       1.0  0.69720  0.56497  0.80461  1.0000 0.0579875575
C   C63       1.0  0.55560  0.59352  0.80429  1.0000 -0.1620765601
C   C64       1.0  0.51610  0.62767  0.84695  1.0000 -0.0998846639
C   C65       1.0  0.61790  0.63503  0.89028  1.0000 -0.0222874146
C   C66       1.0  0.75940  0.60730  0.89062  1.0000 -0.1233089755
C   C67       1.0  0.79870  0.57223  0.84837  1.0000 -0.1620765601
C   C68       1.0  0.57330  0.67361  0.93549  1.0000 0.6459915887
C   C69       1.0  0.03790  0.21819  0.08338  1.0000 0.4993800547
C   C70       1.0  0.19710  0.95968  0.46513  1.0000 0.0579875575
C   C71       1.0  0.24720  0.00449  0.49429  1.0000 -0.1381312061
C   C72       1.0  0.30930  0.04832  0.46645  1.0000 -0.0373241019
C   C73       1.0  0.32200  0.04621  0.41086  1.0000 -0.1381312061
C   C74       1.0  0.26900  0.00011  0.38420  1.0000 0.1451049677
C   C75       1.0  0.27530  0.99835  0.32488  1.0000 0.2557458531
C   C76       1.0  0.23870  0.97151  0.24073  1.0000 0.0421629955
C   C77       1.0  0.31480  0.02161  0.24087  1.0000 0.0678262476
C   C78       1.0  0.35410  0.05752  0.19482  1.0000 0.0678262476
C   C79       1.0  0.25130  0.06292  0.15112  1.0000 -0.1514548634
C   C80       1.0  0.28460  0.09834  0.10856  1.0000 -0.1381312061
C   C81       1.0  0.42280  0.12879  0.10851  1.0000 -0.0451162469
C   C82       1.0  0.52560  0.12340  0.15171  1.0000 -0.0998846639
C   C83       1.0  0.49090  0.08848  0.19470  1.0000 -0.1381312061
C   C84       1.0  0.45770  0.16911  0.06407  1.0000 0.6459915887
C   C85       1.0  0.19720  0.93503  0.19539  1.0000 0.0579875575
C   C86       1.0  0.05560  0.90648  0.19571  1.0000 -0.1620765601
C   C87       1.0  0.01610  0.87233  0.15305  1.0000 -0.0998846639
C   C88       1.0  0.11790  0.86497  0.10972  1.0000 -0.0222874146
C   C89       1.0  0.25940  0.89270  0.10938  1.0000 -0.1233089755
C   C90       1.0  0.29870  0.92777  0.15163  1.0000 -0.1620765601
C   C91       1.0  0.07330  0.82639  0.06451  1.0000 0.6459915887
C   C92       1.0  0.53790  0.28181  0.91662  1.0000 0.4993800547
C   C93       1.0  0.19710  0.54032  0.96513  1.0000 0.0579875575
C   C94       1.0  0.24720  0.49551  0.99429  1.0000 -0.1381312061
C   C95       1.0  0.30930  0.45168  0.96645  1.0000 -0.0373241019
C   C96       1.0  0.32200  0.45379  0.91086  1.0000 -0.1381312061
C   C97       1.0  0.26900  0.49989  0.88420  1.0000 0.1451049677
C   C98       1.0  0.27530  0.50165  0.82488  1.0000 0.2557458531
C   C99       1.0  0.23870  0.52849  0.74073  1.0000 0.0421629955
C   C100      1.0  0.31480  0.47839  0.74087  1.0000 0.0678262476
C   C101      1.0  0.35410  0.44248  0.69482  1.0000 0.0678262476
C   C102      1.0  0.25130  0.43708  0.65112  1.0000 -0.1514548634
C   C103      1.0  0.28460  0.40166  0.60856  1.0000 -0.1381312061
C   C104      1.0  0.42280  0.37121  0.60851  1.0000 -0.0451162469
C   C105      1.0  0.52560  0.37660  0.65171  1.0000 -0.0998846639
C   C106      1.0  0.49090  0.41152  0.69470  1.0000 -0.1381312061
C   C107      1.0  0.45770  0.33089  0.56407  1.0000 0.6459915887
C   C108      1.0  0.19720  0.56497  0.69539  1.0000 0.0579875575
C   C109      1.0  0.05560  0.59352  0.69571  1.0000 -0.1620765601
C   C110      1.0  0.01610  0.62767  0.65305  1.0000 -0.0998846639
C   C111      1.0  0.11790  0.63503  0.60972  1.0000 -0.0222874146
C   C112      1.0  0.25940  0.60730  0.60938  1.0000 -0.1233089755
C   C113      1.0  0.29870  0.57223  0.65163  1.0000 -0.1620765601
C   C114      1.0  0.07330  0.67361  0.56451  1.0000 0.6459915887
C   C115      1.0  0.53790  0.21819  0.41662  1.0000 0.4993800547
C   C116      1.0  0.69710  0.95968  0.03487  1.0000 0.0579875575
C   C117      1.0  0.74720  0.00449  0.00571  1.0000 -0.1381312061
C   C118      1.0  0.80930  0.04832  0.03355  1.0000 -0.0373241019
C   C119      1.0  0.82200  0.04621  0.08914  1.0000 -0.1381312061
C   C120      1.0  0.76900  0.00011  0.11580  1.0000 0.1451049677
C   C121      1.0  0.77530  0.99835  0.17512  1.0000 0.2548519622
C   C122      1.0  0.73870  0.97151  0.25927  1.0000 0.0421629955
C   C123      1.0  0.81480  0.02161  0.25913  1.0000 0.0678262476
C   C124      1.0  0.85410  0.05752  0.30518  1.0000 0.0678262476
C   C125      1.0  0.75130  0.06292  0.34888  1.0000 -0.1514548634
C   C126      1.0  0.78460  0.09834  0.39144  1.0000 -0.1381312061
C   C127      1.0  0.92280  0.12879  0.39149  1.0000 -0.0451162469
C   C128      1.0  0.02560  0.12340  0.34829  1.0000 -0.0998846639
C   C129      1.0  0.99090  0.08848  0.30530  1.0000 -0.1381312061
C   C130      1.0  0.95770  0.16911  0.43593  1.0000 0.6459915887
C   C131      1.0  0.69720  0.93503  0.30461  1.0000 0.0579875575
C   C132      1.0  0.55560  0.90648  0.30429  1.0000 -0.1620765601
C   C133      1.0  0.51610  0.87233  0.34695  1.0000 -0.0998846639
C   C134      1.0  0.61790  0.86497  0.39028  1.0000 -0.0222874146
C   C135      1.0  0.75940  0.89270  0.39062  1.0000 -0.1233089755
C   C136      1.0  0.79870  0.92777  0.34837  1.0000 -0.1620765601
C   C137      1.0  0.57330  0.82639  0.43549  1.0000 0.6459915887
C   C138      1.0  0.03790  0.28181  0.58338  1.0000 0.4993800547
C   C139      1.0  0.80290  0.45968  0.03487  1.0000 0.0579875575
C   C140      1.0  0.75280  0.50449  0.00571  1.0000 -0.1381312061
C   C141      1.0  0.69070  0.54832  0.03355  1.0000 -0.0373241019
C   C142      1.0  0.67800  0.54621  0.08914  1.0000 -0.1381312061
C   C143      1.0  0.73100  0.50011  0.11580  1.0000 0.1451049677
C   C144      1.0  0.72470  0.49835  0.17512  1.0000 0.2557458531
C   C145      1.0  0.76130  0.47151  0.25927  1.0000 0.0421629955
C   C146      1.0  0.68520  0.52161  0.25913  1.0000 0.0678262476
C   C147      1.0  0.64590  0.55752  0.30518  1.0000 0.0678262476
C   C148      1.0  0.74870  0.56292  0.34888  1.0000 -0.1514548634
C   C149      1.0  0.71540  0.59834  0.39144  1.0000 -0.1381312061
C   C150      1.0  0.57720  0.62879  0.39149  1.0000 -0.0451162469
C   C151      1.0  0.47440  0.62340  0.34829  1.0000 -0.0998846639
C   C152      1.0  0.50910  0.58848  0.30530  1.0000 -0.1381312061
C   C153      1.0  0.54230  0.66911  0.43593  1.0000 0.6459915887
C   C154      1.0  0.80280  0.43503  0.30461  1.0000 0.0579875575
C   C155      1.0  0.94440  0.40648  0.30429  1.0000 -0.1620765601
C   C156      1.0  0.98390  0.37233  0.34695  1.0000 -0.0998846639
C   C157      1.0  0.88210  0.36497  0.39028  1.0000 -0.0222874146
C   C158      1.0  0.74060  0.39270  0.39062  1.0000 -0.1233089755
C   C159      1.0  0.70130  0.42777  0.34837  1.0000 -0.1620765601
C   C160      1.0  0.92670  0.32639  0.43549  1.0000 0.6459915887
C   C161      1.0  0.46210  0.78181  0.58338  1.0000 0.4993800547
C   C162      1.0  0.30290  0.04032  0.96513  1.0000 0.0579875575
C   C163      1.0  0.25280  0.99551  0.99429  1.0000 -0.1381312061
C   C164      1.0  0.19070  0.95168  0.96645  1.0000 -0.0373241019
C   C165      1.0  0.17800  0.95379  0.91086  1.0000 -0.1381312061
C   C166      1.0  0.23100  0.99989  0.88420  1.0000 0.1451049677
C   C167      1.0  0.22470  0.00165  0.82488  1.0000 0.2557458531
C   C168      1.0  0.26130  0.02849  0.74073  1.0000 0.0421629955
C   C169      1.0  0.18520  0.97839  0.74087  1.0000 0.0678262476
C   C170      1.0  0.14590  0.94248  0.69482  1.0000 0.0678262476
C   C171      1.0  0.24870  0.93708  0.65112  1.0000 -0.1514548634
C   C172      1.0  0.21540  0.90166  0.60856  1.0000 -0.1381312061
C   C173      1.0  0.07720  0.87121  0.60851  1.0000 -0.0451162469
C   C174      1.0  0.97440  0.87660  0.65171  1.0000 -0.0998846639
C   C175      1.0  0.00910  0.91152  0.69470  1.0000 -0.1381312061
C   C176      1.0  0.04230  0.83089  0.56407  1.0000 0.6459915887
C   C177      1.0  0.30280  0.06497  0.69539  1.0000 0.0579875575
C   C178      1.0  0.44440  0.09352  0.69571  1.0000 -0.1620765601
C   C179      1.0  0.48390  0.12767  0.65305  1.0000 -0.0998846639
C   C180      1.0  0.38210  0.13503  0.60972  1.0000 -0.0222874146
C   C181      1.0  0.24060  0.10730  0.60938  1.0000 -0.1233089755
C   C182      1.0  0.20130  0.07223  0.65163  1.0000 -0.1620765601
C   C183      1.0  0.42670  0.17361  0.56451  1.0000 0.6459915887
C   C184      1.0  0.96210  0.71819  0.41662  1.0000 0.4993800547
N   N1        1.0  0.29340  0.45633  0.41072  1.0000 -0.3217850823
N   N2        1.0  0.28800  0.45782  0.29420  1.0000 -0.2843014349
N   N3        1.0  0.16110  0.53773  0.29407  1.0000 -0.3839105714
N   N4        1.0  0.79340  0.04367  0.58928  1.0000 -0.3217850823
N   N5        1.0  0.78800  0.04218  0.70580  1.0000 -0.2843014349
N   N6        1.0  0.66110  0.96227  0.70593  1.0000 -0.3839105714
N   N7        1.0  0.70660  0.54367  0.58928  1.0000 -0.3217850823
N   N8        1.0  0.71200  0.54218  0.70580  1.0000 -0.2843014349
N   N9        1.0  0.83890  0.46227  0.70593  1.0000 -0.3839105714
N   N10       1.0  0.20660  0.95633  0.41072  1.0000 -0.3217850823
N   N11       1.0  0.21200  0.95782  0.29420  1.0000 -0.2843014349
N   N12       1.0  0.33890  0.03773  0.29407  1.0000 -0.3839105714
N   N13       1.0  0.20660  0.54367  0.91072  1.0000 -0.3217850823
N   N14       1.0  0.21200  0.54218  0.79420  1.0000 -0.2843014349
N   N15       1.0  0.33890  0.46227  0.79407  1.0000 -0.3839105714
N   N16       1.0  0.70660  0.95633  0.08928  1.0000 -0.3217850823
N   N17       1.0  0.71200  0.95782  0.20580  1.0000 -0.2843014349
N   N18       1.0  0.83890  0.03773  0.20593  1.0000 -0.3839105714
N   N19       1.0  0.79340  0.45633  0.08928  1.0000 -0.3217850823
N   N20       1.0  0.78800  0.45782  0.20580  1.0000 -0.2843014349
N   N21       1.0  0.66110  0.53773  0.20593  1.0000 -0.3839105714
N   N22       1.0  0.29340  0.04367  0.91072  1.0000 -0.3217850823
N   N23       1.0  0.28800  0.04218  0.79420  1.0000 -0.2843014349
N   N24       1.0  0.16110  0.96227  0.79407  1.0000 -0.3839105714
O   O1        1.0  0.90790  0.68858  0.06195  1.0000 -0.6382584919
O   O2        1.0  0.15160  0.68114  0.03200  1.0000 -0.7126419593
O   O3        1.0  0.56270  0.30744  0.06552  1.0000 -0.6599393759
O   O4        1.0  0.32650  0.31554  0.02923  1.0000 -0.6599393759
O   O5        1.0  0.94440  0.75790  0.96142  1.0000 -0.6921663631
O   O6        1.0  0.09540  0.78991  0.89728  1.0000 -0.5659802605
O   O7        1.0  0.62960  0.82845  0.08625  1.0000 -0.7720801134
O   O8        1.0  0.40790  0.81142  0.93805  1.0000 -0.6382584919
O   O9        1.0  0.65160  0.81886  0.96800  1.0000 -0.7126419593
O   O10       1.0  0.06270  0.19256  0.93448  1.0000 -0.6599393759
O   O11       1.0  0.82650  0.18446  0.97077  1.0000 -0.6599393759
O   O12       1.0  0.44440  0.74210  0.03858  1.0000 -0.6921663631
O   O13       1.0  0.59540  0.71009  0.10272  1.0000 -0.5659802605
O   O14       1.0  0.12960  0.67155  0.91375  1.0000 -0.7720801134
O   O15       1.0  0.09210  0.31142  0.93805  1.0000 -0.6382584919
O   O16       1.0  0.84840  0.31886  0.96800  1.0000 -0.7126419593
O   O17       1.0  0.43730  0.69256  0.93448  1.0000 -0.6599393759
O   O18       1.0  0.67350  0.68446  0.97077  1.0000 -0.6599393759
O   O19       1.0  0.05560  0.24210  0.03858  1.0000 -0.6921663631
O   O20       1.0  0.90460  0.21009  0.10272  1.0000 -0.5659802605
O   O21       1.0  0.37040  0.17155  0.91375  1.0000 -0.7720801134
O   O22       1.0  0.59210  0.18858  0.06195  1.0000 -0.6382584919
O   O23       1.0  0.34840  0.18114  0.03200  1.0000 -0.7126419593
O   O24       1.0  0.93730  0.80744  0.06552  1.0000 -0.6599393759
O   O25       1.0  0.17350  0.81554  0.02923  1.0000 -0.6599393759
O   O26       1.0  0.55560  0.25790  0.96142  1.0000 -0.6921663631
O   O27       1.0  0.40460  0.28991  0.89728  1.0000 -0.5659802605
O   O28       1.0  0.87040  0.32845  0.08625  1.0000 -0.7720801134
O   O29       1.0  0.59210  0.31142  0.56195  1.0000 -0.6382584919
O   O30       1.0  0.34840  0.31886  0.53200  1.0000 -0.7126419593
O   O31       1.0  0.93730  0.69256  0.56552  1.0000 -0.6599393759
O   O32       1.0  0.17350  0.68446  0.52923  1.0000 -0.6599393759
O   O33       1.0  0.55560  0.24210  0.46142  1.0000 -0.6921663631
O   O34       1.0  0.40460  0.21009  0.39728  1.0000 -0.5659802605
O   O35       1.0  0.87040  0.17155  0.58625  1.0000 -0.7720801134
O   O36       1.0  0.09210  0.18858  0.43805  1.0000 -0.6382584919
O   O37       1.0  0.84840  0.18114  0.46800  1.0000 -0.7126419593
O   O38       1.0  0.43730  0.80744  0.43448  1.0000 -0.6599393759
O   O39       1.0  0.67350  0.81554  0.47077  1.0000 -0.6599393759
O   O40       1.0  0.05560  0.25790  0.53858  1.0000 -0.6921663631
O   O41       1.0  0.90460  0.28991  0.60272  1.0000 -0.5659802605
O   O42       1.0  0.37040  0.32845  0.41375  1.0000 -0.7720801134
O   O43       1.0  0.40790  0.68858  0.43805  1.0000 -0.6382584919
O   O44       1.0  0.65160  0.68114  0.46800  1.0000 -0.7126419593
O   O45       1.0  0.06270  0.30744  0.43448  1.0000 -0.6599393759
O   O46       1.0  0.82650  0.31554  0.47077  1.0000 -0.6599393759
O   O47       1.0  0.44440  0.75790  0.53858  1.0000 -0.6921663631
O   O48       1.0  0.59540  0.78991  0.60272  1.0000 -0.5659802605
O   O49       1.0  0.12960  0.82845  0.41375  1.0000 -0.7720801134
O   O50       1.0  0.90790  0.81142  0.56195  1.0000 -0.6382584919
O   O51       1.0  0.15160  0.81886  0.53200  1.0000 -0.7126419593
O   O52       1.0  0.56270  0.19256  0.56552  1.0000 -0.6599393759
O   O53       1.0  0.32650  0.18446  0.52923  1.0000 -0.6599393759
O   O54       1.0  0.94440  0.74210  0.46142  1.0000 -0.6921663631
O   O55       1.0  0.09540  0.71009  0.39728  1.0000 -0.5659802605
O   O56       1.0  0.62960  0.67155  0.58625  1.0000 -0.7720801134
