# DDEC6 charges by PACMAN v1.1 (https://github.com/mtap-research/PACMAN-charge/)
data_2017[Cu][ths]3[FSR]3
_chemical_formula_sum              "Cu8 C24 O48"
_cell_length_a       8.6704
_cell_length_b       33.9968
_cell_length_c       8.7368
_cell_angle_alpha    90
_cell_angle_beta     107.726
_cell_angle_gamma    90

_symmetry_space_group_name_H-M    "P 1"
_symmetry_Int_Tables_number       1

loop_
  _symmetry_equiv_pos_as_xyz
  'x, y, z'

loop_
  _atom_site_type_symbol
  _atom_site_label
  _atom_site_symmetry_multiplicity
  _atom_site_fract_x
  _atom_site_fract_y
  _atom_site_fract_z
  _atom_site_occupancy
  _atom_site_charge
Cu  Cu1       1.0  0.51540  0.79645  0.24966  1.0000 0.918771318
Cu  Cu2       1.0  0.98460  0.29645  0.75034  1.0000 0.918771318
Cu  Cu3       1.0  0.48460  0.20355  0.75034  1.0000 0.918771318
Cu  Cu4       1.0  0.01540  0.70355  0.24966  1.0000 0.918771318
Cu  Cu5       1.0  0.50086  0.95430  0.26040  1.0000 0.9099911664
Cu  Cu6       1.0  0.99914  0.45430  0.73960  1.0000 0.9099911664
Cu  Cu7       1.0  0.49914  0.04570  0.73960  1.0000 0.9099911664
Cu  Cu8       1.0  0.00086  0.54570  0.26040  1.0000 0.9099911664
C   C1        1.0  0.43570  0.87653  0.18050  1.0000 0.5654324207
C   C2        1.0  0.06430  0.37653  0.81950  1.0000 0.5610186253
C   C3        1.0  0.56430  0.12347  0.81950  1.0000 0.5610186253
C   C4        1.0  0.93570  0.62347  0.18050  1.0000 0.5610186253
C   C5        1.0  0.59080  0.87404  0.32900  1.0000 0.5610186253
C   C6        1.0  0.90920  0.37404  0.67100  1.0000 0.5494138275
C   C7        1.0  0.40920  0.12596  0.67100  1.0000 0.5494138275
C   C8        1.0  0.09080  0.62596  0.32900  1.0000 0.5610186253
C   C9        1.0  0.27590  0.74116  0.18560  1.0000 0.5494138275
C   C10       1.0  0.22410  0.24116  0.81440  1.0000 0.5494138275
C   C11       1.0  0.72410  0.25884  0.81440  1.0000 0.5494138275
C   C12       1.0  0.77590  0.75884  0.18560  1.0000 0.5494138275
C   C13       1.0  0.26250  0.76343  0.33620  1.0000 0.5308037016
C   C14       1.0  0.23750  0.26343  0.66380  1.0000 0.5308037016
C   C15       1.0  0.73750  0.23657  0.66380  1.0000 0.5308037016
C   C16       1.0  0.76250  0.73657  0.33620  1.0000 0.5308037016
C   C17       1.0  0.57850  0.98888  0.99930  1.0000 0.5494138275
C   C18       1.0  0.92150  0.48888  0.00070  1.0000 0.5494138275
C   C19       1.0  0.42150  0.01112  0.00070  1.0000 0.5494138275
C   C20       1.0  0.07850  0.51112  0.99930  1.0000 0.5494138275
C   C21       1.0  0.42980  0.98809  0.51430  1.0000 0.5308037016
C   C22       1.0  0.07020  0.48809  0.48570  1.0000 0.5308037016
C   C23       1.0  0.57020  0.01191  0.48570  1.0000 0.5308037016
C   C24       1.0  0.92980  0.51191  0.51430  1.0000 0.5308037016
O   O1        1.0  0.38653  0.84579  0.10547  1.0000 -0.418212631
O   O2        1.0  0.11347  0.34579  0.89453  1.0000 -0.418212631
O   O3        1.0  0.61347  0.15421  0.89453  1.0000 -0.418212631
O   O4        1.0  0.88653  0.65421  0.10547  1.0000 -0.418212631
O   O5        1.0  0.37143  0.90984  0.14764  1.0000 -0.4309388224
O   O6        1.0  0.12857  0.40984  0.85236  1.0000 -0.4309388224
O   O7        1.0  0.62857  0.09016  0.85236  1.0000 -0.4309388224
O   O8        1.0  0.87143  0.59016  0.14764  1.0000 -0.4309388224
O   O9        1.0  0.63768  0.84003  0.37800  1.0000 -0.4425178256
O   O10       1.0  0.86232  0.34003  0.62200  1.0000 -0.4425178256
O   O11       1.0  0.36232  0.15997  0.62200  1.0000 -0.4425178256
O   O12       1.0  0.13768  0.65997  0.37800  1.0000 -0.4425178256
O   O13       1.0  0.65641  0.90515  0.38671  1.0000 -0.4119034309
O   O14       1.0  0.84359  0.40515  0.61329  1.0000 -0.4119034309
O   O15       1.0  0.34359  0.09485  0.61329  1.0000 -0.4119034309
O   O16       1.0  0.15641  0.59485  0.38671  1.0000 -0.4119034309
O   O17       1.0  0.35299  0.79341  0.37576  1.0000 -0.4503979992
O   O18       1.0  0.14701  0.29341  0.62424  1.0000 -0.4503979992
O   O19       1.0  0.64701  0.20659  0.62424  1.0000 -0.4503979992
O   O20       1.0  0.85299  0.70659  0.37576  1.0000 -0.4503979992
O   O21       1.0  0.16971  0.75116  0.40693  1.0000 -0.3806590524
O   O22       1.0  0.33029  0.25116  0.59307  1.0000 -0.3806590524
O   O23       1.0  0.83029  0.24884  0.59307  1.0000 -0.3806590524
O   O24       1.0  0.66971  0.74884  0.40693  1.0000 -0.3806590524
O   O25       1.0  0.37921  0.75393  0.12331  1.0000 -0.4503979992
O   O26       1.0  0.12079  0.25393  0.87669  1.0000 -0.4503979992
O   O27       1.0  0.62079  0.24607  0.87669  1.0000 -0.4503979992
O   O28       1.0  0.87921  0.74607  0.12331  1.0000 -0.4503979992
O   O29       1.0  0.18561  0.71238  0.13735  1.0000 -0.4119034309
O   O30       1.0  0.31439  0.21238  0.86265  1.0000 -0.4119034309
O   O31       1.0  0.81439  0.28762  0.86265  1.0000 -0.4119034309
O   O32       1.0  0.68561  0.78762  0.13735  1.0000 -0.4119034309
O   O33       1.0  0.61710  0.95948  0.09235  1.0000 -0.4425178256
O   O34       1.0  0.88290  0.45948  0.90765  1.0000 -0.4425178256
O   O35       1.0  0.38290  0.04052  0.90765  1.0000 -0.4425178256
O   O36       1.0  0.11710  0.54052  0.09235  1.0000 -0.4425178256
O   O37       1.0  0.65432  0.00082  0.91021  1.0000 -0.3936301779
O   O38       1.0  0.84568  0.50082  0.08979  1.0000 -0.3936301779
O   O39       1.0  0.34568  0.99918  0.08979  1.0000 -0.3936301779
O   O40       1.0  0.15432  0.49918  0.91021  1.0000 -0.3936301779
O   O41       1.0  0.38432  0.95827  0.42887  1.0000 -0.4309388224
O   O42       1.0  0.11568  0.45827  0.57113  1.0000 -0.4309388224
O   O43       1.0  0.61568  0.04173  0.57113  1.0000 -0.4309388224
O   O44       1.0  0.88432  0.54173  0.42887  1.0000 -0.4309388224
O   O45       1.0  0.37225  0.00060  0.62016  1.0000 -0.4425178256
O   O46       1.0  0.12775  0.50060  0.37984  1.0000 -0.4425178256
O   O47       1.0  0.62775  0.99940  0.37984  1.0000 -0.4425178256
O   O48       1.0  0.87225  0.49940  0.62016  1.0000 -0.4425178256
