# DDEC6 charges by PACMAN v1.1 (https://github.com/mtap-research/PACMAN-charge/)
data_2017[Co][sql]2[FSR]12
_chemical_formula_sum              "Co2 H40 C54 N4 O16"
_cell_length_a       10.1819
_cell_length_b       11.304
_cell_length_c       14.5532
_cell_angle_alpha    99.902
_cell_angle_beta     105.99
_cell_angle_gamma    104.631

_symmetry_space_group_name_H-M    "P 1"
_symmetry_Int_Tables_number       1

loop_
  _symmetry_equiv_pos_as_xyz
  'x, y, z'

loop_
  _atom_site_type_symbol
  _atom_site_label
  _atom_site_symmetry_multiplicity
  _atom_site_fract_x
  _atom_site_fract_y
  _atom_site_fract_z
  _atom_site_occupancy
  _atom_site_charge
Co  Co1       1.0  0.14968  0.39195  0.05088  1.0000 0.8476369014
Co  Co2       1.0  0.85032  0.60805  0.94912  1.0000 0.8476369014
H   H1        1.0  0.04320  0.10160  0.95860  1.0000 0.1104105914
H   H2        1.0  0.94290  0.36880  0.84800  1.0000 0.1104105914
H   H3        1.0  0.88570  0.95040  0.82000  1.0000 0.1378545617
H   H4        1.0  0.78650  0.22620  0.70510  1.0000 0.1211638928
H   H5        1.0  0.73960  0.89860  0.17050  1.0000 0.3666083445
H   H6        1.0  0.59130  0.39560  0.03640  1.0000 0.1304712567
H   H7        1.0  0.41770  0.09710  0.12740  1.0000 0.1211638928
H   H8        1.0  0.59460  0.92110  0.41030  1.0000 0.1211638928
H   H9        1.0  0.81380  0.15890  0.10740  1.0000 0.1211638928
H   H10       1.0  0.41440  0.62600  0.14630  1.0000 0.1104105914
H   H11       1.0  0.55980  0.76250  0.29560  1.0000 0.1304712567
H   H12       1.0  0.67250  0.83020  0.71340  1.0000 0.1304712567
H   H13       1.0  0.30790  0.57110  0.42360  1.0000 0.1304712567
H   H14       1.0  0.16870  0.44250  0.27060  1.0000 0.1211638928
H   H15       1.0  0.77110  0.09450  0.41810  1.0000 0.1304712567
H   H16       1.0  0.77190  0.23120  0.46300  1.0000 0.1304712567
H   H17       1.0  0.62730  0.11820  0.42190  1.0000 0.1211638928
H   H18       1.0  0.55440  0.64100  0.71160  1.0000 0.1211638928
H   H19       1.0  0.41240  0.53210  0.64550  1.0000 0.1304712567
H   H20       1.0  0.41170  0.67250  0.66970  1.0000 0.1211638928
H   H21       1.0  0.95680  0.89840  0.04140  1.0000 0.1104105914
H   H22       1.0  0.05710  0.63120  0.15200  1.0000 0.1104105914
H   H23       1.0  0.11430  0.04960  0.18000  1.0000 0.1378545617
H   H24       1.0  0.21350  0.77380  0.29490  1.0000 0.1211638928
H   H25       1.0  0.26040  0.10140  0.82950  1.0000 0.3666083445
H   H26       1.0  0.40870  0.60440  0.96360  1.0000 0.1304712567
H   H27       1.0  0.58230  0.90290  0.87260  1.0000 0.1211638928
H   H28       1.0  0.40540  0.07890  0.58970  1.0000 0.1211638928
H   H29       1.0  0.18620  0.84110  0.89260  1.0000 0.1211638928
H   H30       1.0  0.58560  0.37400  0.85370  1.0000 0.1104105914
H   H31       1.0  0.44020  0.23750  0.70440  1.0000 0.1304712567
H   H32       1.0  0.32750  0.16980  0.28660  1.0000 0.1304712567
H   H33       1.0  0.69210  0.42890  0.57640  1.0000 0.1304712567
H   H34       1.0  0.83130  0.55750  0.72940  1.0000 0.1211638928
H   H35       1.0  0.22890  0.90550  0.58190  1.0000 0.1304712567
H   H36       1.0  0.22810  0.76880  0.53700  1.0000 0.1304712567
H   H37       1.0  0.37270  0.88180  0.57810  1.0000 0.1211638928
H   H38       1.0  0.44560  0.35900  0.28840  1.0000 0.1211638928
H   H39       1.0  0.58760  0.46790  0.35450  1.0000 0.1304712567
H   H40       1.0  0.58830  0.32750  0.33030  1.0000 0.1211638928
C   C1        1.0  0.99110  0.12720  0.90686  1.0000 0.0798425307
C   C2        1.0  0.93280  0.28340  0.84187  1.0000 0.0930885008
C   C3        1.0  0.89680  0.03540  0.82301  1.0000 -0.1918319533
C   C4        1.0  0.83770  0.19780  0.75535  1.0000 -0.1918319533
C   C5        1.0  0.85470  0.37640  0.05776  1.0000 0.5771444073
C   C6        1.0  0.59870  0.32480  0.05927  1.0000 -0.1125840838
C   C7        1.0  0.35180  0.29340  0.06965  1.0000 0.53048157
C   C8        1.0  0.49360  0.14500  0.11213  1.0000 -0.1239560576
C   C9        1.0  0.72490  0.29270  0.07217  1.0000 -0.0146293067
C   C10       1.0  0.60980  0.90250  0.47141  1.0000 -0.269223548
C   C11       1.0  0.48370  0.25220  0.08017  1.0000 -0.0171944132
C   C12       1.0  0.69530  0.99760  0.55583  1.0000 0.1977013876
C   C13       1.0  0.61670  0.10890  0.12147  1.0000 -0.0388122475
C   C14       1.0  0.73160  0.18310  0.10130  1.0000 -0.126919243
C   C15       1.0  0.39210  0.61470  0.20270  1.0000 0.0930885008
C   C16       1.0  0.54570  0.77980  0.47457  1.0000 -0.0171944132
C   C17       1.0  0.45250  0.68500  0.37922  1.0000 0.1211638928
C   C18       1.0  0.48050  0.69760  0.29284  1.0000 -0.2008813093
C   C19       1.0  0.72160  0.97250  0.64927  1.0000 -0.0171944132
C   C20       1.0  0.81800  0.06920  0.74271  1.0000 0.1378545617
C   C21       1.0  0.56780  0.75490  0.56755  1.0000 0.1900616815
C   C22       1.0  0.65630  0.84940  0.65248  1.0000 -0.269223548
C   C23       1.0  0.62700  0.99470  0.15810  1.0000 0.53048157
C   C24       1.0  0.33220  0.58530  0.36847  1.0000 -0.2008813093
C   C25       1.0  0.24930  0.50780  0.27569  1.0000 0.0685570543
C   C26       1.0  0.72920  0.14260  0.45570  1.0000 -0.237519748
C   C27       1.0  0.46740  0.61890  0.65630  1.0000 -0.2311478327
C   C28       1.0  0.00890  0.87280  0.09314  1.0000 0.0798425307
C   C29       1.0  0.06720  0.71660  0.15813  1.0000 0.0930885008
C   C30       1.0  0.10320  0.96460  0.17699  1.0000 -0.1918319533
C   C31       1.0  0.16230  0.80220  0.24465  1.0000 -0.1918319533
C   C32       1.0  0.14530  0.62360  0.94224  1.0000 0.5771444073
C   C33       1.0  0.40130  0.67520  0.94073  1.0000 -0.1125840838
C   C34       1.0  0.64820  0.70660  0.93035  1.0000 0.53048157
C   C35       1.0  0.50640  0.85500  0.88787  1.0000 -0.1239560576
C   C36       1.0  0.27510  0.70730  0.92783  1.0000 -0.0171944132
C   C37       1.0  0.39020  0.09750  0.52859  1.0000 -0.269223548
C   C38       1.0  0.51630  0.74780  0.91983  1.0000 -0.0171944132
C   C39       1.0  0.30470  0.00240  0.44417  1.0000 0.1977013876
C   C40       1.0  0.38330  0.89110  0.87853  1.0000 -0.0388122475
C   C41       1.0  0.26840  0.81690  0.89870  1.0000 -0.126919243
C   C42       1.0  0.60790  0.38530  0.79730  1.0000 0.0930885008
C   C43       1.0  0.45430  0.22020  0.52543  1.0000 -0.0171944132
C   C44       1.0  0.54750  0.31500  0.62078  1.0000 0.1211638928
C   C45       1.0  0.51950  0.30240  0.70716  1.0000 -0.2008813093
C   C46       1.0  0.27840  0.02750  0.35073  1.0000 -0.0171944132
C   C47       1.0  0.18200  0.93080  0.25729  1.0000 0.1378545617
C   C48       1.0  0.43220  0.24510  0.43245  1.0000 0.1900616815
C   C49       1.0  0.34370  0.15060  0.34752  1.0000 -0.269223548
C   C50       1.0  0.37300  0.00530  0.84190  1.0000 0.53048157
C   C51       1.0  0.66780  0.41470  0.63153  1.0000 -0.2008813093
C   C52       1.0  0.75070  0.49220  0.72431  1.0000 0.0685570543
C   C53       1.0  0.27080  0.85740  0.54430  1.0000 -0.237519748
C   C54       1.0  0.53260  0.38110  0.34370  1.0000 -0.2311478327
N   N1        1.0  0.01160  0.25131  0.91766  1.0000 -0.2477598856
N   N2        1.0  0.27670  0.51982  0.19248  1.0000 -0.2477598856
N   N3        1.0  0.98840  0.74869  0.08234  1.0000 -0.2477598856
N   N4        1.0  0.72330  0.48018  0.80752  1.0000 -0.2477598856
O   O1        1.0  0.97394  0.36065  0.09624  1.0000 -0.5560071835
O   O2        1.0  0.33913  0.37781  0.02479  1.0000 -0.5291468273
O   O3        1.0  0.83652  0.45658  0.01094  1.0000 -0.5505332122
O   O4        1.0  0.25960  0.24645  0.10658  1.0000 -0.5687254438
O   O5        1.0  0.73490  0.95827  0.14606  1.0000 -0.4339474062
O   O6        1.0  0.75460  0.11853  0.55105  1.0000 -0.1479733656
O   O7        1.0  0.50230  0.63513  0.57119  1.0000 -0.1440714965
O   O8        1.0  0.54720  0.94460  0.19690  1.0000 -0.4971745382
O   O9        1.0  0.02606  0.63935  0.90376  1.0000 -0.5560071835
O   O10       1.0  0.66087  0.62219  0.97521  1.0000 -0.5291468273
O   O11       1.0  0.16348  0.54342  0.98906  1.0000 -0.5505332122
O   O12       1.0  0.74040  0.75355  0.89342  1.0000 -0.5687254438
O   O13       1.0  0.26510  0.04173  0.85394  1.0000 -0.4339474062
O   O14       1.0  0.24540  0.88147  0.44895  1.0000 -0.1479733656
O   O15       1.0  0.49770  0.36487  0.42881  1.0000 -0.1440714965
O   O16       1.0  0.45280  0.05540  0.80310  1.0000 -0.4971745382
