# DDEC6 charges by PACMAN v1.1 (https://github.com/mtap-research/PACMAN-charge/)
data_2017[Cu][ths]3[FSR]4
_chemical_formula_sum              "Cu8 C24 O48"
_cell_length_a       8.6771
_cell_length_b       33.9886
_cell_length_c       8.7407
_cell_angle_alpha    90
_cell_angle_beta     107.725
_cell_angle_gamma    90

_symmetry_space_group_name_H-M    "P 1"
_symmetry_Int_Tables_number       1

loop_
  _symmetry_equiv_pos_as_xyz
  'x, y, z'

loop_
  _atom_site_type_symbol
  _atom_site_label
  _atom_site_symmetry_multiplicity
  _atom_site_fract_x
  _atom_site_fract_y
  _atom_site_fract_z
  _atom_site_occupancy
  _atom_site_charge
Cu  Cu1       1.0  0.51495  0.79642  0.24944  1.0000 0.9160188463
Cu  Cu2       1.0  0.98505  0.29642  0.75056  1.0000 0.9093323376
Cu  Cu3       1.0  0.48505  0.20358  0.75056  1.0000 0.9093323376
Cu  Cu4       1.0  0.01495  0.70358  0.24944  1.0000 0.9093323376
Cu  Cu5       1.0  0.50076  0.95427  0.26020  1.0000 0.9093323376
Cu  Cu6       1.0  0.99924  0.45427  0.73980  1.0000 0.9093323376
Cu  Cu7       1.0  0.49924  0.04573  0.73980  1.0000 0.9093323376
Cu  Cu8       1.0  0.00076  0.54573  0.26020  1.0000 0.9093323376
C   C1        1.0  0.43530  0.87651  0.18020  1.0000 0.569750103
C   C2        1.0  0.06470  0.37651  0.81980  1.0000 0.569750103
C   C3        1.0  0.56470  0.12349  0.81980  1.0000 0.569750103
C   C4        1.0  0.93530  0.62349  0.18020  1.0000 0.569750103
C   C5        1.0  0.59030  0.87399  0.32890  1.0000 0.5601167467
C   C6        1.0  0.90970  0.37399  0.67110  1.0000 0.5601167467
C   C7        1.0  0.40970  0.12601  0.67110  1.0000 0.5601167467
C   C8        1.0  0.09030  0.62601  0.32890  1.0000 0.5601167467
C   C9        1.0  0.27550  0.74114  0.18530  1.0000 0.5523940096
C   C10       1.0  0.22450  0.24114  0.81470  1.0000 0.5523940096
C   C11       1.0  0.72450  0.25886  0.81470  1.0000 0.5523940096
C   C12       1.0  0.77550  0.75886  0.18530  1.0000 0.5601167467
C   C13       1.0  0.26190  0.76342  0.33560  1.0000 0.5336905446
C   C14       1.0  0.23810  0.26342  0.66440  1.0000 0.5336905446
C   C15       1.0  0.73810  0.23658  0.66440  1.0000 0.5376185801
C   C16       1.0  0.76190  0.73658  0.33560  1.0000 0.5376185801
C   C17       1.0  0.57840  0.98895  0.99910  1.0000 0.5523940096
C   C18       1.0  0.92160  0.48895  0.00090  1.0000 0.5523940096
C   C19       1.0  0.42160  0.01105  0.00090  1.0000 0.5523940096
C   C20       1.0  0.07840  0.51105  0.99910  1.0000 0.5523940096
C   C21       1.0  0.42940  0.98815  0.51440  1.0000 0.5376185801
C   C22       1.0  0.07060  0.48815  0.48560  1.0000 0.5376185801
C   C23       1.0  0.57060  0.01185  0.48560  1.0000 0.5376185801
C   C24       1.0  0.92940  0.51185  0.51440  1.0000 0.5376185801
O   O1        1.0  0.38615  0.84582  0.10527  1.0000 -0.4182683054
O   O2        1.0  0.11385  0.34582  0.89473  1.0000 -0.4182683054
O   O3        1.0  0.61385  0.15418  0.89473  1.0000 -0.4182683054
O   O4        1.0  0.88615  0.65418  0.10527  1.0000 -0.4182683054
O   O5        1.0  0.37127  0.90985  0.14709  1.0000 -0.4313759368
O   O6        1.0  0.12873  0.40985  0.85291  1.0000 -0.4313759368
O   O7        1.0  0.62873  0.09015  0.85291  1.0000 -0.4313759368
O   O8        1.0  0.87127  0.59015  0.14709  1.0000 -0.4313759368
O   O9        1.0  0.63725  0.84001  0.37786  1.0000 -0.4416546417
O   O10       1.0  0.86275  0.34001  0.62214  1.0000 -0.4416546417
O   O11       1.0  0.36275  0.15999  0.62214  1.0000 -0.4416546417
O   O12       1.0  0.13725  0.65999  0.37786  1.0000 -0.4416546417
O   O13       1.0  0.65545  0.90517  0.38664  1.0000 -0.4182683054
O   O14       1.0  0.84455  0.40517  0.61336  1.0000 -0.4182683054
O   O15       1.0  0.34455  0.09483  0.61336  1.0000 -0.4182683054
O   O16       1.0  0.15545  0.59483  0.38664  1.0000 -0.4182683054
O   O17       1.0  0.35231  0.79338  0.37545  1.0000 -0.4507475039
O   O18       1.0  0.14769  0.29338  0.62455  1.0000 -0.4507475039
O   O19       1.0  0.64769  0.20662  0.62455  1.0000 -0.4507475039
O   O20       1.0  0.85231  0.70662  0.37545  1.0000 -0.4507475039
O   O21       1.0  0.16876  0.75113  0.40610  1.0000 -0.3875296388
O   O22       1.0  0.33124  0.25113  0.59390  1.0000 -0.3875296388
O   O23       1.0  0.83124  0.24887  0.59390  1.0000 -0.3875296388
O   O24       1.0  0.66876  0.74887  0.40610  1.0000 -0.3875296388
O   O25       1.0  0.37853  0.75396  0.12299  1.0000 -0.4507475039
O   O26       1.0  0.12147  0.25396  0.87701  1.0000 -0.4507475039
O   O27       1.0  0.62147  0.24604  0.87701  1.0000 -0.4507475039
O   O28       1.0  0.87853  0.74604  0.12299  1.0000 -0.4507475039
O   O29       1.0  0.18513  0.71240  0.13694  1.0000 -0.4125901584
O   O30       1.0  0.31487  0.21240  0.86306  1.0000 -0.4125901584
O   O31       1.0  0.81487  0.28760  0.86306  1.0000 -0.4125901584
O   O32       1.0  0.68513  0.78760  0.13694  1.0000 -0.4125901584
O   O33       1.0  0.61761  0.95957  0.09176  1.0000 -0.4416546417
O   O34       1.0  0.88239  0.45957  0.90824  1.0000 -0.4507475039
O   O35       1.0  0.38239  0.04043  0.90824  1.0000 -0.4416546417
O   O36       1.0  0.11761  0.54043  0.09176  1.0000 -0.4416546417
O   O37       1.0  0.65357  0.00102  0.90970  1.0000 -0.402054568
O   O38       1.0  0.84643  0.50102  0.09030  1.0000 -0.402054568
O   O39       1.0  0.34643  0.99898  0.09030  1.0000 -0.402054568
O   O40       1.0  0.15357  0.49898  0.90970  1.0000 -0.402054568
O   O41       1.0  0.38377  0.95837  0.42881  1.0000 -0.4313759368
O   O42       1.0  0.11623  0.45837  0.57119  1.0000 -0.4313759368
O   O43       1.0  0.61623  0.04163  0.57119  1.0000 -0.4313759368
O   O44       1.0  0.88377  0.54163  0.42881  1.0000 -0.4313759368
O   O45       1.0  0.37252  0.00069  0.61997  1.0000 -0.4416546417
O   O46       1.0  0.12748  0.50069  0.38003  1.0000 -0.4416546417
O   O47       1.0  0.62748  0.99931  0.38003  1.0000 -0.4416546417
O   O48       1.0  0.87252  0.49931  0.61997  1.0000 -0.4416546417
