# DDEC6 charges by PACMAN v1.1 (https://github.com/mtap-research/PACMAN-charge/)
data_2017[Zn][ths]3[FSR]6
_chemical_formula_sum              "Zn4 H104 C116 N16 O24"
_cell_length_a       13.4138
_cell_length_b       13.4138
_cell_length_c       27.3884
_cell_angle_alpha    65.643
_cell_angle_beta     114.357
_cell_angle_gamma    137.641

_symmetry_space_group_name_H-M    "P 1"
_symmetry_Int_Tables_number       1

loop_
  _symmetry_equiv_pos_as_xyz
  'x, y, z'

loop_
  _atom_site_type_symbol
  _atom_site_label
  _atom_site_symmetry_multiplicity
  _atom_site_fract_x
  _atom_site_fract_y
  _atom_site_fract_z
  _atom_site_occupancy
  _atom_site_charge
Zn  Zn1       1.0  0.50740  0.92198  0.93102  1.0000 0.8313248634
Zn  Zn2       1.0  0.75538  0.17444  0.43027  1.0000 0.8554233789
Zn  Zn3       1.0  0.92198  0.50740  0.06898  1.0000 0.8313248634
Zn  Zn4       1.0  0.17444  0.75538  0.56973  1.0000 0.8554233789
H   H1        1.0  0.63510  0.92610  0.10700  1.0000 0.1195830849
H   H2        1.0  0.76000  0.96940  0.19640  1.0000 0.1195830849
H   H3        1.0  0.13630  0.15690  0.15970  1.0000 0.1195830849
H   H4        1.0  0.01850  0.12530  0.07060  1.0000 0.1195830849
H   H5        1.0  0.26000  0.24020  0.31440  1.0000 0.1292787361
H   H6        1.0  0.45020  0.24160  0.36000  1.0000 0.1102992307
H   H7        1.0  0.26180  0.93820  0.27330  1.0000 0.1102992307
H   H8        1.0  0.06710  0.93030  0.23050  1.0000 0.1195830849
H   H9        1.0  0.95390  0.95830  0.33880  1.0000 0.1292787361
H   H10       1.0  0.88350  0.00710  0.38430  1.0000 0.1195830849
H   H11       1.0  0.94390  0.33530  0.25830  1.0000 0.1292787361
H   H12       1.0  0.01370  0.28790  0.21090  1.0000 0.1292787361
H   H13       1.0  0.43590  0.41250  0.81440  1.0000 0.1292787361
H   H14       1.0  0.44150  0.22570  0.86010  1.0000 0.1195830849
H   H15       1.0  0.74570  0.41730  0.77320  1.0000 0.1195830849
H   H16       1.0  0.74560  0.60760  0.72940  1.0000 0.1195830849
H   H17       1.0  0.40250  0.67430  0.70990  1.0000 0.1292787361
H   H18       1.0  0.35060  0.73980  0.75550  1.0000 0.1292787361
H   H19       1.0  0.67210  0.79150  0.88270  1.0000 0.1195830849
H   H20       1.0  0.72150  0.72270  0.83660  1.0000 0.1195830849
H   H21       1.0  0.50870  0.52850  0.65910  1.0000 0.1195830849
H   H22       1.0  0.54890  0.64870  0.56870  1.0000 0.0992649525
H   H23       1.0  0.74000  0.03200  0.60320  1.0000 0.1102992307
H   H24       1.0  0.71960  0.92260  0.69440  1.0000 0.1195830849
H   H25       1.0  0.18090  0.67230  0.87780  1.0000 0.1195830849
H   H26       1.0  0.07860  0.43720  0.02540  1.0000 0.1400963346
H   H27       1.0  0.32880  0.69900  0.03420  1.0000 0.1292787361
H   H28       1.0  0.87120  0.30460  0.93530  1.0000 0.1292787361
H   H29       1.0  0.92320  0.40900  0.87770  1.0000 0.1195830849
H   H30       1.0  0.05270  0.28950  0.95450  1.0000 0.0895439416
H   H31       1.0  0.23060  0.47580  0.90120  1.0000 0.1195830849
H   H32       1.0  0.11210  0.46590  0.84830  1.0000 0.1195830849
H   H33       1.0  0.14400  0.33980  0.83050  1.0000 0.1102992307
H   H34       1.0  0.15410  0.26310  0.89350  1.0000 0.1102992307
H   H35       1.0  0.90280  0.06820  0.86340  1.0000 0.1102992307
H   H36       1.0  0.88670  0.18010  0.81720  1.0000 0.1195830849
H   H37       1.0  0.00490  0.51330  0.38140  1.0000 0.1195830849
H   H38       1.0  0.97720  0.33840  0.53830  1.0000 0.1292787361
H   H39       1.0  0.23280  0.57860  0.53370  1.0000 0.1400963346
H   H40       1.0  0.30020  0.80600  0.40630  1.0000 0.1292787361
H   H41       1.0  0.39240  0.77380  0.45830  1.0000 0.1292787361
H   H42       1.0  0.26910  0.68510  0.35470  1.0000 0.0992649525
H   H43       1.0  0.51460  0.89520  0.36070  1.0000 0.1660290241
H   H44       1.0  0.55520  0.83220  0.42200  1.0000 0.1400963346
H   H45       1.0  0.31620  0.53800  0.34000  1.0000 0.1195830849
H   H46       1.0  0.41660  0.51980  0.39360  1.0000 0.1102992307
H   H47       1.0  0.60810  0.76070  0.38380  1.0000 0.1292787361
H   H48       1.0  0.51660  0.77460  0.32500  1.0000 0.1195830849
H   H49       1.0  0.80140  0.16140  0.87510  1.0000 0.282989937
H   H50       1.0  0.84650  0.08470  0.92100  1.0000 0.2955452084
H   H51       1.0  0.33760  0.53980  0.44860  1.0000 0.2853314161
H   H52       1.0  0.19660  0.46560  0.40660  1.0000 0.2749848842
H   H53       1.0  0.92610  0.63510  0.89300  1.0000 0.1195830849
H   H54       1.0  0.96940  0.76000  0.80360  1.0000 0.1195830849
H   H55       1.0  0.15690  0.13630  0.84030  1.0000 0.1195830849
H   H56       1.0  0.12530  0.01850  0.92940  1.0000 0.1195830849
H   H57       1.0  0.24020  0.26000  0.68560  1.0000 0.1292787361
H   H58       1.0  0.24160  0.45020  0.64000  1.0000 0.1102992307
H   H59       1.0  0.93820  0.26180  0.72670  1.0000 0.1102992307
H   H60       1.0  0.93030  0.06710  0.76950  1.0000 0.1195830849
H   H61       1.0  0.95830  0.95390  0.66120  1.0000 0.1292787361
H   H62       1.0  0.00710  0.88350  0.61570  1.0000 0.1195830849
H   H63       1.0  0.33530  0.94390  0.74170  1.0000 0.1292787361
H   H64       1.0  0.28790  0.01370  0.78910  1.0000 0.1292787361
H   H65       1.0  0.41250  0.43590  0.18560  1.0000 0.1292787361
H   H66       1.0  0.22570  0.44150  0.13990  1.0000 0.1195830849
H   H67       1.0  0.41730  0.74570  0.22680  1.0000 0.1195830849
H   H68       1.0  0.60760  0.74560  0.27060  1.0000 0.1195830849
H   H69       1.0  0.67430  0.40250  0.29010  1.0000 0.1292787361
H   H70       1.0  0.73980  0.35060  0.24450  1.0000 0.1292787361
H   H71       1.0  0.79150  0.67210  0.11730  1.0000 0.1195830849
H   H72       1.0  0.72270  0.72150  0.16340  1.0000 0.1195830849
H   H73       1.0  0.52850  0.50870  0.34090  1.0000 0.1195830849
H   H74       1.0  0.64870  0.54890  0.43130  1.0000 0.0992649525
H   H75       1.0  0.03200  0.74000  0.39680  1.0000 0.1102992307
H   H76       1.0  0.92260  0.71960  0.30560  1.0000 0.1195830849
H   H77       1.0  0.67230  0.18090  0.12220  1.0000 0.1195830849
H   H78       1.0  0.43720  0.07860  0.97460  1.0000 0.1400963346
H   H79       1.0  0.69900  0.32880  0.96580  1.0000 0.1292787361
H   H80       1.0  0.30460  0.87120  0.06470  1.0000 0.1292787361
H   H81       1.0  0.40900  0.92320  0.12230  1.0000 0.1195830849
H   H82       1.0  0.28950  0.05270  0.04550  1.0000 0.0895439416
H   H83       1.0  0.47580  0.23060  0.09880  1.0000 0.1195830849
H   H84       1.0  0.46590  0.11210  0.15170  1.0000 0.1195830849
H   H85       1.0  0.33980  0.14400  0.16950  1.0000 0.1102992307
H   H86       1.0  0.26310  0.15410  0.10650  1.0000 0.1102992307
H   H87       1.0  0.06820  0.90280  0.13660  1.0000 0.1102992307
H   H88       1.0  0.18010  0.88670  0.18280  1.0000 0.1195830849
H   H89       1.0  0.51330  0.00490  0.61860  1.0000 0.1195830849
H   H90       1.0  0.33840  0.97720  0.46170  1.0000 0.1292787361
H   H91       1.0  0.57860  0.23280  0.46630  1.0000 0.1400963346
H   H92       1.0  0.80600  0.30020  0.59370  1.0000 0.1292787361
H   H93       1.0  0.77380  0.39240  0.54170  1.0000 0.1292787361
H   H94       1.0  0.68510  0.26910  0.64530  1.0000 0.0992649525
H   H95       1.0  0.89520  0.51460  0.63930  1.0000 0.1660290241
H   H96       1.0  0.83220  0.55520  0.57800  1.0000 0.1400963346
H   H97       1.0  0.53800  0.31620  0.66000  1.0000 0.1195830849
H   H98       1.0  0.51980  0.41660  0.60640  1.0000 0.1102992307
H   H99       1.0  0.76070  0.60810  0.61620  1.0000 0.1292787361
H   H100      1.0  0.77460  0.51660  0.67500  1.0000 0.1195830849
H   H101      1.0  0.16140  0.80140  0.12490  1.0000 0.282989937
H   H102      1.0  0.08470  0.84650  0.07900  1.0000 0.2955452084
H   H103      1.0  0.53980  0.33760  0.55140  1.0000 0.2853314161
H   H104      1.0  0.46560  0.19660  0.59340  1.0000 0.2749848842
C   C1        1.0  0.74120  0.00300  0.02163  1.0000 0.5436384955
C   C2        1.0  0.81565  0.02355  0.07892  1.0000 -0.0469474502
C   C3        1.0  0.73763  0.97477  0.11727  1.0000 -0.0913714924
C   C4        1.0  0.81159  0.99821  0.17076  1.0000 -0.1907755604
C   C5        1.0  0.95596  0.06164  0.18665  1.0000 0.1813599645
C   C6        1.0  0.03448  0.11052  0.14897  1.0000 -0.1907755604
C   C7        1.0  0.96389  0.09111  0.09626  1.0000 -0.0989623279
C   C8        1.0  0.14278  0.08402  0.26816  1.0000 0.1894643559
C   C9        1.0  0.25936  0.17704  0.30655  1.0000 -0.2008549939
C   C10       1.0  0.37344  0.17956  0.33328  1.0000 -0.0989623279
C   C11       1.0  0.37523  0.08837  0.32047  1.0000 -0.0708232083
C   C12       1.0  0.26129  0.99911  0.28234  1.0000 -0.0913714924
C   C13       1.0  0.14526  0.99474  0.25643  1.0000 -0.2086235088
C   C14       1.0  0.49919  0.09381  0.34690  1.0000 0.552582567
C   C15       1.0  0.98484  0.11276  0.26954  1.0000 0.1894643559
C   C16       1.0  0.95016  0.03344  0.32200  1.0000 -0.2086235088
C   C17       1.0  0.91072  0.06388  0.34942  1.0000 -0.1082163002
C   C18       1.0  0.91102  0.17958  0.32531  1.0000 -0.033505163
C   C19       1.0  0.94643  0.25937  0.27432  1.0000 -0.0840018959
C   C20       1.0  0.98619  0.23021  0.24572  1.0000 -0.1907755604
C   C21       1.0  0.86733  0.21367  0.35445  1.0000 0.5436384955
C   C22       1.0  0.58824  0.52796  0.76677  1.0000 0.1991473764
C   C23       1.0  0.49921  0.41439  0.80593  1.0000 -0.2008549939
C   C24       1.0  0.50229  0.30231  0.83303  1.0000 -0.0913714924
C   C25       1.0  0.59095  0.30065  0.82140  1.0000 -0.0469474502
C   C26       1.0  0.68323  0.41637  0.78179  1.0000 -0.0989623279
C   C27       1.0  0.68205  0.52875  0.75551  1.0000 -0.2086235088
C   C28       1.0  0.59537  0.18023  0.85017  1.0000 0.552582567
C   C29       1.0  0.55983  0.68597  0.76936  1.0000 0.1660290241
C   C30       1.0  0.45561  0.69579  0.74568  1.0000 -0.1703528584
C   C31       1.0  0.42569  0.73611  0.77229  1.0000 -0.0708232083
C   C32       1.0  0.50730  0.77230  0.82524  1.0000 -0.0411973554
C   C33       1.0  0.61567  0.76633  0.84761  1.0000 -0.0989623279
C   C34       1.0  0.64524  0.72476  0.82062  1.0000 -0.2008549939
C   C35       1.0  0.47511  0.81889  0.85298  1.0000 0.5562180161
C   C36       1.0  0.60684  0.71076  0.68610  1.0000 0.1991473764
C   C37       1.0  0.55781  0.63119  0.64823  1.0000 -0.2198707357
C   C38       1.0  0.58097  0.70263  0.59414  1.0000 -0.1082163002
C   C39       1.0  0.65239  0.85541  0.57767  1.0000 -0.0411973554
C   C40       1.0  0.69703  0.93137  0.61485  1.0000 -0.0913714924
C   C41       1.0  0.68123  0.86537  0.66891  1.0000 -0.2086235088
C   C42       1.0  0.66782  0.92378  0.51838  1.0000 0.552582567
C   C43       1.0  0.18597  0.64643  0.91618  1.0000 0.0816777527
C   C44       1.0  0.12922  0.51698  0.99654  1.0000 -0.0989623279
C   C45       1.0  0.26721  0.66139  0.00112  1.0000 -0.0167896523
C   C46       1.0  0.95722  0.37978  0.91573  1.0000 -0.1810123027
C   C47       1.0  0.01182  0.31198  0.91625  1.0000 0.1102992307
C   C48       1.0  0.12767  0.40633  0.88069  1.0000 -0.2198707357
C   C49       1.0  0.10480  0.29640  0.86434  1.0000 -0.1703528584
C   C50       1.0  0.93138  0.16502  0.85534  1.0000 -0.0596028761
C   C51       1.0  0.02974  0.49726  0.41996  1.0000 0.0723143696
C   C52       1.0  0.01687  0.40433  0.50587  1.0000 -0.0411973554
C   C53       1.0  0.15499  0.53421  0.50349  1.0000 -0.1082163002
C   C54       1.0  0.30646  0.73014  0.42781  1.0000 -0.1907755604
C   C55       1.0  0.33113  0.69007  0.39167  1.0000 0.0992649525
C   C56       1.0  0.48964  0.80396  0.38617  1.0000 -0.2521636159
C   C57       1.0  0.38350  0.57450  0.37468  1.0000 -0.1155150653
C   C58       1.0  0.51328  0.73652  0.36445  1.0000 -0.1703528584
C   C59       1.0  0.00300  0.74120  0.97837  1.0000 0.552582567
C   C60       1.0  0.02355  0.81565  0.92108  1.0000 -0.0469474502
C   C61       1.0  0.97477  0.73763  0.88273  1.0000 -0.0913714924
C   C62       1.0  0.99821  0.81159  0.82924  1.0000 -0.1907755604
C   C63       1.0  0.06164  0.95596  0.81335  1.0000 0.1813599645
C   C64       1.0  0.11052  0.03448  0.85103  1.0000 -0.1907755604
C   C65       1.0  0.09111  0.96389  0.90374  1.0000 -0.0989623279
C   C66       1.0  0.08402  0.14278  0.73184  1.0000 0.1894643559
C   C67       1.0  0.17704  0.25936  0.69345  1.0000 -0.2008549939
C   C68       1.0  0.17956  0.37344  0.66667  1.0000 -0.0989623279
C   C69       1.0  0.08837  0.37523  0.67953  1.0000 -0.0708232083
C   C70       1.0  0.99911  0.26129  0.71766  1.0000 -0.0913714924
C   C71       1.0  0.99474  0.14526  0.74357  1.0000 -0.2086235088
C   C72       1.0  0.09381  0.49919  0.65310  1.0000 0.552582567
C   C73       1.0  0.11276  0.98484  0.73046  1.0000 0.1894643559
C   C74       1.0  0.03344  0.95016  0.67800  1.0000 -0.2086235088
C   C75       1.0  0.06388  0.91072  0.65058  1.0000 -0.1082163002
C   C76       1.0  0.17958  0.91102  0.67469  1.0000 -0.033505163
C   C77       1.0  0.25937  0.94643  0.72568  1.0000 -0.0840018959
C   C78       1.0  0.23021  0.98619  0.75428  1.0000 -0.1907755604
C   C79       1.0  0.21367  0.86733  0.64555  1.0000 0.5436384955
C   C80       1.0  0.52796  0.58824  0.23323  1.0000 0.1991473764
C   C81       1.0  0.41439  0.49921  0.19407  1.0000 -0.2008549939
C   C82       1.0  0.30231  0.50229  0.16697  1.0000 -0.0913714924
C   C83       1.0  0.30065  0.59095  0.17860  1.0000 -0.0469474502
C   C84       1.0  0.41637  0.68323  0.21821  1.0000 -0.0989623279
C   C85       1.0  0.52875  0.68205  0.24449  1.0000 -0.2086235088
C   C86       1.0  0.18023  0.59537  0.14983  1.0000 0.552582567
C   C87       1.0  0.68597  0.55983  0.23064  1.0000 0.1660290241
C   C88       1.0  0.69579  0.45561  0.25432  1.0000 -0.1703528584
C   C89       1.0  0.73611  0.42569  0.22771  1.0000 -0.0708232083
C   C90       1.0  0.77230  0.50730  0.17476  1.0000 -0.0411973554
C   C91       1.0  0.76633  0.61567  0.15239  1.0000 -0.0989623279
C   C92       1.0  0.72476  0.64524  0.17938  1.0000 -0.2008549939
C   C93       1.0  0.81889  0.47511  0.14702  1.0000 0.5562180161
C   C94       1.0  0.71076  0.60684  0.31390  1.0000 0.1991473764
C   C95       1.0  0.63119  0.55781  0.35177  1.0000 -0.2198707357
C   C96       1.0  0.70263  0.58097  0.40586  1.0000 -0.1082163002
C   C97       1.0  0.85541  0.65239  0.42233  1.0000 -0.0411973554
C   C98       1.0  0.93137  0.69703  0.38515  1.0000 -0.0913714924
C   C99       1.0  0.86537  0.68123  0.33109  1.0000 -0.2086235088
C   C100      1.0  0.92378  0.66782  0.48162  1.0000 0.552582567
C   C101      1.0  0.64643  0.18597  0.08382  1.0000 0.0816777527
C   C102      1.0  0.51698  0.12922  0.00346  1.0000 -0.0989623279
C   C103      1.0  0.66139  0.26721  0.99888  1.0000 -0.0167896523
C   C104      1.0  0.37978  0.95722  0.08427  1.0000 -0.1907755604
C   C105      1.0  0.31198  0.01182  0.08375  1.0000 0.1102992307
C   C106      1.0  0.40633  0.12767  0.11931  1.0000 -0.2198707357
C   C107      1.0  0.29640  0.10480  0.13566  1.0000 -0.1703528584
C   C108      1.0  0.16502  0.93138  0.14466  1.0000 -0.0596028761
C   C109      1.0  0.49726  0.02974  0.58004  1.0000 0.0723143696
C   C110      1.0  0.40433  0.01687  0.49413  1.0000 -0.0411973554
C   C111      1.0  0.53421  0.15499  0.49651  1.0000 -0.1082163002
C   C112      1.0  0.73014  0.30646  0.57219  1.0000 -0.1907755604
C   C113      1.0  0.69007  0.33113  0.60833  1.0000 0.0992649525
C   C114      1.0  0.80396  0.48964  0.61383  1.0000 -0.2521636159
C   C115      1.0  0.57450  0.38350  0.62532  1.0000 -0.1155150653
C   C116      1.0  0.73652  0.51328  0.63555  1.0000 -0.1703528584
N   N1        1.0  0.02620  0.08360  0.24158  1.0000 -0.1810123027
N   N2        1.0  0.58948  0.64272  0.74089  1.0000 -0.1810123027
N   N3        1.0  0.30014  0.74046  0.95077  1.0000 -0.2908235461
N   N4        1.0  0.07979  0.51141  0.94210  1.0000 0.048975791
N   N5        1.0  0.87954  0.16626  0.89320  1.0000 -0.2611447395
N   N6        1.0  0.93634  0.37786  0.45249  1.0000 -0.2908235461
N   N7        1.0  0.16742  0.59518  0.44928  1.0000 0.0315682358
N   N8        1.0  0.29817  0.54863  0.41223  1.0000 -0.229079795
N   N9        1.0  0.08360  0.02620  0.75842  1.0000 -0.1810123027
N   N10       1.0  0.64272  0.58948  0.25911  1.0000 -0.1810123027
N   N11       1.0  0.74046  0.30014  0.04923  1.0000 -0.2908235461
N   N12       1.0  0.51141  0.07979  0.05790  1.0000 0.048975791
N   N13       1.0  0.16626  0.87954  0.10680  1.0000 -0.2611447395
N   N14       1.0  0.37786  0.93634  0.54751  1.0000 -0.2908235461
N   N15       1.0  0.59518  0.16742  0.55072  1.0000 0.0315682358
N   N16       1.0  0.54863  0.29817  0.58777  1.0000 -0.229079795
O   O1        1.0  0.81080  0.03260  0.99068  1.0000 -0.5589471977
O   O2        1.0  0.61598  0.95462  0.00581  1.0000 -0.4901444436
O   O3        1.0  0.51309  0.03631  0.32653  1.0000 -0.5589471977
O   O4        1.0  0.58620  0.15680  0.38915  1.0000 -0.5746445776
O   O5        1.0  0.88117  0.32283  0.33576  1.0000 -0.5589471977
O   O6        1.0  0.81537  0.12403  0.39775  1.0000 -0.5500635284
O   O7        1.0  0.66565  0.17575  0.83372  1.0000 -0.5589471977
O   O8        1.0  0.53022  0.09498  0.89086  1.0000 -0.5500635284
O   O9        1.0  0.37021  0.81479  0.83241  1.0000 -0.5589471977
O   O10       1.0  0.56036  0.85924  0.89961  1.0000 -0.5776083828
O   O11       1.0  0.63964  0.85276  0.48988  1.0000 -0.5500635284
O   O12       1.0  0.71641  0.05539  0.50484  1.0000 -0.5776083828
O   O13       1.0  0.03260  0.81080  0.00932  1.0000 -0.5589471977
O   O14       1.0  0.95462  0.61598  0.99419  1.0000 -0.4901444436
O   O15       1.0  0.03631  0.51309  0.67347  1.0000 -0.5500635284
O   O16       1.0  0.15680  0.58620  0.61085  1.0000 -0.5776083828
O   O17       1.0  0.32283  0.88117  0.66424  1.0000 -0.5589471977
O   O18       1.0  0.12403  0.81537  0.60225  1.0000 -0.5500635284
O   O19       1.0  0.17575  0.66565  0.16628  1.0000 -0.5589471977
O   O20       1.0  0.09498  0.53022  0.10914  1.0000 -0.5500635284
O   O21       1.0  0.81479  0.37021  0.16759  1.0000 -0.5589471977
O   O22       1.0  0.85924  0.56036  0.10039  1.0000 -0.5776083828
O   O23       1.0  0.85276  0.63964  0.51012  1.0000 -0.5500635284
O   O24       1.0  0.05539  0.71641  0.49516  1.0000 -0.5776083828
