# DDEC6 charges by PACMAN v1.1 (https://github.com/mtap-research/PACMAN-charge/)
data_2017[Zn][sql]2[FSR]13
_chemical_formula_sum              "Zn2 H28 C52 N4 O8"
_cell_length_a       9.022
_cell_length_b       12.603
_cell_length_c       13.67
_cell_angle_alpha    93.062
_cell_angle_beta     90.971
_cell_angle_gamma    101.218

_symmetry_space_group_name_H-M    "P 1"
_symmetry_Int_Tables_number       1

loop_
  _symmetry_equiv_pos_as_xyz
  'x, y, z'

loop_
  _atom_site_type_symbol
  _atom_site_label
  _atom_site_symmetry_multiplicity
  _atom_site_fract_x
  _atom_site_fract_y
  _atom_site_fract_z
  _atom_site_occupancy
  _atom_site_charge
Zn  Zn1       1.0  0.15019  0.40026  0.03792  1.0000 0.7985066328
Zn  Zn2       1.0  0.84981  0.59974  0.96208  1.0000 0.7985066328
H   H1        1.0  0.40466  0.53965  0.92447  1.0000 0.117474682
H   H2        1.0  0.11984  0.82514  0.04527  1.0000 0.1311266277
H   H3        1.0  0.12222  0.27536  0.83896  1.0000 0.117474682
H   H4        1.0  0.14244  0.02601  0.04790  1.0000 0.1311266277
H   H5        1.0  0.47972  0.70034  0.12112  1.0000 0.1121347662
H   H6        1.0  0.61805  0.87073  0.15582  1.0000 0.117474682
H   H7        1.0  0.89983  0.25236  0.14057  1.0000 0.1121347662
H   H8        1.0  0.53465  0.22087  0.13580  1.0000 0.1121347662
H   H9        1.0  0.74607  0.24255  0.27419  1.0000 0.1385225185
H   H10       1.0  0.52706  0.54079  0.77915  1.0000 0.150251333
H   H11       1.0  0.23893  0.26474  0.69133  1.0000 0.1385225185
H   H12       1.0  0.13202  0.53251  0.23668  1.0000 0.1121347662
H   H13       1.0  0.63995  0.07203  0.16301  1.0000 0.117474682
H   H14       1.0  0.97746  0.53661  0.36737  1.0000 0.1385225185
H   H15       1.0  0.59534  0.46035  0.07553  1.0000 0.117474682
H   H16       1.0  0.88016  0.17486  0.95473  1.0000 0.1311266277
H   H17       1.0  0.87778  0.72464  0.16104  1.0000 0.117474682
H   H18       1.0  0.85756  0.97399  0.95210  1.0000 0.1311266277
H   H19       1.0  0.52028  0.29966  0.87888  1.0000 0.1121347662
H   H20       1.0  0.38195  0.12927  0.84418  1.0000 0.117474682
H   H21       1.0  0.10017  0.74764  0.85943  1.0000 0.1121347662
H   H22       1.0  0.46535  0.77913  0.86420  1.0000 0.1121347662
H   H23       1.0  0.25393  0.75745  0.72581  1.0000 0.1385225185
H   H24       1.0  0.47294  0.45921  0.22085  1.0000 0.150251333
H   H25       1.0  0.76107  0.73526  0.30867  1.0000 0.1385225185
H   H26       1.0  0.86798  0.46749  0.76332  1.0000 0.1121347662
H   H27       1.0  0.36005  0.92797  0.83699  1.0000 0.117474682
H   H28       1.0  0.02254  0.46339  0.63263  1.0000 0.1385225185
C   C1        1.0  0.18950  0.63340  0.06030  1.0000 0.5669148121
C   C2        1.0  0.37110  0.48420  0.87690  1.0000 0.0957792107
C   C3        1.0  0.22000  0.83490  0.06730  1.0000 -0.157580276
C   C4        1.0  0.32630  0.13610  0.08930  1.0000 -0.0123616174
C   C5        1.0  0.28210  0.74590  0.08040  1.0000 -0.0347518769
C   C6        1.0  0.45680  0.95510  0.12050  1.0000 0.0820192493
C   C7        1.0  0.30340  0.94170  0.08620  1.0000 0.0718006346
C   C8        1.0  0.25820  0.23410  0.07160  1.0000 0.5377493355
C   C9        1.0  0.40240  0.40220  0.71870  1.0000 0.150251333
C   C10       1.0  0.20570  0.32850  0.82660  1.0000 0.0820192493
C   C11       1.0  0.24190  0.03430  0.07090  1.0000 -0.157580276
C   C12       1.0  0.43570  0.76030  0.11320  1.0000 -0.1007438671
C   C13       1.0  0.51840  0.86240  0.13320  1.0000 -0.1503008154
C   C14       1.0  0.91580  0.30990  0.18750  1.0000 0.0927466108
C   C15       1.0  0.48620  0.39680  0.63180  1.0000 -0.0819067802
C   C16       1.0  0.47780  0.15140  0.12380  1.0000 -0.109479576
C   C17       1.0  0.82120  0.30340  0.26730  1.0000 -0.1920150813
C   C18       1.0  0.66050  0.39420  0.48460  1.0000 -0.018696197
C   C19       1.0  0.44640  0.48470  0.78990  1.0000 -0.1706012037
C   C20       1.0  0.56590  0.39570  0.56250  1.0000 -0.0123616174
C   C21       1.0  0.27490  0.32120  0.73750  1.0000 -0.2007583525
C   C22       1.0  0.05140  0.47500  0.24280  1.0000 0.0927466108
C   C23       1.0  0.54060  0.06200  0.13950  1.0000 -0.157580276
C   C24       1.0  0.74460  0.39210  0.41600  1.0000 -0.0930298302
C   C25       1.0  0.84220  0.39100  0.33680  1.0000 0.1739126671
C   C26       1.0  0.95990  0.47700  0.32270  1.0000 -0.1920150813
C   C27       1.0  0.81050  0.36660  0.93970  1.0000 0.5669148121
C   C28       1.0  0.62890  0.51580  0.12310  1.0000 0.0957792107
C   C29       1.0  0.78000  0.16510  0.93270  1.0000 -0.157580276
C   C30       1.0  0.67370  0.86390  0.91070  1.0000 -0.0123616174
C   C31       1.0  0.71790  0.25410  0.91960  1.0000 -0.0347518769
C   C32       1.0  0.54320  0.04490  0.87950  1.0000 0.0820192493
C   C33       1.0  0.69660  0.05830  0.91380  1.0000 0.0718006346
C   C34       1.0  0.74180  0.76590  0.92840  1.0000 0.5377493355
C   C35       1.0  0.59760  0.59780  0.28130  1.0000 0.150251333
C   C36       1.0  0.79430  0.67150  0.17340  1.0000 0.0820192493
C   C37       1.0  0.75810  0.96570  0.92910  1.0000 -0.157580276
C   C38       1.0  0.56430  0.23970  0.88680  1.0000 -0.1007438671
C   C39       1.0  0.48160  0.13760  0.86680  1.0000 -0.1503008154
C   C40       1.0  0.08420  0.69010  0.81250  1.0000 0.0927466108
C   C41       1.0  0.51380  0.60320  0.36820  1.0000 -0.0819067802
C   C42       1.0  0.52220  0.84860  0.87620  1.0000 -0.109479576
C   C43       1.0  0.17880  0.69660  0.73270  1.0000 -0.1920150813
C   C44       1.0  0.33950  0.60580  0.51540  1.0000 -0.018696197
C   C45       1.0  0.55360  0.51530  0.21010  1.0000 -0.1706012037
C   C46       1.0  0.43410  0.60430  0.43750  1.0000 -0.0123616174
C   C47       1.0  0.72510  0.67880  0.26250  1.0000 -0.2007583525
C   C48       1.0  0.94860  0.52500  0.75720  1.0000 0.0957792107
C   C49       1.0  0.45940  0.93800  0.86050  1.0000 -0.157580276
C   C50       1.0  0.25540  0.60790  0.58400  1.0000 -0.0930298302
C   C51       1.0  0.15780  0.60900  0.66320  1.0000 0.1739126671
C   C52       1.0  0.04010  0.52300  0.67730  1.0000 -0.1920150813
N   N1        1.0  0.02840  0.39400  0.17440  1.0000 -0.219845723
N   N2        1.0  0.25200  0.40760  0.89600  1.0000 -0.219845723
N   N3        1.0  0.97160  0.60600  0.82560  1.0000 -0.219845723
N   N4        1.0  0.74800  0.59240  0.10400  1.0000 -0.219845723
O   O1        1.0  0.25730  0.55550  0.07190  1.0000 -0.5418036129
O   O2        1.0  0.05340  0.62300  0.03730  1.0000 -0.559235796
O   O3        1.0  0.12860  0.22090  0.03200  1.0000 -0.559235796
O   O4        1.0  0.33450  0.32770  0.09680  1.0000 -0.550743207
O   O5        1.0  0.74270  0.44450  0.92810  1.0000 -0.5418036129
O   O6        1.0  0.94660  0.37700  0.96270  1.0000 -0.559235796
O   O7        1.0  0.87140  0.77910  0.96800  1.0000 -0.559235796
O   O8        1.0  0.66550  0.67230  0.90320  1.0000 -0.550743207
