# DDEC6 charges by PACMAN v1.1 (https://github.com/mtap-research/PACMAN-charge/)
data_2017[V][nan]3[FSR]10
_chemical_formula_sum              "V4 H16 C32 O20"
_cell_length_a       12.2665
_cell_length_b       12.2665
_cell_length_c       12.2665
_cell_angle_alpha    103.926
_cell_angle_beta     103.926
_cell_angle_gamma    121.242

_symmetry_space_group_name_H-M    "P 1"
_symmetry_Int_Tables_number       1

loop_
  _symmetry_equiv_pos_as_xyz
  'x, y, z'

loop_
  _atom_site_type_symbol
  _atom_site_label
  _atom_site_symmetry_multiplicity
  _atom_site_fract_x
  _atom_site_fract_y
  _atom_site_fract_z
  _atom_site_occupancy
  _atom_site_charge
V   V1        1.0  0.19102  0.80898  0.00000  1.0000 1.6709515908
V   V2        1.0  0.05898  0.55898  0.11796  1.0000 1.6709515908
V   V3        1.0  0.44102  0.94102  0.88204  1.0000 1.6709515908
V   V4        1.0  0.80898  0.19102  0.00000  1.0000 1.6709515908
H   H1        1.0  0.12600  0.12600  0.00000  1.0000 0.1434171655
H   H2        1.0  0.12400  0.62400  0.50000  1.0000 0.1434171655
H   H3        1.0  0.87400  0.87400  0.00000  1.0000 0.1434171655
H   H4        1.0  0.37600  0.87600  0.50000  1.0000 0.1434171655
H   H5        1.0  0.48053  0.28897  0.95480  1.0000 0.1269180205
H   H6        1.0  0.76947  0.22427  0.30844  1.0000 0.1269180205
H   H7        1.0  0.71103  0.51947  0.04520  1.0000 0.1269180205
H   H8        1.0  0.77573  0.23053  0.69156  1.0000 0.1269180205
H   H9        1.0  0.53897  0.08417  0.30844  1.0000 0.1269180205
H   H10       1.0  0.47427  0.66583  0.95480  1.0000 0.1269180205
H   H11       1.0  0.91583  0.46103  0.69156  1.0000 0.1269180205
H   H12       1.0  0.33417  0.52573  0.04520  1.0000 0.1269180205
H   H13       1.0  0.43100  0.87500  0.05600  1.0000 0.4196349838
H   H14       1.0  0.81900  0.37500  0.94400  1.0000 0.4196349838
H   H15       1.0  0.12500  0.56900  0.94400  1.0000 0.4196349838
H   H16       1.0  0.62500  0.18100  0.05600  1.0000 0.4196349838
C   C1        1.0  0.30120  0.06870  0.95430  1.0000 0.6239139744
C   C2        1.0  0.94880  0.40310  0.26750  1.0000 0.6239139744
C   C3        1.0  0.93130  0.69880  0.04570  1.0000 0.6239139744
C   C4        1.0  0.59690  0.05120  0.73250  1.0000 0.6239139744
C   C5        1.0  0.31870  0.86440  0.26750  1.0000 0.6239139744
C   C6        1.0  0.65310  0.88560  0.95430  1.0000 0.6239139744
C   C7        1.0  0.13560  0.68130  0.73250  1.0000 0.6239139744
C   C8        1.0  0.11440  0.34690  0.04570  1.0000 0.6239139744
C   C9        1.0  0.30810  0.19680  0.98390  1.0000 -0.039151351
C   C10       1.0  0.94190  0.42580  0.38870  1.0000 -0.039151351
C   C11       1.0  0.80320  0.69190  0.01610  1.0000 -0.039151351
C   C12       1.0  0.57420  0.05810  0.61130  1.0000 -0.039151351
C   C13       1.0  0.44680  0.96290  0.38870  1.0000 -0.039151351
C   C14       1.0  0.67580  0.78710  0.98390  1.0000 -0.039151351
C   C15       1.0  0.03710  0.55320  0.61130  1.0000 -0.039151351
C   C16       1.0  0.21290  0.32420  0.01610  1.0000 -0.039151351
C   C17       1.0  0.20370  0.20370  0.00000  1.0000 -0.0879217601
C   C18       1.0  0.04630  0.54630  0.50000  1.0000 -0.0879217601
C   C19       1.0  0.79630  0.79630  0.00000  1.0000 -0.0879217601
C   C20       1.0  0.45370  0.95370  0.50000  1.0000 -0.0879217601
C   C21       1.0  0.42720  0.31290  0.98090  1.0000 -0.1652890138
C   C22       1.0  0.82280  0.30370  0.38570  1.0000 -0.1652890138
C   C23       1.0  0.68710  0.57280  0.01910  1.0000 -0.1641794435
C   C24       1.0  0.69630  0.17720  0.61430  1.0000 -0.1652890138
C   C25       1.0  0.56290  0.08200  0.38570  1.0000 -0.1652890138
C   C26       1.0  0.55370  0.66800  0.98090  1.0000 -0.1652890138
C   C27       1.0  0.91800  0.43710  0.61430  1.0000 -0.1652890138
C   C28       1.0  0.33200  0.44630  0.01910  1.0000 -0.1652890138
C   C29       1.0  0.43620  0.43620  0.00000  1.0000 0.0718562053
C   C30       1.0  0.81380  0.31380  0.50000  1.0000 0.0718562053
C   C31       1.0  0.56380  0.56380  0.00000  1.0000 0.0718562053
C   C32       1.0  0.68620  0.18620  0.50000  1.0000 0.0718562053
O   O1        1.0  0.36940  0.87500  0.99440  1.0000 -0.9672636828
O   O2        1.0  0.88060  0.37500  0.00560  1.0000 -0.9672636828
O   O3        1.0  0.12500  0.63060  0.00560  1.0000 -0.9672636828
O   O4        1.0  0.62500  0.11940  0.99440  1.0000 -0.9672636828
O   O5        1.0  0.35900  0.04500  0.88980  1.0000 -0.5898620627
O   O6        1.0  0.89100  0.28080  0.18600  1.0000 -0.5898620627
O   O7        1.0  0.95500  0.64100  0.11020  1.0000 -0.5898620627
O   O8        1.0  0.71920  0.10900  0.81400  1.0000 -0.5898620627
O   O9        1.0  0.29500  0.90520  0.18600  1.0000 -0.5898620627
O   O10       1.0  0.53080  0.84480  0.88980  1.0000 -0.5898620627
O   O11       1.0  0.09480  0.70500  0.81400  1.0000 -0.5898620627
O   O12       1.0  0.15520  0.46920  0.11020  1.0000 -0.5898620627
O   O13       1.0  0.22780  0.98800  0.99840  1.0000 -0.5820055149
O   O14       1.0  0.02220  0.52060  0.26020  1.0000 -0.5820055149
O   O15       1.0  0.01200  0.77220  0.00160  1.0000 -0.5820055149
O   O16       1.0  0.47940  0.97780  0.73980  1.0000 -0.5820055149
O   O17       1.0  0.23800  0.73960  0.26020  1.0000 -0.5820055149
O   O18       1.0  0.77060  0.01040  0.99840  1.0000 -0.5820055149
O   O19       1.0  0.26040  0.76200  0.73980  1.0000 -0.5820055149
O   O20       1.0  0.98960  0.22940  0.00160  1.0000 -0.5820055149
