# DDEC6 charges by PACMAN v1.1 (https://github.com/mtap-research/PACMAN-charge/)
data_2017[Cd][lon]3[FSR]3
_chemical_formula_sum              "Cd4 H76 C116 N12 O24"
_cell_length_a       10.1676
_cell_length_b       17.3
_cell_length_c       17.485
_cell_angle_alpha    90
_cell_angle_beta     91.708
_cell_angle_gamma    90

_symmetry_space_group_name_H-M    "P 1"
_symmetry_Int_Tables_number       1

loop_
  _symmetry_equiv_pos_as_xyz
  'x, y, z'

loop_
  _atom_site_type_symbol
  _atom_site_label
  _atom_site_symmetry_multiplicity
  _atom_site_fract_x
  _atom_site_fract_y
  _atom_site_fract_z
  _atom_site_occupancy
  _atom_site_charge
Cd  Cd1       1.0  0.82736  0.36320  0.01990  1.0000 0.8496547012
Cd  Cd2       1.0  0.17264  0.86320  0.48010  1.0000 0.8496547012
Cd  Cd3       1.0  0.17264  0.63680  0.98010  1.0000 0.8496547012
Cd  Cd4       1.0  0.82736  0.13680  0.51990  1.0000 0.8496547012
H   H1        1.0  0.64810  0.33810  0.86730  1.0000 0.117643605
H   H2        1.0  0.35190  0.83810  0.63270  1.0000 0.117643605
H   H3        1.0  0.62720  0.37120  0.73960  1.0000 0.1389092213
H   H4        1.0  0.37280  0.87120  0.76040  1.0000 0.1389092213
H   H5        1.0  0.95680  0.49930  0.76520  1.0000 0.1389092213
H   H6        1.0  0.04320  0.99930  0.73480  1.0000 0.1389092213
H   H7        1.0  0.96930  0.46320  0.89190  1.0000 0.1120006066
H   H8        1.0  0.03070  0.96320  0.60810  1.0000 0.1120006066
H   H9        1.0  0.64830  0.37980  0.61850  1.0000 0.1283102218
H   H10       1.0  0.35170  0.87980  0.88150  1.0000 0.1283102218
H   H11       1.0  0.77320  0.52670  0.45520  1.0000 0.117643605
H   H12       1.0  0.22680  0.02670  0.04480  1.0000 0.117643605
H   H13       1.0  0.12210  0.74330  0.62220  1.0000 0.1037068335
H   H14       1.0  0.87790  0.24330  0.87780  1.0000 0.1037068335
H   H15       1.0  0.99630  0.63750  0.65260  1.0000 0.1389092213
H   H16       1.0  0.00370  0.13750  0.84740  1.0000 0.1389092213
H   H17       1.0  0.93070  0.60290  0.42640  1.0000 0.1283102218
H   H18       1.0  0.06930  0.10290  0.07360  1.0000 0.1283102218
H   H19       1.0  0.06210  0.70770  0.40360  1.0000 0.117643605
H   H20       1.0  0.93790  0.20770  0.09640  1.0000 0.117643605
H   H21       1.0  0.58350  0.30680  0.52320  1.0000 0.117643605
H   H22       1.0  0.41650  0.80680  0.97680  1.0000 0.117643605
H   H23       1.0  0.43700  0.25080  0.43430  1.0000 0.1389092213
H   H24       1.0  0.56300  0.75080  0.06570  1.0000 0.1389092213
H   H25       1.0  0.45150  0.44410  0.30480  1.0000 0.1283102218
H   H26       1.0  0.54850  0.94410  0.19520  1.0000 0.1283102218
H   H27       1.0  0.59360  0.50060  0.39490  1.0000 0.1120006066
H   H28       1.0  0.40640  0.00060  0.10510  1.0000 0.1120006066
H   H29       1.0  0.14280  0.34170  0.22650  1.0000 0.1389092213
H   H30       1.0  0.85720  0.84170  0.27350  1.0000 0.1389092213
H   H31       1.0  0.33060  0.36630  0.02690  1.0000 0.117643605
H   H32       1.0  0.66940  0.86630  0.47310  1.0000 0.117643605
H   H33       1.0  0.53660  0.31240  0.22160  1.0000 0.1389092213
H   H34       1.0  0.46340  0.81240  0.27840  1.0000 0.1389092213
H   H35       1.0  0.82290  0.52900  0.03110  1.0000 0.3469014285
H   H36       1.0  0.17710  0.02900  0.46890  1.0000 0.3469014285
H   H37       1.0  0.71590  0.50390  0.06630  1.0000 0.3322644575
H   H38       1.0  0.28410  0.00390  0.43370  1.0000 0.3322644575
H   H39       1.0  0.35190  0.66190  0.13270  1.0000 0.117643605
H   H40       1.0  0.64810  0.16190  0.36730  1.0000 0.117643605
H   H41       1.0  0.37280  0.62880  0.26040  1.0000 0.1389092213
H   H42       1.0  0.62720  0.12880  0.23960  1.0000 0.1389092213
H   H43       1.0  0.04320  0.50070  0.23480  1.0000 0.1389092213
H   H44       1.0  0.95680  0.00070  0.26520  1.0000 0.1389092213
H   H45       1.0  0.03070  0.53680  0.10810  1.0000 0.1120006066
H   H46       1.0  0.96930  0.03680  0.39190  1.0000 0.1120006066
H   H47       1.0  0.35170  0.62020  0.38150  1.0000 0.1283102218
H   H48       1.0  0.64830  0.12020  0.11850  1.0000 0.1283102218
H   H49       1.0  0.22680  0.47330  0.54480  1.0000 0.117643605
H   H50       1.0  0.77320  0.97330  0.95520  1.0000 0.117643605
H   H51       1.0  0.87790  0.25670  0.37780  1.0000 0.1037068335
H   H52       1.0  0.12210  0.75670  0.12220  1.0000 0.1037068335
H   H53       1.0  0.00370  0.36250  0.34740  1.0000 0.1389092213
H   H54       1.0  0.99630  0.86250  0.15260  1.0000 0.1389092213
H   H55       1.0  0.06930  0.39710  0.57360  1.0000 0.1283102218
H   H56       1.0  0.93070  0.89710  0.92640  1.0000 0.1283102218
H   H57       1.0  0.93790  0.29230  0.59640  1.0000 0.117643605
H   H58       1.0  0.06210  0.79230  0.90360  1.0000 0.117643605
H   H59       1.0  0.41650  0.69320  0.47680  1.0000 0.117643605
H   H60       1.0  0.58350  0.19320  0.02320  1.0000 0.117643605
H   H61       1.0  0.56300  0.74920  0.56570  1.0000 0.1389092213
H   H62       1.0  0.43700  0.24920  0.93430  1.0000 0.1389092213
H   H63       1.0  0.54850  0.55590  0.69520  1.0000 0.1283102218
H   H64       1.0  0.45150  0.05590  0.80480  1.0000 0.1283102218
H   H65       1.0  0.40640  0.49940  0.60510  1.0000 0.1120006066
H   H66       1.0  0.59360  0.99940  0.89490  1.0000 0.1120006066
H   H67       1.0  0.85720  0.65830  0.77350  1.0000 0.1389092213
H   H68       1.0  0.14280  0.15830  0.72650  1.0000 0.1389092213
H   H69       1.0  0.66940  0.63370  0.97310  1.0000 0.117643605
H   H70       1.0  0.33060  0.13370  0.52690  1.0000 0.117643605
H   H71       1.0  0.46340  0.68760  0.77840  1.0000 0.1389092213
H   H72       1.0  0.53660  0.18760  0.72160  1.0000 0.1389092213
H   H73       1.0  0.17710  0.47100  0.96890  1.0000 0.3469014285
H   H74       1.0  0.82290  0.97100  0.53110  1.0000 0.3469014285
H   H75       1.0  0.28410  0.49610  0.93370  1.0000 0.3322644575
H   H76       1.0  0.71590  0.99610  0.56630  1.0000 0.3322644575
C   C1        1.0  0.71210  0.37120  0.84620  1.0000 0.0819995345
C   C2        1.0  0.28790  0.87120  0.65380  1.0000 0.0819995345
C   C3        1.0  0.69930  0.39050  0.76970  1.0000 -0.1898107213
C   C4        1.0  0.30070  0.89050  0.73030  1.0000 -0.1898107213
C   C5        1.0  0.79120  0.43800  0.73680  1.0000 0.0819995345
C   C6        1.0  0.20880  0.93800  0.76320  1.0000 0.0819995345
C   C7        1.0  0.89220  0.46550  0.78470  1.0000 -0.1673009129
C   C8        1.0  0.10780  0.96550  0.71530  1.0000 -0.1673009129
C   C9        1.0  0.89890  0.44390  0.86050  1.0000 0.0819995345
C   C10       1.0  0.10110  0.94390  0.63950  1.0000 0.0819995345
C   C11       1.0  0.78450  0.46040  0.65469  1.0000 0.2018528847
C   C12       1.0  0.21550  0.96040  0.84531  1.0000 0.2018528847
C   C13       1.0  0.70030  0.42200  0.60234  1.0000 -0.2416827437
C   C14       1.0  0.29970  0.92200  0.89766  1.0000 -0.2416827437
C   C15       1.0  0.69380  0.44670  0.52580  1.0000 0.1283102218
C   C16       1.0  0.30620  0.94670  0.97420  1.0000 0.1283102218
C   C17       1.0  0.77420  0.50820  0.50640  1.0000 -0.2416827437
C   C18       1.0  0.22580  0.00820  0.99360  1.0000 -0.2416827437
C   C19       1.0  0.85650  0.54270  0.56170  1.0000 0.2018528847
C   C20       1.0  0.14350  0.04270  0.93830  1.0000 0.2018528847
C   C21       1.0  0.08080  0.71480  0.58170  1.0000 0.0819995345
C   C22       1.0  0.91920  0.21480  0.91830  1.0000 0.0877888469
C   C23       1.0  0.00530  0.65170  0.60050  1.0000 -0.1773302214
C   C24       1.0  0.99470  0.15170  0.89950  1.0000 -0.1773302214
C   C25       1.0  0.94240  0.60900  0.54270  1.0000 0.0877888469
C   C26       1.0  0.05760  0.10900  0.95730  1.0000 0.0877888469
C   C27       1.0  0.96750  0.63130  0.46830  1.0000 -0.1898107213
C   C28       1.0  0.03250  0.13130  0.03170  1.0000 -0.1898107213
C   C29       1.0  0.04540  0.69440  0.45520  1.0000 0.0819995345
C   C30       1.0  0.95460  0.19440  0.04480  1.0000 0.0819995345
C   C31       1.0  0.60320  0.40950  0.46866  1.0000 0.0431244938
C   C32       1.0  0.39680  0.90950  0.03134  1.0000 0.0431244938
C   C33       1.0  0.55590  0.33520  0.47910  1.0000 -0.1198384756
C   C34       1.0  0.44410  0.83520  0.02090  1.0000 -0.1198384756
C   C35       1.0  0.46920  0.30160  0.42630  1.0000 -0.1898107213
C   C36       1.0  0.53080  0.80160  0.07370  1.0000 -0.1898107213
C   C37       1.0  0.43020  0.34280  0.36200  1.0000 0.2480450651
C   C38       1.0  0.56980  0.84280  0.13800  1.0000 0.2480450651
C   C39       1.0  0.47740  0.41650  0.34974  1.0000 -0.2111071169
C   C40       1.0  0.52260  0.91650  0.15026  1.0000 -0.2111071169
C   C41       1.0  0.56230  0.44960  0.40300  1.0000 -0.1198384756
C   C42       1.0  0.43770  0.94960  0.09700  1.0000 -0.1198384756
C   C43       1.0  0.34170  0.32600  0.23580  1.0000 0.2480450651
C   C44       1.0  0.65830  0.82600  0.26420  1.0000 0.2480450651
C   C45       1.0  0.22150  0.34150  0.19860  1.0000 -0.2111071169
C   C46       1.0  0.77850  0.84150  0.30140  1.0000 -0.2111071169
C   C47       1.0  0.21690  0.35650  0.12051  1.0000 -0.0058411214
C   C48       1.0  0.78310  0.85650  0.37949  1.0000 -0.0058411214
C   C49       1.0  0.33300  0.35590  0.08030  1.0000 -0.1640612664
C   C50       1.0  0.66700  0.85590  0.41970  1.0000 -0.1640612664
C   C51       1.0  0.45290  0.34020  0.11790  1.0000 0.0140551223
C   C52       1.0  0.54710  0.84020  0.38210  1.0000 0.0140551223
C   C53       1.0  0.45560  0.32440  0.19590  1.0000 -0.2325605186
C   C54       1.0  0.54440  0.82440  0.30410  1.0000 -0.2325605186
C   C55       1.0  0.08660  0.37090  0.08060  1.0000 0.5390826805
C   C56       1.0  0.91340  0.87090  0.41940  1.0000 0.5390826805
C   C57       1.0  0.58000  0.34070  0.07620  1.0000 0.5390826805
C   C58       1.0  0.42000  0.84070  0.42380  1.0000 0.5390826805
C   C59       1.0  0.28790  0.62880  0.15380  1.0000 0.0819995345
C   C60       1.0  0.71210  0.12880  0.34620  1.0000 0.0819995345
C   C61       1.0  0.30070  0.60950  0.23030  1.0000 -0.1898107213
C   C62       1.0  0.69930  0.10950  0.26970  1.0000 -0.1898107213
C   C63       1.0  0.20880  0.56200  0.26320  1.0000 0.0819995345
C   C64       1.0  0.79120  0.06200  0.23680  1.0000 0.0819995345
C   C65       1.0  0.10780  0.53450  0.21530  1.0000 -0.1673009129
C   C66       1.0  0.89220  0.03450  0.28470  1.0000 -0.1673009129
C   C67       1.0  0.10110  0.55610  0.13950  1.0000 0.0819995345
C   C68       1.0  0.89890  0.05610  0.36050  1.0000 0.0819995345
C   C69       1.0  0.21550  0.53960  0.34531  1.0000 0.2018528847
C   C70       1.0  0.78450  0.03960  0.15469  1.0000 0.2018528847
C   C71       1.0  0.29970  0.57800  0.39766  1.0000 -0.2416827437
C   C72       1.0  0.70030  0.07800  0.10234  1.0000 -0.2416827437
C   C73       1.0  0.30620  0.55330  0.47420  1.0000 0.1283102218
C   C74       1.0  0.69380  0.05330  0.02580  1.0000 0.1283102218
C   C75       1.0  0.22580  0.49180  0.49360  1.0000 -0.2416827437
C   C76       1.0  0.77420  0.99180  0.00640  1.0000 -0.2416827437
C   C77       1.0  0.14350  0.45730  0.43830  1.0000 0.2018528847
C   C78       1.0  0.85650  0.95730  0.06170  1.0000 0.2018528847
C   C79       1.0  0.91920  0.28520  0.41830  1.0000 0.0877888469
C   C80       1.0  0.08080  0.78520  0.08170  1.0000 0.0877888469
C   C81       1.0  0.99470  0.34830  0.39950  1.0000 -0.1773302214
C   C82       1.0  0.00530  0.84830  0.10050  1.0000 -0.1773302214
C   C83       1.0  0.05760  0.39100  0.45730  1.0000 0.0877888469
C   C84       1.0  0.94240  0.89100  0.04270  1.0000 0.0877888469
C   C85       1.0  0.03250  0.36870  0.53170  1.0000 -0.1898107213
C   C86       1.0  0.96750  0.86870  0.96830  1.0000 -0.1898107213
C   C87       1.0  0.95460  0.30560  0.54480  1.0000 0.0819995345
C   C88       1.0  0.04540  0.80560  0.95520  1.0000 0.0819995345
C   C89       1.0  0.39680  0.59050  0.53134  1.0000 0.0431244938
C   C90       1.0  0.60320  0.09050  0.96866  1.0000 0.0431244938
C   C91       1.0  0.44410  0.66480  0.52090  1.0000 -0.1198384756
C   C92       1.0  0.55590  0.16480  0.97910  1.0000 -0.1198384756
C   C93       1.0  0.53080  0.69840  0.57370  1.0000 -0.1898107213
C   C94       1.0  0.46920  0.19840  0.92630  1.0000 -0.1898107213
C   C95       1.0  0.56980  0.65720  0.63800  1.0000 0.2480450651
C   C96       1.0  0.43020  0.15720  0.86200  1.0000 0.2480450651
C   C97       1.0  0.52260  0.58350  0.65026  1.0000 -0.2111071169
C   C98       1.0  0.47740  0.08350  0.84974  1.0000 -0.2111071169
C   C99       1.0  0.43770  0.55040  0.59700  1.0000 -0.1198384756
C   C100      1.0  0.56230  0.05040  0.90300  1.0000 -0.1198384756
C   C101      1.0  0.65830  0.67400  0.76420  1.0000 0.2480450651
C   C102      1.0  0.34170  0.17400  0.73580  1.0000 0.2480450651
C   C103      1.0  0.77850  0.65850  0.80140  1.0000 -0.2111071169
C   C104      1.0  0.22150  0.15850  0.69860  1.0000 -0.2111071169
C   C105      1.0  0.78310  0.64350  0.87949  1.0000 -0.0058411214
C   C106      1.0  0.21690  0.14350  0.62051  1.0000 -0.0058411214
C   C107      1.0  0.66700  0.64410  0.91970  1.0000 -0.1640612664
C   C108      1.0  0.33300  0.14410  0.58030  1.0000 -0.1640612664
C   C109      1.0  0.54710  0.65980  0.88210  1.0000 0.0140551223
C   C110      1.0  0.45290  0.15980  0.61790  1.0000 0.0140551223
C   C111      1.0  0.54440  0.67560  0.80410  1.0000 -0.2325605186
C   C112      1.0  0.45560  0.17560  0.69590  1.0000 -0.2325605186
C   C113      1.0  0.91340  0.62910  0.91940  1.0000 0.5390826805
C   C114      1.0  0.08660  0.12910  0.58060  1.0000 0.5390826805
C   C115      1.0  0.42000  0.65930  0.92380  1.0000 0.5390826805
C   C116      1.0  0.58000  0.15930  0.57620  1.0000 0.5390826805
N   N1        1.0  0.81070  0.39705  0.89178  1.0000 -0.2416827437
N   N2        1.0  0.18930  0.89705  0.60822  1.0000 -0.2416827437
N   N3        1.0  0.86190  0.51903  0.63499  1.0000 -0.3199048819
N   N4        1.0  0.13810  0.01903  0.86501  1.0000 -0.3199048819
N   N5        1.0  0.09920  0.73816  0.51087  1.0000 -0.2325605186
N   N6        1.0  0.90080  0.23816  0.98913  1.0000 -0.2325605186
N   N7        1.0  0.18930  0.60295  0.10822  1.0000 -0.2416827437
N   N8        1.0  0.81070  0.10295  0.39178  1.0000 -0.2416827437
N   N9        1.0  0.13810  0.48097  0.36501  1.0000 -0.3199048819
N   N10       1.0  0.86190  0.98097  0.13499  1.0000 -0.3199048819
N   N11       1.0  0.90080  0.26184  0.48913  1.0000 -0.2325605186
N   N12       1.0  0.09920  0.76184  0.01087  1.0000 -0.2325605186
O   O1        1.0  0.08100  0.39176  0.01190  1.0000 -0.5706250848
O   O2        1.0  0.91900  0.89176  0.48810  1.0000 -0.5706250848
O   O3        1.0  0.79420  0.49003  0.05563  1.0000 -0.6460778
O   O4        1.0  0.20580  0.99003  0.44437  1.0000 -0.6460778
O   O5        1.0  0.98460  0.35884  0.11806  1.0000 -0.5296443136
O   O6        1.0  0.01540  0.85884  0.38194  1.0000 -0.5296443136
O   O7        1.0  0.58040  0.36262  0.00762  1.0000 -0.5706250848
O   O8        1.0  0.41960  0.86262  0.49238  1.0000 -0.5706250848
O   O9        1.0  0.68340  0.31975  0.11185  1.0000 -0.5451865377
O   O10       1.0  0.31660  0.81975  0.38815  1.0000 -0.5442171277
O   O11       1.0  0.33870  0.30758  0.31304  1.0000 -0.2111071169
O   O12       1.0  0.66130  0.80758  0.18696  1.0000 -0.2111071169
O   O13       1.0  0.91900  0.60824  0.98810  1.0000 -0.5706250848
O   O14       1.0  0.08100  0.10824  0.51190  1.0000 -0.5706250848
O   O15       1.0  0.20580  0.50997  0.94437  1.0000 -0.6460778
O   O16       1.0  0.79420  0.00997  0.55563  1.0000 -0.6460778
O   O17       1.0  0.01540  0.64116  0.88194  1.0000 -0.5296443136
O   O18       1.0  0.98460  0.14116  0.61806  1.0000 -0.5296443136
O   O19       1.0  0.41960  0.63738  0.99238  1.0000 -0.5706250848
O   O20       1.0  0.58040  0.13738  0.50762  1.0000 -0.5706250848
O   O21       1.0  0.31660  0.68025  0.88815  1.0000 -0.5442171277
O   O22       1.0  0.68340  0.18025  0.61185  1.0000 -0.5451865377
O   O23       1.0  0.66130  0.69242  0.68696  1.0000 -0.2111071169
O   O24       1.0  0.33870  0.19242  0.81304  1.0000 -0.2111071169
