# DDEC6 charges by PACMAN v1.1 (https://github.com/mtap-research/PACMAN-charge/)
data_2017[Co][sql]2[FSR]17
_chemical_formula_sum              "Co2 H64 C80 N28 O12"
_cell_length_a       9.1109
_cell_length_b       24.1547
_cell_length_c       10.3683
_cell_angle_alpha    90
_cell_angle_beta     110.136
_cell_angle_gamma    90

_symmetry_space_group_name_H-M    "P 1"
_symmetry_Int_Tables_number       1

loop_
  _symmetry_equiv_pos_as_xyz
  'x, y, z'

loop_
  _atom_site_type_symbol
  _atom_site_label
  _atom_site_symmetry_multiplicity
  _atom_site_fract_x
  _atom_site_fract_y
  _atom_site_fract_z
  _atom_site_occupancy
  _atom_site_charge
Co  Co1       1.0  0.00000  0.50000  0.50000  1.0000 0.7218957265
Co  Co2       1.0  0.50000  0.00000  0.50000  1.0000 0.7218957265
H   H1        1.0  0.62040  0.58000  0.45500  1.0000 0.1292910968
H   H2        1.0  0.57320  0.59040  0.58480  1.0000 0.1292910968
H   H3        1.0  0.44310  0.67600  0.60610  1.0000 0.1203698651
H   H4        1.0  0.27400  0.79440  0.53980  1.0000 0.1203698651
H   H5        1.0  0.38990  0.76460  0.66920  1.0000 0.1203698651
H   H6        1.0  0.03270  0.45450  0.18530  1.0000 0.1292910968
H   H7        1.0  0.43000  0.80080  0.34830  1.0000 0.1292910968
H   H8        1.0  0.49580  0.54550  0.19730  1.0000 0.1292910968
H   H9        1.0  0.54840  0.64820  0.26760  1.0000 0.1203698651
H   H10       1.0  0.94370  0.79790  0.93950  1.0000 0.1203698651
H   H11       1.0  0.50290  0.74080  0.20860  1.0000 0.1203698651
H   H12       1.0  0.12730  0.44750  0.00560  1.0000 0.1120083966
H   H13       1.0  0.70090  0.76400  0.80560  1.0000 0.1292910968
H   H14       1.0  0.84150  0.95070  0.77800  1.0000 0.1292910968
H   H15       1.0  0.35270  0.49260  0.01060  1.0000 0.1120083966
H   H16       1.0  0.01170  0.88970  0.92490  1.0000 0.1203698651
H   H17       1.0  0.87960  0.08000  0.54500  1.0000 0.1292910968
H   H18       1.0  0.92680  0.09040  0.41520  1.0000 0.1292910968
H   H19       1.0  0.05690  0.17600  0.39390  1.0000 0.1203698651
H   H20       1.0  0.22600  0.29440  0.46020  1.0000 0.1203698651
H   H21       1.0  0.11010  0.26460  0.33080  1.0000 0.1203698651
H   H22       1.0  0.46730  0.95450  0.81470  1.0000 0.1292910968
H   H23       1.0  0.07000  0.30080  0.65170  1.0000 0.1292910968
H   H24       1.0  0.00420  0.04550  0.80270  1.0000 0.1292910968
H   H25       1.0  0.95160  0.14820  0.73240  1.0000 0.1203698651
H   H26       1.0  0.55630  0.29790  0.06050  1.0000 0.1203698651
H   H27       1.0  0.99710  0.24080  0.79140  1.0000 0.1203698651
H   H28       1.0  0.37270  0.94750  0.99440  1.0000 0.1120083966
H   H29       1.0  0.79910  0.26400  0.19440  1.0000 0.1292910968
H   H30       1.0  0.65850  0.45070  0.22200  1.0000 0.1292910968
H   H31       1.0  0.14730  0.99260  0.98940  1.0000 0.1120083966
H   H32       1.0  0.48830  0.38970  0.07510  1.0000 0.1203698651
H   H33       1.0  0.37960  0.42000  0.54500  1.0000 0.1292910968
H   H34       1.0  0.42680  0.40960  0.41520  1.0000 0.1292910968
H   H35       1.0  0.55690  0.32400  0.39390  1.0000 0.1203698651
H   H36       1.0  0.72600  0.20560  0.46020  1.0000 0.1203698651
H   H37       1.0  0.61010  0.23540  0.33080  1.0000 0.1203698651
H   H38       1.0  0.96730  0.54550  0.81470  1.0000 0.1292910968
H   H39       1.0  0.57000  0.19920  0.65170  1.0000 0.1292910968
H   H40       1.0  0.50420  0.45450  0.80270  1.0000 0.1292910968
H   H41       1.0  0.45160  0.35180  0.73240  1.0000 0.1203698651
H   H42       1.0  0.05630  0.20210  0.06050  1.0000 0.1203698651
H   H43       1.0  0.49710  0.25920  0.79140  1.0000 0.1203698651
H   H44       1.0  0.87270  0.55250  0.99440  1.0000 0.1120083966
H   H45       1.0  0.29910  0.23600  0.19440  1.0000 0.1292910968
H   H46       1.0  0.15850  0.04930  0.22200  1.0000 0.1292910968
H   H47       1.0  0.64730  0.50740  0.98940  1.0000 0.1120083966
H   H48       1.0  0.98830  0.11030  0.07510  1.0000 0.1203698651
H   H49       1.0  0.12040  0.92000  0.45500  1.0000 0.1292910968
H   H50       1.0  0.07320  0.90960  0.58480  1.0000 0.1292910968
H   H51       1.0  0.94310  0.82400  0.60610  1.0000 0.1203698651
H   H52       1.0  0.77400  0.70560  0.53980  1.0000 0.1203698651
H   H53       1.0  0.88990  0.73540  0.66920  1.0000 0.1203698651
H   H54       1.0  0.53270  0.04550  0.18530  1.0000 0.1292910968
H   H55       1.0  0.93000  0.69920  0.34830  1.0000 0.1292910968
H   H56       1.0  0.99580  0.95450  0.19730  1.0000 0.1292910968
H   H57       1.0  0.04840  0.85180  0.26760  1.0000 0.1203698651
H   H58       1.0  0.44370  0.70210  0.93950  1.0000 0.1203698651
H   H59       1.0  0.00290  0.75920  0.20860  1.0000 0.1203698651
H   H60       1.0  0.62730  0.05250  0.00560  1.0000 0.1120083966
H   H61       1.0  0.20090  0.73600  0.80560  1.0000 0.1292910968
H   H62       1.0  0.34150  0.54930  0.77800  1.0000 0.1292910968
H   H63       1.0  0.85270  0.00740  0.01060  1.0000 0.1120083966
H   H64       1.0  0.51170  0.61030  0.92490  1.0000 0.1203698651
C   C1        1.0  0.53680  0.59275  0.48530  1.0000 -0.1932124216
C   C2        1.0  0.21120  0.50395  0.30220  1.0000 0.1203698651
C   C3        1.0  0.34750  0.53077  0.30360  1.0000 0.0721221809
C   C4        1.0  0.45580  0.68911  0.52630  1.0000 -0.2201765484
C   C5        1.0  0.50010  0.65259  0.44250  1.0000 0.1120083966
C   C6        1.0  0.38240  0.78382  0.58500  1.0000 -0.1932124216
C   C7        1.0  0.66667  0.89358  0.69940  1.0000 0.1203698651
C   C8        1.0  0.12450  0.47228  0.18860  1.0000 -0.1527984142
C   C9        1.0  0.44780  0.76368  0.37260  1.0000 -0.1527984142
C   C10       1.0  0.40480  0.52745  0.19510  1.0000 -0.1735718268
C   C11       1.0  0.51820  0.67221  0.32410  1.0000 -0.1603025477
C   C12       1.0  0.87190  0.82136  0.87840  1.0000 -0.0968164261
C   C13       1.0  0.62760  0.83854  0.70970  1.0000 0.0721221809
C   C14       1.0  0.49140  0.72776  0.28900  1.0000 -0.0732055585
C   C15       1.0  0.43040  0.74488  0.49260  1.0000 0.1120083966
C   C16       1.0  0.18150  0.46871  0.08220  1.0000 -0.0870463848
C   C17       1.0  0.72890  0.80070  0.79970  1.0000 -0.1987769547
C   C18       1.0  0.81370  0.91392  0.78250  1.0000 -0.1330838929
C   C19       1.0  0.31910  0.49604  0.08530  1.0000 -0.0870463848
C   C20       1.0  0.91340  0.87744  0.86960  1.0000 -0.0968164261
C   C21       1.0  0.96320  0.09275  0.51470  1.0000 -0.1932124216
C   C22       1.0  0.28880  0.00395  0.69780  1.0000 0.1203698651
C   C23       1.0  0.15250  0.03077  0.69640  1.0000 0.0721221809
C   C24       1.0  0.04420  0.18911  0.47370  1.0000 -0.2201765484
C   C25       1.0  0.99990  0.15259  0.55750  1.0000 0.1120083966
C   C26       1.0  0.11760  0.28382  0.41500  1.0000 -0.1932124216
C   C27       1.0  0.83333  0.39358  0.30060  1.0000 0.1203698651
C   C28       1.0  0.37550  0.97228  0.81140  1.0000 -0.1527984142
C   C29       1.0  0.05220  0.26368  0.62740  1.0000 -0.1527984142
C   C30       1.0  0.09520  0.02745  0.80490  1.0000 -0.1735718268
C   C31       1.0  0.98180  0.17221  0.67590  1.0000 -0.1603025477
C   C32       1.0  0.62810  0.32136  0.12160  1.0000 -0.0968164261
C   C33       1.0  0.87240  0.33854  0.29030  1.0000 0.0721221809
C   C34       1.0  0.00860  0.22776  0.71100  1.0000 -0.0732055585
C   C35       1.0  0.06960  0.24488  0.50740  1.0000 0.1120083966
C   C36       1.0  0.31850  0.96871  0.91780  1.0000 -0.0870463848
C   C37       1.0  0.77110  0.30070  0.20030  1.0000 -0.1987769547
C   C38       1.0  0.68630  0.41392  0.21750  1.0000 -0.1330838929
C   C39       1.0  0.18090  0.99604  0.91470  1.0000 -0.0870463848
C   C40       1.0  0.58660  0.37744  0.13040  1.0000 -0.0968164261
C   C41       1.0  0.46320  0.40725  0.51470  1.0000 -0.1932124216
C   C42       1.0  0.78880  0.49605  0.69780  1.0000 0.1203698651
C   C43       1.0  0.65250  0.46923  0.69640  1.0000 0.0721221809
C   C44       1.0  0.54420  0.31089  0.47370  1.0000 -0.2201765484
C   C45       1.0  0.49990  0.34741  0.55750  1.0000 0.1120083966
C   C46       1.0  0.61760  0.21618  0.41500  1.0000 -0.1932124216
C   C47       1.0  0.33333  0.10642  0.30060  1.0000 0.1203698651
C   C48       1.0  0.87550  0.52772  0.81140  1.0000 -0.1527984142
C   C49       1.0  0.55220  0.23632  0.62740  1.0000 -0.1527984142
C   C50       1.0  0.59520  0.47255  0.80490  1.0000 -0.1735718268
C   C51       1.0  0.48180  0.32779  0.67590  1.0000 -0.1603025477
C   C52       1.0  0.12810  0.17864  0.12160  1.0000 -0.0968164261
C   C53       1.0  0.37240  0.16146  0.29030  1.0000 0.0721221809
C   C54       1.0  0.50860  0.27224  0.71100  1.0000 -0.0732055585
C   C55       1.0  0.56960  0.25512  0.50740  1.0000 0.1120083966
C   C56       1.0  0.81850  0.53129  0.91780  1.0000 -0.0870463848
C   C57       1.0  0.27110  0.19930  0.20030  1.0000 -0.1987769547
C   C58       1.0  0.18630  0.08608  0.21750  1.0000 -0.1330838929
C   C59       1.0  0.68090  0.50396  0.91470  1.0000 -0.0870463848
C   C60       1.0  0.08660  0.12256  0.13040  1.0000 -0.0968164261
C   C61       1.0  0.03680  0.90725  0.48530  1.0000 -0.1932124216
C   C62       1.0  0.71120  0.99605  0.30220  1.0000 0.1203698651
C   C63       1.0  0.84750  0.96923  0.30360  1.0000 0.0721221809
C   C64       1.0  0.95580  0.81089  0.52630  1.0000 -0.2201765484
C   C65       1.0  0.00010  0.84741  0.44250  1.0000 0.1120083966
C   C66       1.0  0.88240  0.71618  0.58500  1.0000 -0.1932124216
C   C67       1.0  0.16667  0.60642  0.69940  1.0000 0.1203698651
C   C68       1.0  0.62450  0.02772  0.18860  1.0000 -0.1527984142
C   C69       1.0  0.94780  0.73632  0.37260  1.0000 -0.1527984142
C   C70       1.0  0.90480  0.97255  0.19510  1.0000 -0.1735718268
C   C71       1.0  0.01820  0.82779  0.32410  1.0000 -0.1603025477
C   C72       1.0  0.37190  0.67864  0.87840  1.0000 -0.0968164261
C   C73       1.0  0.12760  0.66146  0.70970  1.0000 0.0721221809
C   C74       1.0  0.99140  0.77224  0.28900  1.0000 -0.0732055585
C   C75       1.0  0.93040  0.75512  0.49260  1.0000 0.1120083966
C   C76       1.0  0.68150  0.03129  0.08220  1.0000 -0.0870463848
C   C77       1.0  0.22890  0.69930  0.79970  1.0000 -0.1987769547
C   C78       1.0  0.31370  0.58608  0.78250  1.0000 -0.1330838929
C   C79       1.0  0.81910  0.00396  0.08530  1.0000 -0.0870463848
C   C80       1.0  0.41340  0.62256  0.86960  1.0000 -0.0968164261
N   N1        1.0  0.19016  0.51506  0.42534  1.0000 -0.2149703036
N   N2        1.0  0.30558  0.54681  0.49922  1.0000 -0.0732055585
N   N3        1.0  0.15910  0.42382  0.74007  1.0000 0.6804936845
N   N4        1.0  0.40072  0.55636  0.42817  1.0000 0.1292910968
N   N5        1.0  0.47870  0.83359  0.61888  1.0000 0.1203698651
N   N6        1.0  0.54058  0.91883  0.60096  1.0000 -0.2201765484
N   N7        1.0  0.42910  0.88184  0.55487  1.0000 -0.0789332222
N   N8        1.0  0.30984  0.01506  0.57466  1.0000 -0.2149703036
N   N9        1.0  0.19442  0.04681  0.50078  1.0000 -0.0732055585
N   N10       1.0  0.34090  0.92382  0.25993  1.0000 0.6804936845
N   N11       1.0  0.09928  0.05636  0.57183  1.0000 0.1292910968
N   N12       1.0  0.02130  0.33359  0.38112  1.0000 0.1203698651
N   N13       1.0  0.95942  0.41883  0.39904  1.0000 -0.2149703036
N   N14       1.0  0.07090  0.38184  0.44513  1.0000 -0.0789332222
N   N15       1.0  0.80984  0.48494  0.57466  1.0000 -0.2149703036
N   N16       1.0  0.69442  0.45319  0.50078  1.0000 -0.0732055585
N   N17       1.0  0.84090  0.57618  0.25993  1.0000 0.6804936845
N   N18       1.0  0.59928  0.44364  0.57183  1.0000 0.1292910968
N   N19       1.0  0.52130  0.16641  0.38112  1.0000 0.1203698651
N   N20       1.0  0.45942  0.08117  0.39904  1.0000 -0.2149703036
N   N21       1.0  0.57090  0.11816  0.44513  1.0000 -0.0789332222
N   N22       1.0  0.69016  0.98494  0.42534  1.0000 -0.2149703036
N   N23       1.0  0.80558  0.95319  0.49922  1.0000 -0.0732055585
N   N24       1.0  0.65910  0.07618  0.74007  1.0000 0.6804936845
N   N25       1.0  0.90072  0.94364  0.42817  1.0000 0.1292910968
N   N26       1.0  0.97870  0.66641  0.61888  1.0000 0.1203698651
N   N27       1.0  0.04058  0.58117  0.60096  1.0000 -0.2201765484
N   N28       1.0  0.92910  0.61816  0.55487  1.0000 -0.0789332222
O   O1        1.0  0.16925  0.46821  0.67661  1.0000 -0.4484994392
O   O2        1.0  0.03202  0.40083  0.71736  1.0000 -0.4018495884
O   O3        1.0  0.27985  0.40572  0.82628  1.0000 -0.4178507607
O   O4        1.0  0.33075  0.96821  0.32339  1.0000 -0.4484994392
O   O5        1.0  0.46798  0.90083  0.28264  1.0000 -0.4018495884
O   O6        1.0  0.22015  0.90572  0.17372  1.0000 -0.4178507607
O   O7        1.0  0.83075  0.53179  0.32339  1.0000 -0.4484994392
O   O8        1.0  0.96798  0.59917  0.28264  1.0000 -0.4018495884
O   O9        1.0  0.72015  0.59428  0.17372  1.0000 -0.4178507607
O   O10       1.0  0.66925  0.03179  0.67661  1.0000 -0.4484994392
O   O11       1.0  0.53202  0.09917  0.71736  1.0000 -0.4018495884
O   O12       1.0  0.77985  0.09428  0.82628  1.0000 -0.4178507607
