# DDEC6 charges by PACMAN v1.1 (https://github.com/mtap-research/PACMAN-charge/)
data_2017[Ni][nan]2[FSR]1
_chemical_formula_sum              "Ni4 H144 C112 N16 O20"
_cell_length_a       10.1917
_cell_length_b       17.774
_cell_length_c       20.353
_cell_angle_alpha    67.123
_cell_angle_beta     85.132
_cell_angle_gamma    86.726

_symmetry_space_group_name_H-M    "P 1"
_symmetry_Int_Tables_number       1

loop_
  _symmetry_equiv_pos_as_xyz
  'x, y, z'

loop_
  _atom_site_type_symbol
  _atom_site_label
  _atom_site_symmetry_multiplicity
  _atom_site_fract_x
  _atom_site_fract_y
  _atom_site_fract_z
  _atom_site_occupancy
  _atom_site_charge
Ni  Ni1       1.0  0.00718  0.78532  0.21394  1.0000 0.7472315118
Ni  Ni2       1.0  0.98006  0.22958  0.28932  1.0000 0.7437794193
Ni  Ni3       1.0  0.99282  0.21468  0.78606  1.0000 0.7472315118
Ni  Ni4       1.0  0.01994  0.77042  0.71068  1.0000 0.7437794193
H   H1        1.0  0.98710  0.28260  0.38940  1.0000 0.3387996465
H   H2        1.0  0.11740  0.25010  0.37940  1.0000 0.3710543796
H   H3        1.0  0.96690  0.80920  0.08720  1.0000 0.3387996465
H   H4        1.0  0.88060  0.74620  0.13280  1.0000 0.3710543796
H   H5        1.0  0.07040  0.35930  0.14530  1.0000 0.1175036958
H   H6        1.0  0.02280  0.49400  0.07690  1.0000 0.1291760464
H   H7        1.0  0.88070  0.57040  0.12470  1.0000 0.1291760464
H   H8        1.0  0.86360  0.37620  0.31050  1.0000 0.1005578265
H   H9        1.0  0.77770  0.50360  0.31090  1.0000 0.1005578265
H   H10       1.0  0.78370  0.58350  0.23840  1.0000 0.1175036958
H   H11       1.0  0.57290  0.62880  0.24470  1.0000 0.1092711188
H   H12       1.0  0.55290  0.55990  0.32370  1.0000 0.1005578265
H   H13       1.0  0.59140  0.41950  0.34420  1.0000 0.1005578265
H   H14       1.0  0.63370  0.39240  0.27880  1.0000 0.1092711188
H   H15       1.0  0.06990  0.06470  0.27940  1.0000 0.1092711188
H   H16       1.0  0.03470  0.92730  0.34190  1.0000 0.1398029685
H   H17       1.0  0.89710  0.88500  0.44750  1.0000 0.1291760464
H   H18       1.0  0.86490  0.11860  0.42840  1.0000 0.1092711188
H   H19       1.0  0.80530  0.92710  0.55160  1.0000 0.1291760464
H   H20       1.0  0.78160  0.02260  0.53340  1.0000 0.1092711188
H   H21       1.0  0.56880  0.02660  0.57080  1.0000 0.0906706654
H   H22       1.0  0.58560  0.92940  0.60920  1.0000 0.1092711188
H   H23       1.0  0.64060  0.03120  0.39770  1.0000 0.1092711188
H   H24       1.0  0.60370  0.08880  0.44100  1.0000 0.1092711188
H   H25       1.0  0.42610  0.43520  0.23230  1.0000 0.1005578265
H   H26       1.0  0.40710  0.36960  0.31260  1.0000 0.1175036958
H   H27       1.0  0.34570  0.60710  0.27640  1.0000 0.1092711188
H   H28       1.0  0.38810  0.58210  0.20980  1.0000 0.1005578265
H   H29       1.0  0.18790  0.41850  0.31460  1.0000 0.1092711188
H   H30       1.0  0.20870  0.48900  0.23670  1.0000 0.1092711188
H   H31       1.0  0.12960  0.62590  0.21620  1.0000 0.1175036958
H   H32       1.0  0.89290  0.67250  0.35870  1.0000 0.1175036958
H   H33       1.0  0.92290  0.54080  0.44120  1.0000 0.1291760464
H   H34       1.0  0.07010  0.45130  0.41230  1.0000 0.1175036958
H   H35       1.0  0.12880  0.89330  0.07300  1.0000 0.1092711188
H   H36       1.0  0.10200  0.12730  0.05050  1.0000 0.1291760464
H   H37       1.0  0.91860  0.95210  0.21660  1.0000 0.1092711188
H   H38       1.0  0.18860  0.01090  0.95280  1.0000 0.1175036958
H   H39       1.0  0.23430  0.09120  0.96140  1.0000 0.1092711188
H   H40       1.0  0.44560  0.07060  0.91100  1.0000 0.1092711188
H   H41       1.0  0.39920  0.98820  0.90640  1.0000 0.1092711188
H   H42       1.0  0.37050  0.01360  0.09450  1.0000 0.1092711188
H   H43       1.0  0.42820  0.08590  0.02400  1.0000 0.1005578265
H   H44       1.0  0.48220  0.71220  0.44540  1.0000 0.0789607202
H   H45       1.0  0.56330  0.84410  0.41640  1.0000 0.1005578265
H   H46       1.0  0.40530  0.84670  0.42540  1.0000 0.0906706654
H   H47       1.0  0.27610  0.75100  0.39470  1.0000 0.1005578265
H   H48       1.0  0.35130  0.68730  0.36530  1.0000 0.1005578265
H   H49       1.0  0.59840  0.68270  0.35250  1.0000 0.0906706654
H   H50       1.0  0.68030  0.74500  0.37180  1.0000 0.1005578265
H   H51       1.0  0.67940  0.89390  0.29440  1.0000 0.1092711188
H   H52       1.0  0.59680  0.92970  0.22450  1.0000 0.1005578265
H   H53       1.0  0.47930  0.95750  0.31910  1.0000 0.0696590658
H   H54       1.0  0.46570  0.73800  0.24070  1.0000 0.1005578265
H   H55       1.0  0.46480  0.83390  0.19200  1.0000 0.1005578265
H   H56       1.0  0.27250  0.90070  0.31780  1.0000 0.1005578265
H   H57       1.0  0.34450  0.93350  0.23890  1.0000 0.1005578265
H   H58       1.0  0.38780  0.34750  0.15940  1.0000 0.0906706654
H   H59       1.0  0.30480  0.29460  0.13000  1.0000 0.1005578265
H   H60       1.0  0.39220  0.09620  0.25760  1.0000 0.1005578265
H   H61       1.0  0.30980  0.14170  0.18860  1.0000 0.1092711188
H   H62       1.0  0.51950  0.27640  0.26750  1.0000 0.1005578265
H   H63       1.0  0.52230  0.17860  0.30470  1.0000 0.1005578265
H   H64       1.0  0.50960  0.08650  0.15560  1.0000 0.0591405774
H   H65       1.0  0.71170  0.29380  0.10570  1.0000 0.1092711188
H   H66       1.0  0.63280  0.34690  0.14510  1.0000 0.1005578265
H   H67       1.0  0.42520  0.20740  0.06960  1.0000 0.1005578265
H   H68       1.0  0.58300  0.20630  0.06070  1.0000 0.1005578265
H   H69       1.0  0.50200  0.33690  0.05530  1.0000 0.0696590658
H   H70       1.0  0.71410  0.13840  0.16470  1.0000 0.1092711188
H   H71       1.0  0.64280  0.09420  0.24280  1.0000 0.1005578265
H   H72       1.0  0.96080  0.08860  0.15430  1.0000 0.1398029685
H   H73       1.0  0.01290  0.71740  0.61060  1.0000 0.3387996465
H   H74       1.0  0.88260  0.74990  0.62060  1.0000 0.3710543796
H   H75       1.0  0.03310  0.19080  0.91280  1.0000 0.3387996465
H   H76       1.0  0.11940  0.25380  0.86720  1.0000 0.3710543796
H   H77       1.0  0.92960  0.64070  0.85470  1.0000 0.1175036958
H   H78       1.0  0.97720  0.50600  0.92310  1.0000 0.1291760464
H   H79       1.0  0.11930  0.42960  0.87530  1.0000 0.1291760464
H   H80       1.0  0.13640  0.62380  0.68950  1.0000 0.1005578265
H   H81       1.0  0.22230  0.49640  0.68910  1.0000 0.1005578265
H   H82       1.0  0.21630  0.41650  0.76160  1.0000 0.1175036958
H   H83       1.0  0.42710  0.37120  0.75530  1.0000 0.1092711188
H   H84       1.0  0.44710  0.44010  0.67630  1.0000 0.1005578265
H   H85       1.0  0.40860  0.58050  0.65580  1.0000 0.1005578265
H   H86       1.0  0.36630  0.60760  0.72120  1.0000 0.1092711188
H   H87       1.0  0.93010  0.93530  0.72060  1.0000 0.1092711188
H   H88       1.0  0.96530  0.07270  0.65810  1.0000 0.1398029685
H   H89       1.0  0.10290  0.11500  0.55250  1.0000 0.1291760464
H   H90       1.0  0.13510  0.88140  0.57160  1.0000 0.1092711188
H   H91       1.0  0.19470  0.07290  0.44840  1.0000 0.1291760464
H   H92       1.0  0.21840  0.97740  0.46660  1.0000 0.1092711188
H   H93       1.0  0.43120  0.97340  0.42920  1.0000 0.0906706654
H   H94       1.0  0.41440  0.07060  0.39080  1.0000 0.1092711188
H   H95       1.0  0.35940  0.96880  0.60230  1.0000 0.1092711188
H   H96       1.0  0.39630  0.91120  0.55900  1.0000 0.1092711188
H   H97       1.0  0.57390  0.56480  0.76770  1.0000 0.1005578265
H   H98       1.0  0.59290  0.63040  0.68740  1.0000 0.1175036958
H   H99       1.0  0.65430  0.39290  0.72360  1.0000 0.1092711188
H   H100      1.0  0.61190  0.41790  0.79020  1.0000 0.1005578265
H   H101      1.0  0.81210  0.58150  0.68540  1.0000 0.1092711188
H   H102      1.0  0.79130  0.51100  0.76330  1.0000 0.1092711188
H   H103      1.0  0.87040  0.37410  0.78380  1.0000 0.1175036958
H   H104      1.0  0.10710  0.32750  0.64130  1.0000 0.1175036958
H   H105      1.0  0.07710  0.45920  0.55880  1.0000 0.1291760464
H   H106      1.0  0.92990  0.54870  0.58770  1.0000 0.1175036958
H   H107      1.0  0.87120  0.10670  0.92700  1.0000 0.1092711188
H   H108      1.0  0.89800  0.87270  0.94950  1.0000 0.1291760464
H   H109      1.0  0.08140  0.04790  0.78340  1.0000 0.1092711188
H   H110      1.0  0.81140  0.98910  0.04720  1.0000 0.1175036958
H   H111      1.0  0.76570  0.90880  0.03860  1.0000 0.1092711188
H   H112      1.0  0.55440  0.92940  0.08900  1.0000 0.1092711188
H   H113      1.0  0.60080  0.01180  0.09360  1.0000 0.1092711188
H   H114      1.0  0.62950  0.98640  0.90550  1.0000 0.1092711188
H   H115      1.0  0.57180  0.91410  0.97600  1.0000 0.1005578265
H   H116      1.0  0.51780  0.28780  0.55460  1.0000 0.0789607202
H   H117      1.0  0.43670  0.15590  0.58360  1.0000 0.1005578265
H   H118      1.0  0.59470  0.15330  0.57460  1.0000 0.0906706654
H   H119      1.0  0.72390  0.24900  0.60530  1.0000 0.1005578265
H   H120      1.0  0.64870  0.31270  0.63470  1.0000 0.1005578265
H   H121      1.0  0.40160  0.31730  0.64750  1.0000 0.0906706654
H   H122      1.0  0.31970  0.25500  0.62820  1.0000 0.1005578265
H   H123      1.0  0.32060  0.10610  0.70560  1.0000 0.1092711188
H   H124      1.0  0.40320  0.07030  0.77550  1.0000 0.1005578265
H   H125      1.0  0.52070  0.04250  0.68090  1.0000 0.0696590658
H   H126      1.0  0.53430  0.26200  0.75930  1.0000 0.1005578265
H   H127      1.0  0.53520  0.16610  0.80800  1.0000 0.1005578265
H   H128      1.0  0.72750  0.09930  0.68220  1.0000 0.1005578265
H   H129      1.0  0.65550  0.06650  0.76110  1.0000 0.1005578265
H   H130      1.0  0.61220  0.65250  0.84060  1.0000 0.0906706654
H   H131      1.0  0.69520  0.70540  0.87000  1.0000 0.1005578265
H   H132      1.0  0.60780  0.90380  0.74240  1.0000 0.1005578265
H   H133      1.0  0.69020  0.85830  0.81140  1.0000 0.1092711188
H   H134      1.0  0.48050  0.72360  0.73250  1.0000 0.1005578265
H   H135      1.0  0.47770  0.82140  0.69530  1.0000 0.1005578265
H   H136      1.0  0.49040  0.91350  0.84440  1.0000 0.0591405774
H   H137      1.0  0.28830  0.70620  0.89430  1.0000 0.1092711188
H   H138      1.0  0.36720  0.65310  0.85490  1.0000 0.1005578265
H   H139      1.0  0.57480  0.79260  0.93040  1.0000 0.1005578265
H   H140      1.0  0.41700  0.79370  0.93930  1.0000 0.1005578265
H   H141      1.0  0.49800  0.66310  0.94470  1.0000 0.0696590658
H   H142      1.0  0.28590  0.86160  0.83530  1.0000 0.1092711188
H   H143      1.0  0.35720  0.90580  0.75720  1.0000 0.1005578265
H   H144      1.0  0.03920  0.91140  0.84570  1.0000 0.1398029685
C   C1        1.0  0.01570  0.39040  0.16610  1.0000 0.0591405774
C   C2        1.0  0.98660  0.47010  0.12480  1.0000 -0.1504234538
C   C3        1.0  0.90420  0.51550  0.15330  1.0000 -0.1107099257
C   C4        1.0  0.85580  0.48040  0.22430  1.0000 0.0696590658
C   C5        1.0  0.89400  0.40060  0.26160  1.0000 -0.0409510374
C   C6        1.0  0.76350  0.52470  0.25920  1.0000 -0.1827493474
C   C7        1.0  0.54280  0.57250  0.27250  1.0000 -0.1287078747
C   C8        1.0  0.57990  0.43230  0.29310  1.0000 -0.1287078747
C   C9        1.0  0.01840  0.04790  0.32360  1.0000 0.0591405774
C   C10       1.0  0.99600  0.96610  0.35970  1.0000 -0.140133442
C   C11       1.0  0.91620  0.94110  0.42240  1.0000 -0.1107099257
C   C12       1.0  0.86460  0.99850  0.44830  1.0000 0.0591405774
C   C13       1.0  0.89700  0.07910  0.40990  1.0000 -0.0164699048
C   C14       1.0  0.77520  0.97920  0.51480  1.0000 -0.1827493474
C   C15       1.0  0.55600  0.97430  0.56580  1.0000 -0.140133442
C   C16       1.0  0.58970  0.03440  0.44020  1.0000 -0.1232274463
C   C17       1.0  0.43600  0.42560  0.28290  1.0000 -0.1287078747
C   C18       1.0  0.39870  0.56750  0.26120  1.0000 -0.1287078747
C   C19       1.0  0.21340  0.47600  0.28840  1.0000 -0.18951893
C   C20       1.0  0.11700  0.53050  0.31030  1.0000 0.0591405774
C   C21       1.0  0.08930  0.60860  0.26340  1.0000 -0.0046599383
C   C22       1.0  0.95010  0.63570  0.34570  1.0000 0.0591405774
C   C23       1.0  0.96880  0.55780  0.39540  1.0000 -0.1504234538
C   C24       1.0  0.05420  0.50480  0.37820  1.0000 -0.1287078747
C   C25       1.0  0.09630  0.93380  0.09030  1.0000 -0.028284283
C   C26       1.0  0.13310  0.01320  0.05120  1.0000 0.0696590658
C   C27       1.0  0.08100  0.07160  0.07590  1.0000 -0.1232274463
C   C28       1.0  0.97250  0.96760  0.17320  1.0000 0.0591405774
C   C29       1.0  0.22570  0.03130  0.98600  1.0000 -0.18951893
C   C30       1.0  0.44020  0.01070  0.93710  1.0000 -0.140133442
C   C31       1.0  0.42320  0.02580  0.04860  1.0000 -0.1287078747
C   C32       1.0  0.71850  0.78760  0.23040  1.0000 0.5388840422
C   C33       1.0  0.47950  0.75320  0.39520  1.0000 0.0521514345
C   C34       1.0  0.48200  0.83800  0.39560  1.0000 -0.2573397055
C   C35       1.0  0.35330  0.74310  0.36490  1.0000 -0.2548611179
C   C36       1.0  0.59870  0.73890  0.35140  1.0000 -0.2573397055
C   C37       1.0  0.59470  0.80190  0.27290  1.0000 0.0789607202
C   C38       1.0  0.59760  0.88810  0.27390  1.0000 -0.2779308238
C   C39       1.0  0.47760  0.90140  0.31890  1.0000 0.0591405774
C   C40       1.0  0.46780  0.79320  0.24170  1.0000 -0.2779308238
C   C41       1.0  0.34760  0.80660  0.28780  1.0000 0.0906706654
C   C42       1.0  0.34950  0.89210  0.28820  1.0000 -0.2779308238
C   C43       1.0  0.38700  0.29540  0.15230  1.0000 -0.2573397055
C   C44       1.0  0.39050  0.22380  0.22450  1.0000 0.0789607202
C   C45       1.0  0.39090  0.14360  0.21130  1.0000 -0.2695617393
C   C46       1.0  0.51850  0.22570  0.25830  1.0000 -0.2779308238
C   C47       1.0  0.63910  0.22210  0.20930  1.0000 0.0906706654
C   C48       1.0  0.51070  0.13870  0.16340  1.0000 0.0591405774
C   C49       1.0  0.63340  0.29510  0.13750  1.0000 -0.2573397055
C   C50       1.0  0.50580  0.20980  0.09260  1.0000 -0.2573397055
C   C51       1.0  0.50630  0.29030  0.10270  1.0000 0.0521514345
C   C52       1.0  0.63720  0.14150  0.19680  1.0000 -0.2695617393
C   C53       1.0  0.26820  0.22880  0.27020  1.0000 0.5388840422
C   C54       1.0  0.76810  0.22380  0.24200  1.0000 0.5186095223
C   C55       1.0  0.21870  0.79690  0.25960  1.0000 0.5186095223
C   C56       1.0  0.99860  0.04900  0.13720  1.0000 -0.140133442
C   C57       1.0  0.98430  0.60960  0.83390  1.0000 0.0591405774
C   C58       1.0  0.01340  0.52990  0.87520  1.0000 -0.1504234538
C   C59       1.0  0.09580  0.48450  0.84670  1.0000 -0.1107099257
C   C60       1.0  0.14420  0.51960  0.77570  1.0000 0.0696590658
C   C61       1.0  0.10600  0.59940  0.73840  1.0000 -0.0409510374
C   C62       1.0  0.23650  0.47530  0.74080  1.0000 -0.1827493474
C   C63       1.0  0.45720  0.42750  0.72750  1.0000 -0.1287078747
C   C64       1.0  0.42010  0.56770  0.70690  1.0000 -0.1287078747
C   C65       1.0  0.98160  0.95210  0.67640  1.0000 0.0591405774
C   C66       1.0  0.00400  0.03390  0.64030  1.0000 -0.140133442
C   C67       1.0  0.08380  0.05890  0.57760  1.0000 -0.1107099257
C   C68       1.0  0.13540  0.00150  0.55170  1.0000 0.0591405774
C   C69       1.0  0.10300  0.92090  0.59010  1.0000 -0.0164699048
C   C70       1.0  0.22480  0.02080  0.48520  1.0000 -0.1827493474
C   C71       1.0  0.44400  0.02570  0.43420  1.0000 -0.140133442
C   C72       1.0  0.41030  0.96560  0.55980  1.0000 -0.1287078747
C   C73       1.0  0.56400  0.57440  0.71710  1.0000 -0.1287078747
C   C74       1.0  0.60130  0.43250  0.73880  1.0000 -0.1287078747
C   C75       1.0  0.78660  0.52400  0.71160  1.0000 -0.18951893
C   C76       1.0  0.88300  0.46950  0.68970  1.0000 0.0591405774
C   C77       1.0  0.91070  0.39140  0.73660  1.0000 -0.0046599383
C   C78       1.0  0.04990  0.36430  0.65430  1.0000 0.0591405774
C   C79       1.0  0.03120  0.44220  0.60460  1.0000 -0.1504234538
C   C80       1.0  0.94580  0.49520  0.62180  1.0000 -0.1287078747
C   C81       1.0  0.90370  0.06620  0.90970  1.0000 -0.028284283
C   C82       1.0  0.86690  0.98680  0.94880  1.0000 0.0696590658
C   C83       1.0  0.91900  0.92840  0.92410  1.0000 -0.1232274463
C   C84       1.0  0.02750  0.03240  0.82680  1.0000 0.0591405774
C   C85       1.0  0.77430  0.96870  0.01400  1.0000 -0.18951893
C   C86       1.0  0.55980  0.98930  0.06290  1.0000 -0.140133442
C   C87       1.0  0.57680  0.97420  0.95140  1.0000 -0.1287078747
C   C88       1.0  0.28150  0.21240  0.76960  1.0000 0.5388840422
C   C89       1.0  0.52050  0.24680  0.60480  1.0000 0.0521514345
C   C90       1.0  0.51800  0.16200  0.60440  1.0000 -0.2573397055
C   C91       1.0  0.64670  0.25690  0.63510  1.0000 -0.2548611179
C   C92       1.0  0.40130  0.26110  0.64860  1.0000 -0.2573397055
C   C93       1.0  0.40530  0.19810  0.72710  1.0000 0.0789607202
C   C94       1.0  0.40240  0.11190  0.72610  1.0000 -0.2779308238
C   C95       1.0  0.52240  0.09860  0.68110  1.0000 0.0591405774
C   C96       1.0  0.53220  0.20680  0.75830  1.0000 -0.2779308238
C   C97       1.0  0.65240  0.19340  0.71220  1.0000 0.0906706654
C   C98       1.0  0.65050  0.10790  0.71180  1.0000 -0.2779308238
C   C99       1.0  0.61300  0.70460  0.84770  1.0000 -0.2573397055
C   C100      1.0  0.60950  0.77620  0.77550  1.0000 0.0789607202
C   C101      1.0  0.60910  0.85640  0.78870  1.0000 -0.2695617393
C   C102      1.0  0.48150  0.77430  0.74170  1.0000 -0.2779308238
C   C103      1.0  0.36090  0.77790  0.79070  1.0000 0.0906706654
C   C104      1.0  0.48930  0.86130  0.83660  1.0000 0.0591405774
C   C105      1.0  0.36660  0.70490  0.86250  1.0000 -0.2573397055
C   C106      1.0  0.49420  0.79020  0.90740  1.0000 -0.2573397055
C   C107      1.0  0.49370  0.70970  0.89730  1.0000 0.0521514345
C   C108      1.0  0.36280  0.85850  0.80320  1.0000 -0.2695617393
C   C109      1.0  0.73180  0.77120  0.72980  1.0000 0.5388840422
C   C110      1.0  0.23190  0.77620  0.75800  1.0000 0.5186095223
C   C111      1.0  0.78130  0.20310  0.74040  1.0000 0.5186095223
C   C112      1.0  0.00140  0.95100  0.86280  1.0000 -0.140133442
N   N1        1.0  0.97090  0.35440  0.23420  1.0000 -0.2222397641
N   N2        1.0  0.62440  0.51490  0.25000  1.0000 -0.0982462034
N   N3        1.0  0.97140  0.10480  0.34750  1.0000 -0.2114038632
N   N4        1.0  0.63670  0.97250  0.50320  1.0000 -0.0916338131
N   N5        1.0  0.35090  0.48470  0.30240  1.0000 -0.0982462034
N   N6        1.0  0.00940  0.66180  0.27990  1.0000 -0.2047692254
N   N7        1.0  0.01780  0.90910  0.15120  1.0000 -0.2288593814
N   N8        1.0  0.35760  0.99290  0.00400  1.0000 -0.0982462034
N   N9        1.0  0.02910  0.64560  0.76580  1.0000 -0.2222397641
N   N10       1.0  0.37560  0.48510  0.75000  1.0000 -0.0982462034
N   N11       1.0  0.02860  0.89520  0.65250  1.0000 -0.2114038632
N   N12       1.0  0.36330  0.02750  0.49680  1.0000 -0.0916338131
N   N13       1.0  0.64910  0.51530  0.69760  1.0000 -0.0982462034
N   N14       1.0  0.99060  0.33820  0.72010  1.0000 -0.2047692254
N   N15       1.0  0.98220  0.09090  0.84880  1.0000 -0.2288593814
N   N16       1.0  0.64240  0.00710  0.99600  1.0000 -0.0982462034
O   O1        1.0  0.27570  0.24190  0.32633  1.0000 -0.5938857213
O   O2        1.0  0.16110  0.21990  0.24800  1.0000 -0.5704100147
O   O3        1.0  0.82530  0.80230  0.24916  1.0000 -0.5704100147
O   O4        1.0  0.71120  0.76000  0.18264  1.0000 -0.5938857213
O   O5        1.0  0.11030  0.80740  0.29098  1.0000 -0.5553926245
O   O6        1.0  0.21750  0.77990  0.20423  1.0000 -0.5535181577
O   O7        1.0  0.87650  0.21540  0.20919  1.0000 -0.5535181577
O   O8        1.0  0.76910  0.23350  0.29992  1.0000 -0.5535181577
O   O9        1.0  0.03120  0.24080  0.38238  1.0000 -0.6924812809
O   O10       1.0  0.96180  0.76400  0.12636  1.0000 -0.684870483
O   O11       1.0  0.72430  0.75810  0.67367  1.0000 -0.5938857213
O   O12       1.0  0.83890  0.78010  0.75200  1.0000 -0.5704100147
O   O13       1.0  0.17470  0.19770  0.75084  1.0000 -0.5704100147
O   O14       1.0  0.28880  0.24000  0.81736  1.0000 -0.5938857213
O   O15       1.0  0.88970  0.19260  0.70902  1.0000 -0.5553926245
O   O16       1.0  0.78250  0.22010  0.79577  1.0000 -0.5535181577
O   O17       1.0  0.12350  0.78460  0.79081  1.0000 -0.5535181577
O   O18       1.0  0.23090  0.76650  0.70008  1.0000 -0.5535181577
O   O19       1.0  0.96880  0.75920  0.61762  1.0000 -0.6924812809
O   O20       1.0  0.03820  0.23600  0.87364  1.0000 -0.684870483
