# DDEC6 charges by PACMAN v1.1 (https://github.com/mtap-research/PACMAN-charge/)
data_2017[Co][pcu]3[FSR]3
_chemical_formula_sum              "Co8 H96 C108 N16 O32"
_cell_length_a       18.3638
_cell_length_b       10.9135
_cell_length_c       21.8055
_cell_angle_alpha    90
_cell_angle_beta     124.683
_cell_angle_gamma    90

_symmetry_space_group_name_H-M    "P 1"
_symmetry_Int_Tables_number       1

loop_
  _symmetry_equiv_pos_as_xyz
  'x, y, z'

loop_
  _atom_site_type_symbol
  _atom_site_label
  _atom_site_symmetry_multiplicity
  _atom_site_fract_x
  _atom_site_fract_y
  _atom_site_fract_z
  _atom_site_occupancy
  _atom_site_charge
Co  Co1       1.0  0.28434  0.79472  0.97069  1.0000 0.8996550802
Co  Co2       1.0  0.28434  0.70528  0.47069  1.0000 0.8996550802
Co  Co3       1.0  0.09120  0.79775  0.87667  1.0000 0.9085895632
Co  Co4       1.0  0.09120  0.70225  0.37667  1.0000 0.9085895632
Co  Co5       1.0  0.71566  0.29472  0.52931  1.0000 0.8996550802
Co  Co6       1.0  0.71566  0.20528  0.02931  1.0000 0.8996550802
Co  Co7       1.0  0.90880  0.29775  0.62333  1.0000 0.9085895632
Co  Co8       1.0  0.90880  0.20225  0.12333  1.0000 0.9085895632
H   H1        1.0  0.32360  0.39960  0.01410  1.0000 0.1191858194
H   H2        1.0  0.32360  0.10040  0.51410  1.0000 0.1191858194
H   H3        1.0  0.06720  0.40750  0.83860  1.0000 0.1284598399
H   H4        1.0  0.06720  0.09250  0.33860  1.0000 0.1284598399
H   H5        1.0  0.31630  0.18790  0.01870  1.0000 0.1191858194
H   H6        1.0  0.31630  0.31210  0.51870  1.0000 0.1191858194
H   H7        1.0  0.06090  0.19480  0.84160  1.0000 0.1284598399
H   H8        1.0  0.06090  0.30520  0.34160  1.0000 0.1284598399
H   H9        1.0  0.05270  0.81070  0.65630  1.0000 0.1191858194
H   H10       1.0  0.05270  0.68930  0.15630  1.0000 0.1191858194
H   H11       1.0  0.05730  0.78390  0.55290  1.0000 0.1284598399
H   H12       1.0  0.05730  0.71610  0.05290  1.0000 0.1284598399
H   H13       1.0  0.31890  0.71660  0.68780  1.0000 0.1284598399
H   H14       1.0  0.31890  0.78340  0.18780  1.0000 0.1284598399
H   H15       1.0  0.31500  0.74580  0.79130  1.0000 0.1191858194
H   H16       1.0  0.31500  0.75420  0.29130  1.0000 0.1191858194
H   H17       1.0  0.58600  0.85040  0.02110  1.0000 0.1284598399
H   H18       1.0  0.58600  0.64960  0.52110  1.0000 0.1284598399
H   H19       1.0  0.43760  0.76140  0.94410  1.0000 0.1284598399
H   H20       1.0  0.43760  0.73860  0.44410  1.0000 0.1284598399
H   H21       1.0  0.65690  0.01300  0.13310  1.0000 0.1191858194
H   H22       1.0  0.65690  0.48700  0.63310  1.0000 0.1191858194
H   H23       1.0  0.61020  0.02750  0.17530  1.0000 0.1088807267
H   H24       1.0  0.61020  0.47250  0.67530  1.0000 0.1088807267
H   H25       1.0  0.66780  0.83430  0.23360  1.0000 0.1191858194
H   H26       1.0  0.66780  0.66570  0.73360  1.0000 0.1191858194
H   H27       1.0  0.74520  0.92700  0.25450  1.0000 0.1191858194
H   H28       1.0  0.74520  0.57300  0.75450  1.0000 0.1191858194
H   H29       1.0  0.74190  0.83550  0.15000  1.0000 0.1088807267
H   H30       1.0  0.74190  0.66450  0.65000  1.0000 0.1088807267
H   H31       1.0  0.68520  0.72940  0.15270  1.0000 0.1088807267
H   H32       1.0  0.68520  0.77060  0.65270  1.0000 0.1088807267
H   H33       1.0  0.93390  0.50070  0.31750  1.0000 0.1388743881
H   H34       1.0  0.93390  0.99930  0.81750  1.0000 0.1388743881
H   H35       1.0  0.77500  0.54290  0.23250  1.0000 0.1284598399
H   H36       1.0  0.77500  0.95710  0.73250  1.0000 0.1284598399
H   H37       1.0  0.87290  0.94020  0.22890  1.0000 0.1518698714
H   H38       1.0  0.87290  0.55980  0.72890  1.0000 0.1518698714
H   H39       1.0  0.90870  0.94960  0.31420  1.0000 0.1586750958
H   H40       1.0  0.90870  0.55040  0.81420  1.0000 0.1586750958
H   H41       1.0  0.97430  0.91580  0.29160  1.0000 0.1733300377
H   H42       1.0  0.97430  0.58420  0.79160  1.0000 0.1733300377
H   H43       1.0  0.48940  0.89010  0.18420  1.0000 0.1518698714
H   H44       1.0  0.48940  0.60990  0.68420  1.0000 0.1518698714
H   H45       1.0  0.46770  0.02100  0.14620  1.0000 0.1388743881
H   H46       1.0  0.46770  0.47900  0.64620  1.0000 0.1388743881
H   H47       1.0  0.39150  0.92240  0.11700  1.0000 0.1733300377
H   H48       1.0  0.39150  0.57760  0.61700  1.0000 0.1733300377
H   H49       1.0  0.67640  0.89960  0.48590  1.0000 0.1191858194
H   H50       1.0  0.67640  0.60040  0.98590  1.0000 0.1191858194
H   H51       1.0  0.93280  0.90750  0.66140  1.0000 0.1284598399
H   H52       1.0  0.93280  0.59250  0.16140  1.0000 0.1284598399
H   H53       1.0  0.68370  0.68790  0.48130  1.0000 0.1191858194
H   H54       1.0  0.68370  0.81210  0.98130  1.0000 0.1191858194
H   H55       1.0  0.93910  0.69480  0.65840  1.0000 0.1284598399
H   H56       1.0  0.93910  0.80520  0.15840  1.0000 0.1284598399
H   H57       1.0  0.94730  0.31070  0.84370  1.0000 0.1191858194
H   H58       1.0  0.94730  0.18930  0.34370  1.0000 0.1191858194
H   H59       1.0  0.94270  0.28390  0.94710  1.0000 0.1284598399
H   H60       1.0  0.94270  0.21610  0.44710  1.0000 0.1284598399
H   H61       1.0  0.68110  0.21660  0.81220  1.0000 0.1284598399
H   H62       1.0  0.68110  0.28340  0.31220  1.0000 0.1284598399
H   H63       1.0  0.68500  0.24580  0.70870  1.0000 0.1191858194
H   H64       1.0  0.68500  0.25420  0.20870  1.0000 0.1191858194
H   H65       1.0  0.41400  0.35040  0.47890  1.0000 0.1284598399
H   H66       1.0  0.41400  0.14960  0.97890  1.0000 0.1284598399
H   H67       1.0  0.56240  0.26140  0.55590  1.0000 0.1284598399
H   H68       1.0  0.56240  0.23860  0.05590  1.0000 0.1284598399
H   H69       1.0  0.34310  0.51300  0.36690  1.0000 0.1191858194
H   H70       1.0  0.34310  0.98700  0.86690  1.0000 0.1191858194
H   H71       1.0  0.38980  0.52750  0.32470  1.0000 0.1088807267
H   H72       1.0  0.38980  0.97250  0.82470  1.0000 0.1088807267
H   H73       1.0  0.33220  0.33430  0.26640  1.0000 0.1191858194
H   H74       1.0  0.33220  0.16570  0.76640  1.0000 0.1191858194
H   H75       1.0  0.25480  0.42700  0.24550  1.0000 0.1191858194
H   H76       1.0  0.25480  0.07300  0.74550  1.0000 0.1191858194
H   H77       1.0  0.25810  0.33550  0.35000  1.0000 0.1088807267
H   H78       1.0  0.25810  0.16450  0.85000  1.0000 0.1088807267
H   H79       1.0  0.31480  0.22940  0.34730  1.0000 0.1088807267
H   H80       1.0  0.31480  0.27060  0.84730  1.0000 0.1088807267
H   H81       1.0  0.06610  0.00070  0.18250  1.0000 0.1388743881
H   H82       1.0  0.06610  0.49930  0.68250  1.0000 0.1388743881
H   H83       1.0  0.22500  0.04290  0.26750  1.0000 0.1284598399
H   H84       1.0  0.22500  0.45710  0.76750  1.0000 0.1284598399
H   H85       1.0  0.12710  0.44020  0.27110  1.0000 0.1518698714
H   H86       1.0  0.12710  0.05980  0.77110  1.0000 0.1518698714
H   H87       1.0  0.09130  0.44960  0.18580  1.0000 0.1586750958
H   H88       1.0  0.09130  0.05040  0.68580  1.0000 0.1586750958
H   H89       1.0  0.02570  0.41580  0.20840  1.0000 0.1733300377
H   H90       1.0  0.02570  0.08420  0.70840  1.0000 0.1733300377
H   H91       1.0  0.51060  0.39010  0.31580  1.0000 0.1518698714
H   H92       1.0  0.51060  0.10990  0.81580  1.0000 0.1518698714
H   H93       1.0  0.53230  0.52100  0.35380  1.0000 0.1388743881
H   H94       1.0  0.53230  0.97900  0.85380  1.0000 0.1388743881
H   H95       1.0  0.60850  0.42240  0.38300  1.0000 0.1733300377
H   H96       1.0  0.60850  0.07760  0.88300  1.0000 0.1733300377
C   C1        1.0  0.17961  0.79680  0.80130  1.0000 0.5675838802
C   C2        1.0  0.17961  0.70320  0.30130  1.0000 0.5675838802
C   C3        1.0  0.19948  0.56140  0.92456  1.0000 0.5757829759
C   C4        1.0  0.19948  0.93860  0.42456  1.0000 0.5757829759
C   C5        1.0  0.19535  0.42500  0.92573  1.0000 -0.0187370379
C   C6        1.0  0.19535  0.07500  0.42573  1.0000 -0.0187370379
C   C7        1.0  0.27044  0.35850  0.97964  1.0000 -0.1187411489
C   C8        1.0  0.27044  0.14150  0.47964  1.0000 -0.1187411489
C   C9        1.0  0.11761  0.36310  0.87473  1.0000 -0.1075604905
C   C10       1.0  0.11761  0.13690  0.37473  1.0000 -0.1075604905
C   C11       1.0  0.18634  0.03280  0.92987  1.0000 0.5675838802
C   C12       1.0  0.18634  0.46720  0.42987  1.0000 0.5675838802
C   C13       1.0  0.18859  0.16990  0.93074  1.0000 -0.026458425
C   C14       1.0  0.18859  0.33010  0.43074  1.0000 -0.026458425
C   C15       1.0  0.26616  0.23210  0.98200  1.0000 -0.1300733424
C   C16       1.0  0.26616  0.26790  0.48200  1.0000 -0.1300733424
C   C17       1.0  0.11370  0.23610  0.87662  1.0000 -0.1075604905
C   C18       1.0  0.11370  0.26390  0.37662  1.0000 -0.1075604905
C   C19       1.0  0.18339  0.77930  0.73478  1.0000 -0.026458425
C   C20       1.0  0.18339  0.72070  0.23478  1.0000 -0.026458425
C   C21       1.0  0.10665  0.79140  0.66288  1.0000 -0.1075604905
C   C22       1.0  0.10665  0.70860  0.16288  1.0000 -0.1075604905
C   C23       1.0  0.10934  0.77530  0.60106  1.0000 -0.1040413587
C   C24       1.0  0.10934  0.72470  0.10106  1.0000 -0.1040413587
C   C25       1.0  0.18874  0.74640  0.61001  1.0000 -0.0187370379
C   C26       1.0  0.18874  0.75360  0.11001  1.0000 -0.0187370379
C   C27       1.0  0.18883  0.72500  0.54217  1.0000 0.5880957756
C   C28       1.0  0.18883  0.77500  0.04217  1.0000 0.5880957756
C   C29       1.0  0.26493  0.73560  0.68126  1.0000 -0.1187411489
C   C30       1.0  0.26493  0.76440  0.18126  1.0000 -0.1187411489
C   C31       1.0  0.26255  0.75250  0.74322  1.0000 -0.1187411489
C   C32       1.0  0.26255  0.74750  0.24322  1.0000 -0.1187411489
C   C33       1.0  0.47260  0.88780  0.08426  1.0000 0.344483814
C   C34       1.0  0.47260  0.61220  0.58426  1.0000 0.348168439
C   C35       1.0  0.54263  0.85210  0.03113  1.0000 -0.1300733424
C   C36       1.0  0.54263  0.64790  0.53113  1.0000 -0.1300733424
C   C37       1.0  0.46101  0.80380  0.98918  1.0000 -0.0391922698
C   C38       1.0  0.46101  0.69620  0.48918  1.0000 -0.0391922698
C   C39       1.0  0.62862  0.96780  0.15302  1.0000 -0.1187411489
C   C40       1.0  0.62862  0.53220  0.65302  1.0000 -0.1187411489
C   C41       1.0  0.69594  0.88000  0.21364  1.0000 -0.2047045764
C   C42       1.0  0.69594  0.62000  0.71364  1.0000 -0.2051538166
C   C43       1.0  0.73118  0.79060  0.18308  1.0000 -0.1040413587
C   C44       1.0  0.73118  0.70940  0.68308  1.0000 -0.1040413587
C   C45       1.0  0.89515  0.77410  0.27845  1.0000 0.348168439
C   C46       1.0  0.89515  0.72590  0.77845  1.0000 0.348168439
C   C47       1.0  0.90842  0.57830  0.29902  1.0000 -0.026458425
C   C48       1.0  0.90842  0.92170  0.79902  1.0000 -0.026458425
C   C49       1.0  0.82110  0.60060  0.25230  1.0000 -0.1300733424
C   C50       1.0  0.82110  0.89940  0.75230  1.0000 -0.1300733424
C   C51       1.0  0.91450  0.90640  0.27830  1.0000 -0.5373312499
C   C52       1.0  0.91450  0.59360  0.77830  1.0000 -0.5373312499
C   C53       1.0  0.45370  0.93430  0.13750  1.0000 -0.5126321104
C   C54       1.0  0.45370  0.56570  0.63750  1.0000 -0.5126321104
C   C55       1.0  0.82039  0.29680  0.69870  1.0000 0.5675838802
C   C56       1.0  0.82039  0.20320  0.19870  1.0000 0.5675838802
C   C57       1.0  0.80052  0.06140  0.57544  1.0000 0.5757829759
C   C58       1.0  0.80052  0.43860  0.07544  1.0000 0.5757829759
C   C59       1.0  0.80465  0.92500  0.57427  1.0000 -0.0187370379
C   C60       1.0  0.80465  0.57500  0.07427  1.0000 -0.0187370379
C   C61       1.0  0.72956  0.85850  0.52036  1.0000 -0.1187411489
C   C62       1.0  0.72956  0.64150  0.02036  1.0000 -0.1187411489
C   C63       1.0  0.88239  0.86310  0.62527  1.0000 -0.1075604905
C   C64       1.0  0.88239  0.63690  0.12527  1.0000 -0.1075604905
C   C65       1.0  0.81366  0.53280  0.57013  1.0000 0.5675838802
C   C66       1.0  0.81366  0.96720  0.07013  1.0000 0.5675838802
C   C67       1.0  0.81141  0.66990  0.56926  1.0000 -0.026458425
C   C68       1.0  0.81141  0.83010  0.06926  1.0000 -0.026458425
C   C69       1.0  0.73384  0.73210  0.51800  1.0000 -0.1300733424
C   C70       1.0  0.73384  0.76790  0.01800  1.0000 -0.1300733424
C   C71       1.0  0.88630  0.73610  0.62338  1.0000 -0.1075604905
C   C72       1.0  0.88630  0.76390  0.12338  1.0000 -0.1075604905
C   C73       1.0  0.81661  0.27930  0.76522  1.0000 -0.026458425
C   C74       1.0  0.81661  0.22070  0.26522  1.0000 -0.026458425
C   C75       1.0  0.89335  0.29140  0.83712  1.0000 -0.1075604905
C   C76       1.0  0.89335  0.20860  0.33712  1.0000 -0.1075604905
C   C77       1.0  0.89066  0.27530  0.89894  1.0000 -0.1040413587
C   C78       1.0  0.89066  0.22470  0.39894  1.0000 -0.1040413587
C   C79       1.0  0.81126  0.24640  0.88999  1.0000 -0.0187370379
C   C80       1.0  0.81126  0.25360  0.38999  1.0000 -0.0187370379
C   C81       1.0  0.81117  0.22500  0.95783  1.0000 0.5880957756
C   C82       1.0  0.81117  0.27500  0.45783  1.0000 0.5880957756
C   C83       1.0  0.73507  0.23560  0.81874  1.0000 -0.1187411489
C   C84       1.0  0.73507  0.26440  0.31874  1.0000 -0.1187411489
C   C85       1.0  0.73745  0.25250  0.75678  1.0000 -0.1187411489
C   C86       1.0  0.73745  0.24750  0.25678  1.0000 -0.1187411489
C   C87       1.0  0.52740  0.38780  0.41574  1.0000 0.344483814
C   C88       1.0  0.52740  0.11220  0.91574  1.0000 0.348168439
C   C89       1.0  0.45737  0.35210  0.46887  1.0000 -0.1300733424
C   C90       1.0  0.45737  0.14790  0.96887  1.0000 -0.1300733424
C   C91       1.0  0.53899  0.30380  0.51082  1.0000 -0.0391922698
C   C92       1.0  0.53899  0.19620  0.01082  1.0000 -0.0391922698
C   C93       1.0  0.37138  0.46780  0.34698  1.0000 -0.1187411489
C   C94       1.0  0.37138  0.03220  0.84698  1.0000 -0.1187411489
C   C95       1.0  0.30406  0.38000  0.28636  1.0000 -0.2047045764
C   C96       1.0  0.30406  0.12000  0.78636  1.0000 -0.2051538166
C   C97       1.0  0.26882  0.29060  0.31692  1.0000 -0.1040413587
C   C98       1.0  0.26882  0.20940  0.81692  1.0000 -0.1040413587
C   C99       1.0  0.10485  0.27410  0.22155  1.0000 0.348168439
C   C100      1.0  0.10485  0.22590  0.72155  1.0000 0.348168439
C   C101      1.0  0.09158  0.07830  0.20098  1.0000 -0.026458425
C   C102      1.0  0.09158  0.42170  0.70098  1.0000 -0.026458425
C   C103      1.0  0.17890  0.10060  0.24770  1.0000 -0.1300733424
C   C104      1.0  0.17890  0.39940  0.74770  1.0000 -0.1300733424
C   C105      1.0  0.08550  0.40640  0.22170  1.0000 -0.5373312499
C   C106      1.0  0.08550  0.09360  0.72170  1.0000 -0.5373312499
C   C107      1.0  0.54630  0.43430  0.36250  1.0000 -0.5126321104
C   C108      1.0  0.54630  0.06570  0.86250  1.0000 -0.5126321104
N   N1        1.0  0.41670  0.82570  0.02198  1.0000 -0.363864175
N   N2        1.0  0.41670  0.67430  0.52198  1.0000 -0.363864175
N   N3        1.0  0.54995  0.90470  0.09159  1.0000 -0.0133556796
N   N4        1.0  0.54995  0.59530  0.59159  1.0000 -0.0133556796
N   N5        1.0  0.81291  0.72620  0.23942  1.0000 -0.0133556796
N   N6        1.0  0.81291  0.77380  0.73942  1.0000 -0.0133556796
N   N7        1.0  0.95528  0.68730  0.31585  1.0000 -0.363864175
N   N8        1.0  0.95528  0.81270  0.81585  1.0000 -0.363864175
N   N9        1.0  0.58330  0.32570  0.47802  1.0000 -0.363864175
N   N10       1.0  0.58330  0.17430  0.97802  1.0000 -0.363864175
N   N11       1.0  0.45005  0.40470  0.40841  1.0000 -0.0133556796
N   N12       1.0  0.45005  0.09530  0.90841  1.0000 -0.0133556796
N   N13       1.0  0.18709  0.22620  0.26058  1.0000 -0.0133556796
N   N14       1.0  0.18709  0.27380  0.76058  1.0000 -0.0133556796
N   N15       1.0  0.04472  0.18730  0.18415  1.0000 -0.363864175
N   N16       1.0  0.04472  0.31270  0.68415  1.0000 -0.3653368738
O   O1        1.0  0.25225  0.80150  0.86397  1.0000 -0.5708068099
O   O2        1.0  0.25225  0.69850  0.36397  1.0000 -0.5708068099
O   O3        1.0  0.10451  0.80570  0.78995  1.0000 -0.529045352
O   O4        1.0  0.10451  0.69430  0.28995  1.0000 -0.529045352
O   O5        1.0  0.12769  0.61770  0.88731  1.0000 -0.5577585485
O   O6        1.0  0.12769  0.88230  0.38731  1.0000 -0.5577585485
O   O7        1.0  0.27445  0.61060  0.96227  1.0000 -0.5373312499
O   O8        1.0  0.27445  0.88940  0.46227  1.0000 -0.5373312499
O   O9        1.0  0.11131  0.98150  0.89262  1.0000 -0.5505957615
O   O10       1.0  0.11131  0.51850  0.39262  1.0000 -0.5505957615
O   O11       1.0  0.25972  0.97910  0.96415  1.0000 -0.5577585485
O   O12       1.0  0.25972  0.52090  0.46415  1.0000 -0.5577585485
O   O13       1.0  0.26381  0.71490  0.55285  1.0000 -0.5505957615
O   O14       1.0  0.26381  0.78510  0.05285  1.0000 -0.5505957615
O   O15       1.0  0.11598  0.71790  0.48065  1.0000 -0.5373312499
O   O16       1.0  0.11598  0.78210  0.98065  1.0000 -0.5373312499
O   O17       1.0  0.74775  0.30150  0.63603  1.0000 -0.5708068099
O   O18       1.0  0.74775  0.19850  0.13603  1.0000 -0.5708068099
O   O19       1.0  0.89549  0.30570  0.71005  1.0000 -0.529045352
O   O20       1.0  0.89549  0.19430  0.21005  1.0000 -0.529045352
O   O21       1.0  0.87231  0.11770  0.61269  1.0000 -0.5577585485
O   O22       1.0  0.87231  0.38230  0.11269  1.0000 -0.5577585485
O   O23       1.0  0.72555  0.11060  0.53773  1.0000 -0.529045352
O   O24       1.0  0.72555  0.38940  0.03773  1.0000 -0.529045352
O   O25       1.0  0.88869  0.48150  0.60738  1.0000 -0.5505957615
O   O26       1.0  0.88869  0.01850  0.10738  1.0000 -0.5505957615
O   O27       1.0  0.74028  0.47910  0.53585  1.0000 -0.5577585485
O   O28       1.0  0.74028  0.02090  0.03585  1.0000 -0.5577585485
O   O29       1.0  0.73619  0.21490  0.94715  1.0000 -0.5505957615
O   O30       1.0  0.73619  0.28510  0.44715  1.0000 -0.5505957615
O   O31       1.0  0.88402  0.21790  0.01935  1.0000 -0.5373312499
O   O32       1.0  0.88402  0.28210  0.51935  1.0000 -0.5373312499
