# DDEC6 charges by PACMAN v1.1 (https://github.com/mtap-research/PACMAN-charge/)
data_2017[Ag][hcb]2[FSR]11
_chemical_formula_sum              "Ag2 H42 C56 S2 N6 O18 F6"
_cell_length_a       9.056
_cell_length_b       13.1651
_cell_length_c       16.3514
_cell_angle_alpha    107.276
_cell_angle_beta     99.531
_cell_angle_gamma    104.325

_symmetry_space_group_name_H-M    "P 1"
_symmetry_Int_Tables_number       1

loop_
  _symmetry_equiv_pos_as_xyz
  'x, y, z'

loop_
  _atom_site_type_symbol
  _atom_site_label
  _atom_site_symmetry_multiplicity
  _atom_site_fract_x
  _atom_site_fract_y
  _atom_site_fract_z
  _atom_site_occupancy
  _atom_site_charge
Ag  Ag1       1.0  0.42849  0.59584  0.68387  1.0000 0.3006881944
Ag  Ag2       1.0  0.57151  0.40416  0.31613  1.0000 0.3006881944
H   H1        1.0  0.23970  0.74590  0.63260  1.0000 0.1091654661
H   H2        1.0  0.06750  0.75860  0.51870  1.0000 0.1307378507
H   H3        1.0  0.08400  0.46210  0.35990  1.0000 0.1392019487
H   H4        1.0  0.25280  0.45610  0.47900  1.0000 0.1091654661
H   H5        1.0  0.89320  0.74580  0.25400  1.0000 0.1170139278
H   H6        1.0  0.73660  0.65960  0.25770  1.0000 0.1016623008
H   H7        1.0  0.42100  0.37090  0.54700  1.0000 0.1091654661
H   H8        1.0  0.52600  0.22540  0.52470  1.0000 0.1307378507
H   H9        1.0  0.73380  0.34810  0.78870  1.0000 0.1392019487
H   H10       1.0  0.62300  0.49070  0.80190  1.0000 0.1091654661
H   H11       1.0  0.87600  0.05880  0.57200  1.0000 0.1091654661
H   H12       1.0  0.71500  0.97320  0.57160  1.0000 0.1170139278
H   H13       1.0  0.62690  0.83340  0.81570  1.0000 0.1016623008
H   H14       1.0  0.68860  0.95500  0.95950  1.0000 0.1392019487
H   H15       1.0  0.37670  0.72060  0.01150  1.0000 0.1392019487
H   H16       1.0  0.32350  0.60420  0.86480  1.0000 0.1091654661
H   H17       1.0  0.55910  0.04980  0.23580  1.0000 0.1091654661
H   H18       1.0  0.40440  0.96800  0.24500  1.0000 0.1170139278
H   H19       1.0  0.59760  0.05820  0.40360  1.0000 0.1307378507
H   H20       1.0  0.85790  0.86510  0.45970  1.0000 0.1307378507
H   H21       1.0  0.65370  0.81290  0.20570  1.0000 0.1170139278
H   H22       1.0  0.76030  0.25410  0.36740  1.0000 0.1091654661
H   H23       1.0  0.93250  0.24140  0.48130  1.0000 0.1307378507
H   H24       1.0  0.91600  0.53790  0.64010  1.0000 0.1392019487
H   H25       1.0  0.74720  0.54390  0.52100  1.0000 0.1091654661
H   H26       1.0  0.10680  0.25420  0.74600  1.0000 0.1170139278
H   H27       1.0  0.26340  0.34040  0.74230  1.0000 0.1016623008
H   H28       1.0  0.57900  0.62910  0.45300  1.0000 0.1091654661
H   H29       1.0  0.47400  0.77460  0.47530  1.0000 0.1307378507
H   H30       1.0  0.26620  0.65190  0.21130  1.0000 0.1392019487
H   H31       1.0  0.37700  0.50930  0.19810  1.0000 0.1091654661
H   H32       1.0  0.12400  0.94120  0.42800  1.0000 0.1091654661
H   H33       1.0  0.28500  0.02680  0.42840  1.0000 0.1170139278
H   H34       1.0  0.37310  0.16660  0.18430  1.0000 0.1016623008
H   H35       1.0  0.31140  0.04500  0.04050  1.0000 0.1392019487
H   H36       1.0  0.62330  0.27940  0.98850  1.0000 0.1392019487
H   H37       1.0  0.67650  0.39580  0.13520  1.0000 0.1091654661
H   H38       1.0  0.44090  0.95020  0.76420  1.0000 0.1091654661
H   H39       1.0  0.59560  0.03200  0.75500  1.0000 0.1170139278
H   H40       1.0  0.40240  0.94180  0.59640  1.0000 0.1307378507
H   H41       1.0  0.14210  0.13490  0.54030  1.0000 0.1307378507
H   H42       1.0  0.34630  0.18710  0.79430  1.0000 0.1170139278
C   C1        1.0  0.20750  0.68770  0.57630  1.0000 0.0710644426
C   C2        1.0  0.10510  0.69580  0.50880  1.0000 -0.1581995044
C   C3        1.0  0.05610  0.61150  0.42540  1.0000 -0.0043647126
C   C4        1.0  0.11420  0.52150  0.41550  1.0000 -0.1421771774
C   C5        1.0  0.21570  0.51890  0.48670  1.0000 0.0710644426
C   C6        1.0  0.95030  0.61530  0.34690  1.0000 0.4878506533
C   C7        1.0  0.82560  0.72850  0.29300  1.0000 -0.0771113502
C   C8        1.0  0.48610  0.36590  0.59660  1.0000 0.0803807958
C   C9        1.0  0.54820  0.27900  0.58250  1.0000 -0.1421771774
C   C10       1.0  0.64360  0.27110  0.65390  1.0000 -0.0078339165
C   C11       1.0  0.67040  0.35160  0.73780  1.0000 -0.1581995044
C   C12       1.0  0.60320  0.43570  0.74510  1.0000 0.0710644426
C   C13       1.0  0.71920  0.18190  0.64590  1.0000 0.4835885337
C   C14       1.0  0.76080  0.02780  0.54480  1.0000 -0.0722622142
C   C15       1.0  0.57450  0.81040  0.85600  1.0000 0.0803807958
C   C16       1.0  0.61200  0.88330  0.94140  1.0000 -0.1421771774
C   C17       1.0  0.53820  0.85190  0.00050  1.0000 0.0105007517
C   C18       1.0  0.42890  0.74570  0.97190  1.0000 -0.1581995044
C   C19       1.0  0.39790  0.67710  0.88450  1.0000 0.0710644426
C   C20       1.0  0.57720  0.93330  0.09440  1.0000 0.4991074375
C   C21       1.0  0.50650  0.97150  0.22980  1.0000 -0.0771113502
C   C22       1.0  0.60900  0.93850  0.29420  1.0000 0.1091654661
C   C23       1.0  0.63910  0.99810  0.38450  1.0000 -0.2109115978
C   C24       1.0  0.72860  0.97060  0.44630  1.0000 0.1091654661
C   C25       1.0  0.79360  0.88310  0.41750  1.0000 -0.2109115978
C   C26       1.0  0.76370  0.82430  0.32850  1.0000 0.1091654661
C   C27       1.0  0.67260  0.85290  0.26720  1.0000 -0.2109115978
C   C28       1.0  0.94000  0.87900  0.73110  1.0000 0.4991074375
C   C29       1.0  0.79250  0.31230  0.42370  1.0000 0.0710644426
C   C30       1.0  0.89490  0.30420  0.49120  1.0000 -0.1581995044
C   C31       1.0  0.94390  0.38850  0.57460  1.0000 -0.0043647126
C   C32       1.0  0.88580  0.47850  0.58450  1.0000 -0.1421771774
C   C33       1.0  0.78430  0.48110  0.51330  1.0000 0.0710644426
C   C34       1.0  0.04970  0.38470  0.65310  1.0000 0.4878506533
C   C35       1.0  0.17440  0.27150  0.70700  1.0000 -0.0771113502
C   C36       1.0  0.51390  0.63410  0.40340  1.0000 0.0803807958
C   C37       1.0  0.45180  0.72100  0.41750  1.0000 -0.1421771774
C   C38       1.0  0.35640  0.72890  0.34610  1.0000 -0.0078339165
C   C39       1.0  0.32960  0.64840  0.26220  1.0000 -0.1581995044
C   C40       1.0  0.39680  0.56430  0.25490  1.0000 0.0710644426
C   C41       1.0  0.28080  0.81810  0.35410  1.0000 0.4835885337
C   C42       1.0  0.23920  0.97220  0.45520  1.0000 -0.0722622142
C   C43       1.0  0.42550  0.18960  0.14400  1.0000 0.0803807958
C   C44       1.0  0.38800  0.11670  0.05860  1.0000 -0.1421771774
C   C45       1.0  0.46180  0.14810  0.99950  1.0000 0.0105007517
C   C46       1.0  0.57110  0.25430  0.02810  1.0000 -0.1581995044
C   C47       1.0  0.60210  0.32290  0.11550  1.0000 0.0710644426
C   C48       1.0  0.42280  0.06670  0.90560  1.0000 0.4991074375
C   C49       1.0  0.49350  0.02850  0.77020  1.0000 -0.0771113502
C   C50       1.0  0.39100  0.06150  0.70580  1.0000 0.1091654661
C   C51       1.0  0.36090  0.00190  0.61550  1.0000 -0.2109115978
C   C52       1.0  0.27140  0.02940  0.55370  1.0000 0.1091654661
C   C53       1.0  0.20640  0.11690  0.58250  1.0000 -0.2109115978
C   C54       1.0  0.23630  0.17570  0.67150  1.0000 0.1091654661
C   C55       1.0  0.32740  0.14710  0.73280  1.0000 -0.2109115978
C   C56       1.0  0.06000  0.12100  0.26890  1.0000 0.4991074375
S   S1        1.0  0.75450  0.78262  0.65292  1.0000 0.9656615428
S   S2        1.0  0.24550  0.21738  0.34708  1.0000 0.9656615428
N   N1        1.0  0.26500  0.60080  0.56670  1.0000 -0.201993631
N   N2        1.0  0.51170  0.44360  0.67590  1.0000 -0.188495917
N   N3        1.0  0.46790  0.70890  0.82670  1.0000 -0.1818939166
N   N4        1.0  0.73500  0.39920  0.43330  1.0000 -0.201993631
N   N5        1.0  0.48830  0.55640  0.32410  1.0000 -0.188495917
N   N6        1.0  0.53210  0.29110  0.17330  1.0000 -0.1818939166
O   O1        1.0  0.90300  0.54210  0.27580  1.0000 -0.4708118269
O   O2        1.0  0.91640  0.71110  0.36640  1.0000 -0.201993631
O   O3        1.0  0.79800  0.17020  0.70690  1.0000 -0.4333760568
O   O4        1.0  0.69100  0.11680  0.56110  1.0000 -0.2109115978
O   O5        1.0  0.68640  0.01890  0.12220  1.0000 -0.4503201076
O   O6        1.0  0.47770  0.89870  0.13880  1.0000 -0.2204444238
O   O7        1.0  0.71990  0.69050  0.68390  1.0000 -0.5539022514
O   O8        1.0  0.64550  0.84560  0.66240  1.0000 -0.5600239762
O   O9        1.0  0.79740  0.75880  0.57080  1.0000 -0.5600239762
O   O10       1.0  0.09700  0.45790  0.72420  1.0000 -0.4708118269
O   O11       1.0  0.08360  0.28890  0.63360  1.0000 -0.201993631
O   O12       1.0  0.20200  0.82980  0.29310  1.0000 -0.4333760568
O   O13       1.0  0.30900  0.88320  0.43890  1.0000 -0.2109115978
O   O14       1.0  0.31360  0.98110  0.87780  1.0000 -0.4503201076
O   O15       1.0  0.52230  0.10130  0.86120  1.0000 -0.2204444238
O   O16       1.0  0.28010  0.30950  0.31610  1.0000 -0.5539022514
O   O17       1.0  0.35450  0.15440  0.33760  1.0000 -0.5600239762
O   O18       1.0  0.20260  0.24120  0.42920  1.0000 -0.5600239762
F   F1        1.0  0.92420  0.91120  0.81290  1.0000 -0.172842236
F   F2        1.0  0.04860  0.82710  0.73050  1.0000 -0.1818939166
F   F3        1.0  0.99000  0.96840  0.71020  1.0000 -0.172842236
F   F4        1.0  0.07580  0.08880  0.18710  1.0000 -0.172842236
F   F5        1.0  0.95140  0.17290  0.26950  1.0000 -0.1818939166
F   F6        1.0  0.01000  0.03160  0.28980  1.0000 -0.172842236
