# DDEC6 charges by PACMAN v1.1 (https://github.com/mtap-research/PACMAN-charge/)
data_2017[Zn][raa]3[FSR]3
_chemical_formula_sum              "Zn8 H64 C56 N48"
_cell_length_a       10.905
_cell_length_b       12.529
_cell_length_c       19.085
_cell_angle_alpha    90
_cell_angle_beta     119.452
_cell_angle_gamma    90

_symmetry_space_group_name_H-M    "P 1"
_symmetry_Int_Tables_number       1

loop_
  _symmetry_equiv_pos_as_xyz
  'x, y, z'

loop_
  _atom_site_type_symbol
  _atom_site_label
  _atom_site_symmetry_multiplicity
  _atom_site_fract_x
  _atom_site_fract_y
  _atom_site_fract_z
  _atom_site_occupancy
  _atom_site_charge
Zn  Zn1       1.0  0.87080  0.73208  0.59642  1.0000 0.6792458358
Zn  Zn2       1.0  0.25270  0.74294  0.46196  1.0000 0.6792458358
Zn  Zn3       1.0  0.12920  0.23208  0.90358  1.0000 0.6792458358
Zn  Zn4       1.0  0.74730  0.24294  0.03804  1.0000 0.6792458358
Zn  Zn5       1.0  0.12920  0.26792  0.40358  1.0000 0.6792458358
Zn  Zn6       1.0  0.74730  0.25706  0.53804  1.0000 0.6792458358
Zn  Zn7       1.0  0.87080  0.76792  0.09642  1.0000 0.6792458358
Zn  Zn8       1.0  0.25270  0.75706  0.96196  1.0000 0.6792458358
H   H1        1.0  0.12930  0.63140  0.21100  1.0000 0.1599795172
H   H2        1.0  0.26930  0.67720  0.28600  1.0000 0.1599795172
H   H3        1.0  0.17460  0.59170  0.30020  1.0000 0.1599795172
H   H4        1.0  0.89400  0.95210  0.35930  1.0000 0.1599795172
H   H5        1.0  0.05690  0.98420  0.40350  1.0000 0.1599795172
H   H6        1.0  0.17780  0.67030  0.66320  1.0000 0.1599795172
H   H7        1.0  0.24360  0.63460  0.60810  1.0000 0.1599795172
H   H8        1.0  0.30280  0.73820  0.66400  1.0000 0.1697292688
H   H9        1.0  0.68140  0.98100  0.68140  1.0000 0.1697292688
H   H10       1.0  0.81680  0.91970  0.68980  1.0000 0.1510207168
H   H11       1.0  0.74530  0.01280  0.62460  1.0000 0.1510207168
H   H12       1.0  0.56720  0.68750  0.40930  1.0000 0.1599795172
H   H13       1.0  0.45770  0.62570  0.42750  1.0000 0.1510207168
H   H14       1.0  0.01550  0.38500  0.62690  1.0000 0.1599795172
H   H15       1.0  0.05970  0.48820  0.59500  1.0000 0.1599795172
H   H16       1.0  0.03670  0.49730  0.67140  1.0000 0.1599795172
H   H17       1.0  0.87070  0.13140  0.28900  1.0000 0.1599795172
H   H18       1.0  0.73070  0.17720  0.21400  1.0000 0.1599795172
H   H19       1.0  0.82540  0.09170  0.19980  1.0000 0.1599795172
H   H20       1.0  0.10600  0.45210  0.14070  1.0000 0.1599795172
H   H21       1.0  0.94310  0.48420  0.09650  1.0000 0.1599795172
H   H22       1.0  0.82220  0.17030  0.83680  1.0000 0.1599795172
H   H23       1.0  0.75640  0.13460  0.89190  1.0000 0.1599795172
H   H24       1.0  0.69720  0.23820  0.83600  1.0000 0.1697292688
H   H25       1.0  0.31860  0.48100  0.81860  1.0000 0.1697292688
H   H26       1.0  0.18320  0.41970  0.81020  1.0000 0.1510207168
H   H27       1.0  0.25470  0.51280  0.87540  1.0000 0.1510207168
H   H28       1.0  0.43280  0.18750  0.09070  1.0000 0.1599795172
H   H29       1.0  0.54230  0.12570  0.07250  1.0000 0.1510207168
H   H30       1.0  0.98450  0.88500  0.87310  1.0000 0.1599795172
H   H31       1.0  0.94030  0.98820  0.90500  1.0000 0.1599795172
H   H32       1.0  0.96330  0.99730  0.82860  1.0000 0.1599795172
H   H33       1.0  0.87070  0.36860  0.78900  1.0000 0.1599795172
H   H34       1.0  0.73070  0.32280  0.71400  1.0000 0.1599795172
H   H35       1.0  0.82540  0.40830  0.69980  1.0000 0.1599795172
H   H36       1.0  0.10600  0.04790  0.64070  1.0000 0.1599795172
H   H37       1.0  0.94310  0.01580  0.59650  1.0000 0.1599795172
H   H38       1.0  0.82220  0.32970  0.33680  1.0000 0.1599795172
H   H39       1.0  0.75640  0.36540  0.39190  1.0000 0.1599795172
H   H40       1.0  0.69720  0.26180  0.33600  1.0000 0.1697292688
H   H41       1.0  0.31860  0.01900  0.31860  1.0000 0.1697292688
H   H42       1.0  0.18320  0.08030  0.31020  1.0000 0.1510207168
H   H43       1.0  0.25470  0.98720  0.37540  1.0000 0.1510207168
H   H44       1.0  0.43280  0.31250  0.59070  1.0000 0.1599795172
H   H45       1.0  0.54230  0.37430  0.57250  1.0000 0.1510207168
H   H46       1.0  0.98450  0.61500  0.37310  1.0000 0.1599795172
H   H47       1.0  0.94030  0.51180  0.40500  1.0000 0.1599795172
H   H48       1.0  0.96330  0.50270  0.32860  1.0000 0.1599795172
H   H49       1.0  0.12930  0.86860  0.71100  1.0000 0.1599795172
H   H50       1.0  0.26930  0.82280  0.78600  1.0000 0.1599795172
H   H51       1.0  0.17460  0.90830  0.80020  1.0000 0.1599795172
H   H52       1.0  0.89400  0.54790  0.85930  1.0000 0.1599795172
H   H53       1.0  0.05690  0.51580  0.90350  1.0000 0.1599795172
H   H54       1.0  0.17780  0.82970  0.16320  1.0000 0.1599795172
H   H55       1.0  0.24360  0.86540  0.10810  1.0000 0.1599795172
H   H56       1.0  0.30280  0.76180  0.16400  1.0000 0.1697292688
H   H57       1.0  0.68140  0.51900  0.18140  1.0000 0.1697292688
H   H58       1.0  0.81680  0.58030  0.18980  1.0000 0.1510207168
H   H59       1.0  0.74530  0.48720  0.12460  1.0000 0.1510207168
H   H60       1.0  0.56720  0.81250  0.90930  1.0000 0.1599795172
H   H61       1.0  0.45770  0.87430  0.92750  1.0000 0.1510207168
H   H62       1.0  0.01550  0.11500  0.12690  1.0000 0.1599795172
H   H63       1.0  0.05970  0.01180  0.09500  1.0000 0.1599795172
H   H64       1.0  0.03670  0.00270  0.17140  1.0000 0.1599795172
C   C1        1.0  0.17280  0.65280  0.26760  1.0000 -0.5330062893
C   C2        1.0  0.08980  0.74100  0.27620  1.0000 0.3904656159
C   C3        1.0  0.01110  0.85710  0.32620  1.0000 0.3548285427
C   C4        1.0  0.99090  0.92310  0.38610  1.0000 -0.3706436244
C   C5        1.0  0.01470  0.86110  0.45870  1.0000 0.358688617
C   C6        1.0  0.11310  0.76310  0.56340  1.0000 0.4089660707
C   C7        1.0  0.21830  0.69580  0.63040  1.0000 -0.5376936582
C   C8        1.0  0.72730  0.95360  0.65190  1.0000 -0.5170059142
C   C9        1.0  0.63450  0.87430  0.59170  1.0000 0.4029613088
C   C10       1.0  0.56130  0.74570  0.50760  1.0000 0.3680000367
C   C11       1.0  0.55340  0.65700  0.45280  1.0000 -0.3786035119
C   C12       1.0  0.65880  0.56980  0.49330  1.0000 0.358688617
C   C13       1.0  0.85210  0.48830  0.56480  1.0000 0.4029613088
C   C14       1.0  0.00410  0.46250  0.61920  1.0000 -0.5376936582
C   C15       1.0  0.82720  0.15280  0.23240  1.0000 -0.5330062893
C   C16       1.0  0.91020  0.24100  0.22380  1.0000 0.3904656159
C   C17       1.0  0.98890  0.35710  0.17380  1.0000 0.358688617
C   C18       1.0  0.00910  0.42310  0.11390  1.0000 -0.3706436244
C   C19       1.0  0.98530  0.36110  0.04130  1.0000 0.358688617
C   C20       1.0  0.88690  0.26310  0.93660  1.0000 0.4089660707
C   C21       1.0  0.78170  0.19580  0.86960  1.0000 -0.5376936582
C   C22       1.0  0.27270  0.45360  0.84810  1.0000 -0.5170059142
C   C23       1.0  0.36550  0.37430  0.90830  1.0000 0.4029613088
C   C24       1.0  0.43870  0.24570  0.99240  1.0000 0.3680000367
C   C25       1.0  0.44660  0.15700  0.04720  1.0000 -0.3786035119
C   C26       1.0  0.34120  0.06980  0.00670  1.0000 0.358688617
C   C27       1.0  0.14790  0.98830  0.93520  1.0000 0.4029613088
C   C28       1.0  0.99590  0.96250  0.88080  1.0000 -0.5376936582
C   C29       1.0  0.82720  0.34720  0.73240  1.0000 -0.5330062893
C   C30       1.0  0.91020  0.25900  0.72380  1.0000 0.3904656159
C   C31       1.0  0.98890  0.14290  0.67380  1.0000 0.358688617
C   C32       1.0  0.00910  0.07690  0.61390  1.0000 -0.3706436244
C   C33       1.0  0.98530  0.13890  0.54130  1.0000 0.358688617
C   C34       1.0  0.88690  0.23690  0.43660  1.0000 0.4089660707
C   C35       1.0  0.78170  0.30420  0.36960  1.0000 -0.5376936582
C   C36       1.0  0.27270  0.04640  0.34810  1.0000 -0.5170059142
C   C37       1.0  0.36550  0.12570  0.40830  1.0000 0.4029613088
C   C38       1.0  0.43870  0.25430  0.49240  1.0000 0.3680000367
C   C39       1.0  0.44660  0.34300  0.54720  1.0000 -0.3786035119
C   C40       1.0  0.34120  0.43020  0.50670  1.0000 0.358688617
C   C41       1.0  0.14790  0.51170  0.43520  1.0000 0.4029613088
C   C42       1.0  0.99590  0.53750  0.38080  1.0000 -0.5376936582
C   C43       1.0  0.17280  0.84720  0.76760  1.0000 -0.5330062893
C   C44       1.0  0.08980  0.75900  0.77620  1.0000 0.3904656159
C   C45       1.0  0.01110  0.64290  0.82620  1.0000 0.3548285427
C   C46       1.0  0.99090  0.57690  0.88610  1.0000 -0.3706436244
C   C47       1.0  0.01470  0.63890  0.95870  1.0000 0.358688617
C   C48       1.0  0.11310  0.73690  0.06340  1.0000 0.4089660707
C   C49       1.0  0.21830  0.80420  0.13040  1.0000 -0.5376936582
C   C50       1.0  0.72730  0.54640  0.15190  1.0000 -0.5170059142
C   C51       1.0  0.63450  0.62570  0.09170  1.0000 0.4029613088
C   C52       1.0  0.56130  0.75430  0.00760  1.0000 0.3680000367
C   C53       1.0  0.55340  0.84300  0.95280  1.0000 -0.3786035119
C   C54       1.0  0.65880  0.93020  0.99330  1.0000 0.358688617
C   C55       1.0  0.85210  0.01170  0.06480  1.0000 0.4029613088
C   C56       1.0  0.00410  0.03750  0.11920  1.0000 -0.5376936582
N   N1        1.0  0.68090  0.79590  0.56030  1.0000 -0.4432075595
N   N2        1.0  0.49630  0.87230  0.56170  1.0000 -0.2980908466
N   N3        1.0  0.44930  0.78860  0.50690  1.0000 -0.2820699972
N   N4        1.0  0.79900  0.58760  0.54560  1.0000 -0.4432075595
N   N5        1.0  0.62620  0.46880  0.48100  1.0000 -0.289707272
N   N6        1.0  0.75190  0.41570  0.52770  1.0000 -0.2820699972
N   N7        1.0  0.98920  0.79410  0.55430  1.0000 -0.2980908466
N   N8        1.0  0.92340  0.85770  0.48520  1.0000 -0.289707272
N   N9        1.0  0.13410  0.80400  0.50530  1.0000 -0.4327552853
N   N10       1.0  0.11480  0.78300  0.34730  1.0000 -0.4529466418
N   N11       1.0  0.92760  0.86370  0.24780  1.0000 -0.289707272
N   N12       1.0  0.97920  0.78810  0.21570  1.0000 -0.2820699972
N   N13       1.0  0.31910  0.29590  0.93970  1.0000 -0.4432075595
N   N14       1.0  0.50370  0.37230  0.93830  1.0000 -0.2980908466
N   N15       1.0  0.55070  0.28860  0.99310  1.0000 -0.2820699972
N   N16       1.0  0.20100  0.08760  0.95440  1.0000 -0.4432075595
N   N17       1.0  0.37380  0.96880  0.01900  1.0000 -0.289707272
N   N18       1.0  0.24810  0.91570  0.97230  1.0000 -0.2820699972
N   N19       1.0  0.01080  0.29410  0.94570  1.0000 -0.2980908466
N   N20       1.0  0.07660  0.35770  0.01480  1.0000 -0.289707272
N   N21       1.0  0.86590  0.30400  0.99470  1.0000 -0.4327552853
N   N22       1.0  0.88520  0.28300  0.15270  1.0000 -0.4529466418
N   N23       1.0  0.07240  0.36370  0.25220  1.0000 -0.289707272
N   N24       1.0  0.02080  0.28810  0.28430  1.0000 -0.2820699972
N   N25       1.0  0.31910  0.20410  0.43970  1.0000 -0.4432075595
N   N26       1.0  0.50370  0.12770  0.43830  1.0000 -0.2980908466
N   N27       1.0  0.55070  0.21140  0.49310  1.0000 -0.2820699972
N   N28       1.0  0.20100  0.41240  0.45440  1.0000 -0.4432075595
N   N29       1.0  0.37380  0.53120  0.51900  1.0000 -0.289707272
N   N30       1.0  0.24810  0.58430  0.47230  1.0000 -0.2820699972
N   N31       1.0  0.01080  0.20590  0.44570  1.0000 -0.2980908466
N   N32       1.0  0.07660  0.14230  0.51480  1.0000 -0.289707272
N   N33       1.0  0.86590  0.19600  0.49470  1.0000 -0.4327552853
N   N34       1.0  0.88520  0.21700  0.65270  1.0000 -0.4529466418
N   N35       1.0  0.07240  0.13630  0.75220  1.0000 -0.289707272
N   N36       1.0  0.02080  0.21190  0.78430  1.0000 -0.2820699972
N   N37       1.0  0.68090  0.70410  0.06030  1.0000 -0.4432075595
N   N38       1.0  0.49630  0.62770  0.06170  1.0000 -0.2980908466
N   N39       1.0  0.44930  0.71140  0.00690  1.0000 -0.2820699972
N   N40       1.0  0.79900  0.91240  0.04560  1.0000 -0.4432075595
N   N41       1.0  0.62620  0.03120  0.98100  1.0000 -0.289707272
N   N42       1.0  0.75190  0.08430  0.02770  1.0000 -0.2820699972
N   N43       1.0  0.98920  0.70590  0.05430  1.0000 -0.2980908466
N   N44       1.0  0.92340  0.64230  0.98520  1.0000 -0.289707272
N   N45       1.0  0.13410  0.69600  0.00530  1.0000 -0.4327552853
N   N46       1.0  0.11480  0.71700  0.84730  1.0000 -0.4529466418
N   N47       1.0  0.92760  0.63630  0.74780  1.0000 -0.289707272
N   N48       1.0  0.97920  0.71190  0.71570  1.0000 -0.2820699972
