# DDEC6 charges by PACMAN v1.1 (https://github.com/mtap-research/PACMAN-charge/)
data_2017[Zn][sql]2[FSR]7
_chemical_formula_sum              "Zn4 H58 C90 N10 O26"
_cell_length_a       13.6579
_cell_length_b       13.6579
_cell_length_c       16.1237
_cell_angle_alpha    79.7185
_cell_angle_beta     100.282
_cell_angle_gamma    56.8739

_symmetry_space_group_name_H-M    "P 1"
_symmetry_Int_Tables_number       1

loop_
  _symmetry_equiv_pos_as_xyz
  'x, y, z'

loop_
  _atom_site_type_symbol
  _atom_site_label
  _atom_site_symmetry_multiplicity
  _atom_site_fract_x
  _atom_site_fract_y
  _atom_site_fract_z
  _atom_site_occupancy
  _atom_site_charge
Zn  Zn1       1.0  0.40789  0.59211  0.80908  1.0000 0.8527576075
Zn  Zn2       1.0  0.59211  0.40789  0.19092  1.0000 0.8527576075
Zn  Zn3       1.0  0.56728  0.56728  0.00000  1.0000 1.0125668989
Zn  Zn4       1.0  0.43272  0.43272  0.00000  1.0000 1.0125668989
H   H1        1.0  0.54770  0.25230  0.81730  1.0000 0.1121987697
H   H2        1.0  0.64790  0.11610  0.74160  1.0000 0.1290512206
H   H3        1.0  0.53830  0.91370  0.83830  1.0000 0.1411499278
H   H4        1.0  0.43870  0.04890  0.91350  1.0000 0.1195930322
H   H5        1.0  0.74530  0.71770  0.69350  1.0000 0.1290512206
H   H6        1.0  0.64200  0.68880  0.58280  1.0000 0.1290512206
H   H7        1.0  0.33010  0.02870  0.53190  1.0000 0.1290512206
H   H8        1.0  0.43580  0.06360  0.63800  1.0000 0.1290512206
H   H9        1.0  0.82790  0.82950  0.89690  1.0000 0.1411499278
H   H10       1.0  0.04130  0.71950  0.94060  1.0000 0.1290512206
H   H11       1.0  0.02630  0.74070  0.68630  1.0000 0.1195930322
H   H12       1.0  0.81380  0.85040  0.64220  1.0000 0.1195930322
H   H13       1.0  0.25230  0.54770  0.18270  1.0000 0.1121987697
H   H14       1.0  0.11610  0.64790  0.25840  1.0000 0.1290512206
H   H15       1.0  0.91370  0.53830  0.16170  1.0000 0.1411499278
H   H16       1.0  0.04890  0.43870  0.08650  1.0000 0.1195930322
H   H17       1.0  0.71770  0.74530  0.30650  1.0000 0.1290512206
H   H18       1.0  0.68880  0.64200  0.41720  1.0000 0.1290512206
H   H19       1.0  0.02870  0.33010  0.46810  1.0000 0.1290512206
H   H20       1.0  0.06360  0.43580  0.36200  1.0000 0.1290512206
H   H21       1.0  0.82950  0.82790  0.10310  1.0000 0.1411499278
H   H22       1.0  0.71950  0.04130  0.05940  1.0000 0.1290512206
H   H23       1.0  0.74070  0.02630  0.31370  1.0000 0.1195930322
H   H24       1.0  0.85040  0.81380  0.35780  1.0000 0.1195930322
H   H25       1.0  0.45230  0.74770  0.18270  1.0000 0.1121987697
H   H26       1.0  0.35210  0.88390  0.25840  1.0000 0.1290512206
H   H27       1.0  0.46170  0.08630  0.16170  1.0000 0.1411499278
H   H28       1.0  0.56130  0.95110  0.08650  1.0000 0.1195930322
H   H29       1.0  0.25470  0.28230  0.30650  1.0000 0.1290512206
H   H30       1.0  0.35800  0.31120  0.41720  1.0000 0.1290512206
H   H31       1.0  0.66990  0.97130  0.46810  1.0000 0.1290512206
H   H32       1.0  0.56420  0.93640  0.36200  1.0000 0.1290512206
H   H33       1.0  0.17210  0.17050  0.10310  1.0000 0.1411499278
H   H34       1.0  0.95870  0.28050  0.05940  1.0000 0.1290512206
H   H35       1.0  0.97370  0.25930  0.31370  1.0000 0.1195930322
H   H36       1.0  0.18620  0.14960  0.35780  1.0000 0.1195930322
H   H37       1.0  0.74770  0.45230  0.81730  1.0000 0.1121987697
H   H38       1.0  0.88390  0.35210  0.74160  1.0000 0.1290512206
H   H39       1.0  0.08630  0.46170  0.83830  1.0000 0.1411499278
H   H40       1.0  0.95110  0.56130  0.91350  1.0000 0.1195930322
H   H41       1.0  0.28230  0.25470  0.69350  1.0000 0.1290512206
H   H42       1.0  0.31120  0.35800  0.58280  1.0000 0.1290512206
H   H43       1.0  0.97130  0.66990  0.53190  1.0000 0.1290512206
H   H44       1.0  0.93640  0.56420  0.63800  1.0000 0.1290512206
H   H45       1.0  0.17050  0.17210  0.89690  1.0000 0.1411499278
H   H46       1.0  0.28050  0.95870  0.94060  1.0000 0.1290512206
H   H47       1.0  0.25930  0.97370  0.68630  1.0000 0.1195930322
H   H48       1.0  0.14960  0.18620  0.64220  1.0000 0.1195930322
H   H49       1.0  0.29300  0.70700  0.61790  1.0000 0.1195930322
H   H50       1.0  0.32250  0.67750  0.48570  1.0000 0.1195930322
H   H51       1.0  0.64840  0.35160  0.62900  1.0000 0.1290512206
H   H52       1.0  0.61270  0.38730  0.75820  1.0000 0.1121987697
H   H53       1.0  0.58650  0.41350  0.92260  1.0000 0.3939099358
H   H54       1.0  0.70700  0.29300  0.38210  1.0000 0.1195930322
H   H55       1.0  0.67750  0.32250  0.51430  1.0000 0.1195930322
H   H56       1.0  0.35160  0.64840  0.37100  1.0000 0.1290512206
H   H57       1.0  0.38730  0.61270  0.24180  1.0000 0.1121987697
H   H58       1.0  0.41350  0.58650  0.07740  1.0000 0.3939099358
C   C1        1.0  0.41561  0.25461  0.91939  1.0000 0.5907111215
C   C2        1.0  0.54557  0.18477  0.82130  1.0000 -0.0982772979
C   C3        1.0  0.60590  0.10290  0.77620  1.0000 -0.190329752
C   C4        1.0  0.60267  0.00287  0.78301  1.0000 0.1622858243
C   C5        1.0  0.54002  0.98142  0.83420  1.0000 -0.1546185269
C   C6        1.0  0.48031  0.06251  0.87880  1.0000 -0.0816610111
C   C7        1.0  0.60424  0.89404  0.67607  1.0000 0.2146758931
C   C8        1.0  0.66279  0.78159  0.65970  1.0000 -0.1721445857
C   C9        1.0  0.60052  0.76332  0.59410  1.0000 -0.1098505883
C   C10       1.0  0.47762  0.85502  0.54560  1.0000 0.0428007785
C   C11       1.0  0.41414  0.96794  0.56320  1.0000 -0.1175206928
C   C12       1.0  0.47704  0.98844  0.62730  1.0000 -0.190329752
C   C13       1.0  0.79912  0.84992  0.76529  1.0000 0.189252113
C   C14       1.0  0.86792  0.81112  0.85480  1.0000 -0.1721445857
C   C15       1.0  0.99534  0.74554  0.88095  1.0000 -0.0748033254
C   C16       1.0  0.05533  0.71833  0.81690  1.0000 -0.0209827563
C   C17       1.0  0.98658  0.75818  0.72855  1.0000 -0.085788983
C   C18       1.0  0.85948  0.82368  0.70210  1.0000 -0.1829171731
C   C19       1.0  0.19550  0.64490  0.84521  1.0000 0.5907111215
C   C20       1.0  0.48241  0.16421  0.87198  1.0000 -0.0358449473
C   C21       1.0  0.25461  0.41561  0.08061  1.0000 0.5907111215
C   C22       1.0  0.18477  0.54557  0.17870  1.0000 -0.0982772979
C   C23       1.0  0.10290  0.60590  0.22380  1.0000 -0.190329752
C   C24       1.0  0.00287  0.60267  0.21699  1.0000 0.1622858243
C   C25       1.0  0.98142  0.54002  0.16580  1.0000 -0.1546185269
C   C26       1.0  0.06251  0.48031  0.12120  1.0000 -0.0816610111
C   C27       1.0  0.89404  0.60424  0.32393  1.0000 0.2146758931
C   C28       1.0  0.78159  0.66279  0.34030  1.0000 -0.1721445857
C   C29       1.0  0.76332  0.60052  0.40590  1.0000 -0.1098505883
C   C30       1.0  0.85502  0.47762  0.45440  1.0000 0.0428007785
C   C31       1.0  0.96794  0.41414  0.43680  1.0000 -0.1175206928
C   C32       1.0  0.98844  0.47704  0.37270  1.0000 -0.190329752
C   C33       1.0  0.84992  0.79912  0.23471  1.0000 0.189252113
C   C34       1.0  0.81112  0.86792  0.14520  1.0000 -0.1721445857
C   C35       1.0  0.74554  0.99534  0.11905  1.0000 -0.0748033254
C   C36       1.0  0.71833  0.05533  0.18310  1.0000 -0.0209827563
C   C37       1.0  0.75818  0.98658  0.27145  1.0000 -0.085788983
C   C38       1.0  0.82368  0.85948  0.29790  1.0000 -0.1829171731
C   C39       1.0  0.64490  0.19550  0.15479  1.0000 0.5907111215
C   C40       1.0  0.16421  0.48241  0.12802  1.0000 -0.0358449473
C   C41       1.0  0.58439  0.74539  0.08061  1.0000 0.5907111215
C   C42       1.0  0.45443  0.81523  0.17870  1.0000 -0.0982772979
C   C43       1.0  0.39410  0.89710  0.22380  1.0000 -0.190329752
C   C44       1.0  0.39733  0.99713  0.21699  1.0000 0.1622858243
C   C45       1.0  0.45998  0.01858  0.16580  1.0000 -0.1546185269
C   C46       1.0  0.51969  0.93749  0.12120  1.0000 -0.0816610111
C   C47       1.0  0.39576  0.10596  0.32393  1.0000 0.2146758931
C   C48       1.0  0.33721  0.21841  0.34030  1.0000 -0.1721445857
C   C49       1.0  0.39948  0.23668  0.40590  1.0000 -0.1098505883
C   C50       1.0  0.52238  0.14498  0.45440  1.0000 0.0428007785
C   C51       1.0  0.58586  0.03206  0.43680  1.0000 -0.1175206928
C   C52       1.0  0.52296  0.01156  0.37270  1.0000 -0.190329752
C   C53       1.0  0.20088  0.15008  0.23471  1.0000 0.189252113
C   C54       1.0  0.13208  0.18888  0.14520  1.0000 -0.1721445857
C   C55       1.0  0.00466  0.25446  0.11905  1.0000 -0.0748033254
C   C56       1.0  0.94467  0.28167  0.18310  1.0000 -0.0209827563
C   C57       1.0  0.01342  0.24182  0.27145  1.0000 -0.085788983
C   C58       1.0  0.14052  0.17632  0.29790  1.0000 -0.1829171731
C   C59       1.0  0.80450  0.35510  0.15479  1.0000 0.5907111215
C   C60       1.0  0.51759  0.83579  0.12802  1.0000 -0.0358449473
C   C61       1.0  0.74539  0.58439  0.91939  1.0000 0.5907111215
C   C62       1.0  0.81523  0.45443  0.82130  1.0000 -0.0982772979
C   C63       1.0  0.89710  0.39410  0.77620  1.0000 -0.190329752
C   C64       1.0  0.99713  0.39733  0.78301  1.0000 0.1622858243
C   C65       1.0  0.01858  0.45998  0.83420  1.0000 -0.1546185269
C   C66       1.0  0.93749  0.51969  0.87880  1.0000 -0.0816610111
C   C67       1.0  0.10596  0.39576  0.67607  1.0000 0.2146758931
C   C68       1.0  0.21841  0.33721  0.65970  1.0000 -0.1721445857
C   C69       1.0  0.23668  0.39948  0.59410  1.0000 -0.1098505883
C   C70       1.0  0.14498  0.52238  0.54560  1.0000 0.0428007785
C   C71       1.0  0.03206  0.58586  0.56320  1.0000 -0.1175206928
C   C72       1.0  0.01156  0.52296  0.62730  1.0000 -0.190329752
C   C73       1.0  0.15008  0.20088  0.76529  1.0000 0.189252113
C   C74       1.0  0.18888  0.13208  0.85480  1.0000 -0.1721445857
C   C75       1.0  0.25446  0.00466  0.88095  1.0000 -0.0748033254
C   C76       1.0  0.28167  0.94467  0.81690  1.0000 -0.0209827563
C   C77       1.0  0.24182  0.01342  0.72855  1.0000 -0.085788983
C   C78       1.0  0.17632  0.14052  0.70210  1.0000 -0.1829171731
C   C79       1.0  0.35510  0.80450  0.84521  1.0000 0.5907111215
C   C80       1.0  0.83579  0.51759  0.87198  1.0000 -0.0358449473
C   C81       1.0  0.36560  0.63440  0.62030  1.0000 0.0965653332
C   C82       1.0  0.38270  0.61730  0.53990  1.0000 -0.1721445857
C   C83       1.0  0.48930  0.51070  0.54150  1.0000 0.1195930322
C   C84       1.0  0.57530  0.42470  0.62530  1.0000 -0.1546185269
C   C85       1.0  0.55370  0.44630  0.70320  1.0000 0.070916784
C   C86       1.0  0.63440  0.36560  0.37970  1.0000 0.0965653332
C   C87       1.0  0.61730  0.38270  0.46010  1.0000 -0.1721445857
C   C88       1.0  0.51070  0.48930  0.45850  1.0000 0.1195930322
C   C89       1.0  0.42470  0.57530  0.37470  1.0000 -0.1562470032
C   C90       1.0  0.44630  0.55370  0.29680  1.0000 0.070916784
N   N1        1.0  0.66813  0.91573  0.73870  1.0000 -0.1562470032
N   N2        1.0  0.41393  0.83793  0.47450  1.0000 0.4994439231
N   N3        1.0  0.91573  0.66813  0.26130  1.0000 -0.1562470032
N   N4        1.0  0.83793  0.41393  0.52550  1.0000 0.4994439231
N   N5        1.0  0.33187  0.08427  0.26130  1.0000 -0.1562470032
N   N6        1.0  0.58607  0.16207  0.52550  1.0000 0.4994439231
N   N7        1.0  0.08427  0.33187  0.73870  1.0000 -0.1562470032
N   N8        1.0  0.16207  0.58607  0.47450  1.0000 0.4994439231
N   N9        1.0  0.44900  0.55100  0.70130  1.0000 -0.2388078226
N   N10       1.0  0.55100  0.44900  0.29870  1.0000 -0.2388078226
O   O1        1.0  0.36414  0.22414  0.96794  1.0000 -0.4894707305
O   O2        1.0  0.41303  0.34743  0.90928  1.0000 -0.5620268239
O   O3        1.0  0.29758  0.90778  0.44630  1.0000 -0.3520782246
O   O4        1.0  0.47478  0.75518  0.44653  1.0000 -0.3219173877
O   O5        1.0  0.25608  0.59998  0.92655  1.0000 -0.5355509175
O   O6        1.0  0.24051  0.63689  0.78270  1.0000 -0.5340864314
O   O7        1.0  0.22414  0.36414  0.03206  1.0000 -0.4894707305
O   O8        1.0  0.34743  0.41303  0.09072  1.0000 -0.5620268239
O   O9        1.0  0.90778  0.29758  0.55370  1.0000 -0.3520782246
O   O10       1.0  0.75518  0.47478  0.55347  1.0000 -0.3219173877
O   O11       1.0  0.59998  0.25608  0.07345  1.0000 -0.5355509175
O   O12       1.0  0.63689  0.24051  0.21730  1.0000 -0.5340864314
O   O13       1.0  0.63586  0.77586  0.03206  1.0000 -0.4894707305
O   O14       1.0  0.58697  0.65257  0.09072  1.0000 -0.5620268239
O   O15       1.0  0.70242  0.09222  0.55370  1.0000 -0.3520782246
O   O16       1.0  0.52522  0.24482  0.55347  1.0000 -0.3219173877
O   O17       1.0  0.74392  0.40002  0.07345  1.0000 -0.5355509175
O   O18       1.0  0.75949  0.36311  0.21730  1.0000 -0.5340864314
O   O19       1.0  0.77586  0.63586  0.96794  1.0000 -0.4894707305
O   O20       1.0  0.65257  0.58697  0.90928  1.0000 -0.5620268239
O   O21       1.0  0.09222  0.70242  0.44630  1.0000 -0.3520782246
O   O22       1.0  0.24482  0.52522  0.44653  1.0000 -0.3219173877
O   O23       1.0  0.40002  0.74392  0.92655  1.0000 -0.5355509175
O   O24       1.0  0.36311  0.75949  0.78270  1.0000 -0.5340864314
O   O25       1.0  0.52240  0.47760  0.92483  1.0000 -0.8181091203
O   O26       1.0  0.47760  0.52240  0.07517  1.0000 -0.8181091203
