# DDEC6 charges by PACMAN v1.1 (https://github.com/mtap-research/PACMAN-charge/)
data_2017[Ni][dia]3[FSR]4
_chemical_formula_sum              "Ni8 H32 C16 N16 O32"
_cell_length_a       11.7699
_cell_length_b       11.7699
_cell_length_c       11.7699
_cell_angle_alpha    102.332
_cell_angle_beta     102.332
_cell_angle_gamma    124.948

_symmetry_space_group_name_H-M    "P 1"
_symmetry_Int_Tables_number       1

loop_
  _symmetry_equiv_pos_as_xyz
  'x, y, z'

loop_
  _atom_site_type_symbol
  _atom_site_label
  _atom_site_symmetry_multiplicity
  _atom_site_fract_x
  _atom_site_fract_y
  _atom_site_fract_z
  _atom_site_occupancy
  _atom_site_charge
Ni  Ni1       1.0  0.40499  0.09501  0.50000  1.0000 0.7059715576
Ni  Ni2       1.0  0.59501  0.90499  0.50000  1.0000 0.7059715576
Ni  Ni3       1.0  0.15499  0.15499  0.80998  1.0000 0.7059715576
Ni  Ni4       1.0  0.34501  0.34501  0.19002  1.0000 0.7059715576
Ni  Ni5       1.0  0.84501  0.65499  0.00000  1.0000 0.7059715576
Ni  Ni6       1.0  0.65499  0.84501  0.00000  1.0000 0.7059715576
Ni  Ni7       1.0  0.09501  0.59501  0.69002  1.0000 0.7059715576
Ni  Ni8       1.0  0.90499  0.40499  0.30998  1.0000 0.7059715576
H   H1        1.0  0.31900  0.90580  0.29280  1.0000 0.2467015944
H   H2        1.0  0.31230  0.83610  0.37640  1.0000 0.2567853891
H   H3        1.0  0.61300  0.02620  0.70720  1.0000 0.2467015944
H   H4        1.0  0.45970  0.93590  0.62360  1.0000 0.2567853891
H   H5        1.0  0.27620  0.06900  0.91320  1.0000 0.2467015944
H   H6        1.0  0.18590  0.06230  0.97620  1.0000 0.2567853891
H   H7        1.0  0.15580  0.36300  0.08680  1.0000 0.2467015944
H   H8        1.0  0.08610  0.20970  0.02380  1.0000 0.2567853891
H   H9        1.0  0.43100  0.22380  0.08680  1.0000 0.2467015944
H   H10       1.0  0.43770  0.31410  0.02380  1.0000 0.2567853891
H   H11       1.0  0.13700  0.34420  0.91320  1.0000 0.2467015944
H   H12       1.0  0.29030  0.41390  0.97620  1.0000 0.2567853891
H   H13       1.0  0.47380  0.88700  0.29280  1.0000 0.2467015944
H   H14       1.0  0.56410  0.04030  0.37640  1.0000 0.2567853891
H   H15       1.0  0.59420  0.18100  0.70720  1.0000 0.2467015944
H   H16       1.0  0.66390  0.18770  0.62360  1.0000 0.2567853891
H   H17       1.0  0.93100  0.84420  0.20720  1.0000 0.2467015944
H   H18       1.0  0.93770  0.91390  0.12360  1.0000 0.2567853891
H   H19       1.0  0.63700  0.72380  0.79280  1.0000 0.2467015944
H   H20       1.0  0.79030  0.81410  0.87640  1.0000 0.2567853891
H   H21       1.0  0.97380  0.68100  0.58680  1.0000 0.2467015944
H   H22       1.0  0.06410  0.68770  0.52380  1.0000 0.2567853891
H   H23       1.0  0.09420  0.38700  0.41320  1.0000 0.2467015944
H   H24       1.0  0.16390  0.54030  0.47620  1.0000 0.2567853891
H   H25       1.0  0.81900  0.52620  0.41320  1.0000 0.2467015944
H   H26       1.0  0.81230  0.43590  0.47620  1.0000 0.2567853891
H   H27       1.0  0.11300  0.40580  0.58680  1.0000 0.2467015944
H   H28       1.0  0.95970  0.33610  0.52380  1.0000 0.2567853891
H   H29       1.0  0.77620  0.86300  0.20720  1.0000 0.2467015944
H   H30       1.0  0.68590  0.70970  0.12360  1.0000 0.2567853891
H   H31       1.0  0.65580  0.56900  0.79280  1.0000 0.2467015944
H   H32       1.0  0.58610  0.56230  0.87640  1.0000 0.2567853891
C   C1        1.0  0.28641  0.14856  0.30647  1.0000 0.4553940259
C   C2        1.0  0.84209  0.97994  0.69353  1.0000 0.4553940259
C   C3        1.0  0.22994  0.03641  0.63785  1.0000 0.4553940259
C   C4        1.0  0.39856  0.59209  0.36215  1.0000 0.4553940259
C   C5        1.0  0.46359  0.27006  0.36215  1.0000 0.4553940259
C   C6        1.0  0.90791  0.10144  0.63785  1.0000 0.4553940259
C   C7        1.0  0.52006  0.65791  0.30647  1.0000 0.4553940259
C   C8        1.0  0.35144  0.21359  0.69353  1.0000 0.4553940259
C   C9        1.0  0.96359  0.60144  0.19353  1.0000 0.4553940259
C   C10       1.0  0.40791  0.77006  0.80647  1.0000 0.4553940259
C   C11       1.0  0.02006  0.71359  0.86215  1.0000 0.4553940259
C   C12       1.0  0.85144  0.15791  0.13785  1.0000 0.4553940259
C   C13       1.0  0.78641  0.47994  0.13785  1.0000 0.4553940259
C   C14       1.0  0.34209  0.64856  0.86215  1.0000 0.4553940259
C   C15       1.0  0.72994  0.09209  0.19353  1.0000 0.4553940259
C   C16       1.0  0.89856  0.53641  0.80647  1.0000 0.4553940259
N   N1        1.0  0.36186  0.91683  0.36051  1.0000 -0.369861288
N   N2        1.0  0.55632  0.00135  0.63949  1.0000 -0.369861288
N   N3        1.0  0.25135  0.11186  0.94503  1.0000 -0.369861288
N   N4        1.0  0.16683  0.30632  0.05497  1.0000 -0.369861288
N   N5        1.0  0.38814  0.24865  0.05497  1.0000 -0.369861288
N   N6        1.0  0.19368  0.33317  0.94503  1.0000 -0.369861288
N   N7        1.0  0.49865  0.94368  0.36051  1.0000 -0.369861288
N   N8        1.0  0.58317  0.13814  0.63949  1.0000 -0.369861288
N   N9        1.0  0.88814  0.83317  0.13949  1.0000 -0.369861288
N   N10       1.0  0.69368  0.74865  0.86051  1.0000 -0.369861288
N   N11       1.0  0.99865  0.63814  0.55497  1.0000 -0.369861288
N   N12       1.0  0.08317  0.44368  0.44503  1.0000 -0.369861288
N   N13       1.0  0.86186  0.50135  0.44503  1.0000 -0.369861288
N   N14       1.0  0.05632  0.41683  0.55497  1.0000 -0.369861288
N   N15       1.0  0.75135  0.80632  0.13949  1.0000 -0.369861288
N   N16       1.0  0.66683  0.61186  0.86051  1.0000 -0.369861288
O   O1        1.0  0.23210  0.06250  0.36144  1.0000 -0.4700644558
O   O2        1.0  0.21029  0.14728  0.21235  1.0000 -0.4700644558
O   O3        1.0  0.70106  0.87066  0.63856  1.0000 -0.4700644558
O   O4        1.0  0.93493  0.99794  0.78765  1.0000 -0.4750686921
O   O5        1.0  0.12066  0.98210  0.66960  1.0000 -0.4700644558
O   O6        1.0  0.24794  0.96029  0.56301  1.0000 -0.4700644558
O   O7        1.0  0.31250  0.45106  0.33040  1.0000 -0.4700644558
O   O8        1.0  0.39728  0.68493  0.43699  1.0000 -0.4700644558
O   O9        1.0  0.51790  0.37934  0.33040  1.0000 -0.4700644558
O   O10       1.0  0.53971  0.25206  0.43699  1.0000 -0.4750686921
O   O11       1.0  0.04894  0.18750  0.66960  1.0000 -0.4700644558
O   O12       1.0  0.81507  0.10272  0.56301  1.0000 -0.4750686921
O   O13       1.0  0.62934  0.79894  0.36144  1.0000 -0.4700644558
O   O14       1.0  0.50206  0.56507  0.21235  1.0000 -0.4700644558
O   O15       1.0  0.43750  0.26790  0.63856  1.0000 -0.4700644558
O   O16       1.0  0.35272  0.28971  0.78765  1.0000 -0.4700644558
O   O17       1.0  0.01790  0.68750  0.13856  1.0000 -0.4700644558
O   O18       1.0  0.03971  0.60272  0.28765  1.0000 -0.4700644558
O   O19       1.0  0.54894  0.87934  0.86144  1.0000 -0.4700644558
O   O20       1.0  0.31507  0.75206  0.71235  1.0000 -0.4700644558
O   O21       1.0  0.12934  0.76790  0.83040  1.0000 -0.4700644558
O   O22       1.0  0.00206  0.78971  0.93699  1.0000 -0.4700644558
O   O23       1.0  0.93750  0.29894  0.16960  1.0000 -0.4700644558
O   O24       1.0  0.85272  0.06507  0.06301  1.0000 -0.4750686921
O   O25       1.0  0.73210  0.37066  0.16960  1.0000 -0.4700644558
O   O26       1.0  0.71029  0.49794  0.06301  1.0000 -0.4700644558
O   O27       1.0  0.20106  0.56250  0.83040  1.0000 -0.4700644558
O   O28       1.0  0.43493  0.64728  0.93699  1.0000 -0.4700644558
O   O29       1.0  0.62066  0.95106  0.13856  1.0000 -0.4700644558
O   O30       1.0  0.74794  0.18493  0.28765  1.0000 -0.4750686921
O   O31       1.0  0.81250  0.48210  0.86144  1.0000 -0.4700644558
O   O32       1.0  0.89728  0.46029  0.71235  1.0000 -0.4750686921
