# DDEC6 charges by PACMAN v1.1 (https://github.com/mtap-research/PACMAN-charge/)
data_2017[Cd][sql]2[FSR]14
_chemical_formula_sum              "Cd4 H56 C80 N16 O16"
_cell_length_a       10.1935
_cell_length_b       14.0572
_cell_length_c       16.1289
_cell_angle_alpha    90
_cell_angle_beta     101.132
_cell_angle_gamma    90

_symmetry_space_group_name_H-M    "P 1"
_symmetry_Int_Tables_number       1

loop_
  _symmetry_equiv_pos_as_xyz
  'x, y, z'

loop_
  _atom_site_type_symbol
  _atom_site_label
  _atom_site_symmetry_multiplicity
  _atom_site_fract_x
  _atom_site_fract_y
  _atom_site_fract_z
  _atom_site_occupancy
  _atom_site_charge
Cd  Cd1       1.0  0.38731  0.01807  0.58218  1.0000 0.8855370696
Cd  Cd2       1.0  0.61269  0.98193  0.41782  1.0000 0.8855370696
Cd  Cd3       1.0  0.61269  0.51807  0.91782  1.0000 0.8855370696
Cd  Cd4       1.0  0.38731  0.48193  0.08218  1.0000 0.8855370696
H   H1        1.0  0.90480  0.03130  0.58700  1.0000 0.1360045787
H   H2        1.0  0.75170  0.02980  0.79900  1.0000 0.1021670706
H   H3        1.0  0.96450  0.01180  0.87920  1.0000 0.1021670706
H   H4        1.0  0.14810  0.01080  0.81450  1.0000 0.1102533943
H   H5        1.0  0.47050  0.25000  0.61690  1.0000 0.1102533943
H   H6        1.0  0.20180  0.15750  0.42840  1.0000 0.1360045787
H   H7        1.0  0.19450  0.33060  0.42200  1.0000 0.1309154333
H   H8        1.0  0.55490  0.40100  0.62440  1.0000 0.1309154333
H   H9        1.0  0.59650  0.55760  0.66530  1.0000 0.1309154333
H   H10       1.0  0.24140  0.63480  0.52710  1.0000 0.1309154333
H   H11       1.0  0.19710  0.47740  0.48890  1.0000 0.1216547903
H   H12       1.0  0.34380  0.78580  0.52770  1.0000 0.1102533943
H   H13       1.0  0.58180  0.70160  0.74000  1.0000 0.1360045787
H   H14       1.0  0.57400  0.87580  0.73600  1.0000 0.1216547903
H   H15       1.0  0.09520  0.96870  0.41300  1.0000 0.1360045787
H   H16       1.0  0.24830  0.97020  0.20100  1.0000 0.1102533943
H   H17       1.0  0.03550  0.98820  0.12080  1.0000 0.1021670706
H   H18       1.0  0.85190  0.98920  0.18550  1.0000 0.1102533943
H   H19       1.0  0.52950  0.75000  0.38310  1.0000 0.1102533943
H   H20       1.0  0.79820  0.84250  0.57160  1.0000 0.1309154333
H   H21       1.0  0.80550  0.66940  0.57800  1.0000 0.1309154333
H   H22       1.0  0.44510  0.59900  0.37560  1.0000 0.1309154333
H   H23       1.0  0.40350  0.44240  0.33470  1.0000 0.1309154333
H   H24       1.0  0.75860  0.36520  0.47290  1.0000 0.1309154333
H   H25       1.0  0.80290  0.52260  0.51110  1.0000 0.1216547903
H   H26       1.0  0.65620  0.21420  0.47230  1.0000 0.1102533943
H   H27       1.0  0.41820  0.29840  0.26000  1.0000 0.1360045787
H   H28       1.0  0.42600  0.12420  0.26400  1.0000 0.1216547903
H   H29       1.0  0.09520  0.53130  0.91300  1.0000 0.1360045787
H   H30       1.0  0.24830  0.52980  0.70100  1.0000 0.1021670706
H   H31       1.0  0.03550  0.51180  0.62080  1.0000 0.1021670706
H   H32       1.0  0.85190  0.51080  0.68550  1.0000 0.1102533943
H   H33       1.0  0.52950  0.75000  0.88310  1.0000 0.1102533943
H   H34       1.0  0.79820  0.65750  0.07160  1.0000 0.1360045787
H   H35       1.0  0.80550  0.83060  0.07800  1.0000 0.1309154333
H   H36       1.0  0.44510  0.90100  0.87560  1.0000 0.1309154333
H   H37       1.0  0.40350  0.05760  0.83470  1.0000 0.1309154333
H   H38       1.0  0.75860  0.13480  0.97290  1.0000 0.1309154333
H   H39       1.0  0.80290  0.97740  0.01110  1.0000 0.1216547903
H   H40       1.0  0.65620  0.28580  0.97230  1.0000 0.1102533943
H   H41       1.0  0.41820  0.20160  0.76000  1.0000 0.1360045787
H   H42       1.0  0.42600  0.37580  0.76400  1.0000 0.1216547903
H   H43       1.0  0.90480  0.46870  0.08700  1.0000 0.1360045787
H   H44       1.0  0.75170  0.47020  0.29900  1.0000 0.1021670706
H   H45       1.0  0.96450  0.48820  0.37920  1.0000 0.1021670706
H   H46       1.0  0.14810  0.48920  0.31450  1.0000 0.1102533943
H   H47       1.0  0.47050  0.25000  0.11690  1.0000 0.1102533943
H   H48       1.0  0.20180  0.34250  0.92840  1.0000 0.1360045787
H   H49       1.0  0.19450  0.16940  0.92200  1.0000 0.1309154333
H   H50       1.0  0.55490  0.09900  0.12440  1.0000 0.1309154333
H   H51       1.0  0.59650  0.94240  0.16530  1.0000 0.1309154333
H   H52       1.0  0.24140  0.86520  0.02710  1.0000 0.1309154333
H   H53       1.0  0.19710  0.02260  0.98890  1.0000 0.1216547903
H   H54       1.0  0.34380  0.71420  0.02770  1.0000 0.1102533943
H   H55       1.0  0.58180  0.79840  0.24000  1.0000 0.1360045787
H   H56       1.0  0.57400  0.62420  0.23600  1.0000 0.1216547903
C   C1        1.0  0.04480  0.02201  0.69424  1.0000 -0.0017475346
C   C2        1.0  0.91690  0.02954  0.64558  1.0000 -0.1190011038
C   C3        1.0  0.80680  0.03450  0.68494  1.0000 -0.018947078
C   C4        1.0  0.82520  0.02760  0.77265  1.0000 -0.1109399158
C   C5        1.0  0.95280  0.01750  0.82076  1.0000 -0.1190011038
C   C6        1.0  0.06250  0.01590  0.78203  1.0000 -0.1190011038
C   C7        1.0  0.16620  0.02167  0.65371  1.0000 0.5418704864
C   C8        1.0  0.66667  0.04463  0.63545  1.0000 0.5557559248
C   C9        1.0  0.40240  0.24840  0.56938  1.0000 0.0854702484
C   C10       1.0  0.25530  0.19830  0.46590  1.0000 -0.018947078
C   C11       1.0  0.25050  0.29390  0.46199  1.0000 -0.1109399158
C   C12       1.0  0.37180  0.42355  0.55283  1.0000 0.156034743
C   C13       1.0  0.49170  0.44770  0.60530  1.0000 -0.1764396673
C   C14       1.0  0.51700  0.54150  0.62921  1.0000 -0.1313916143
C   C15       1.0  0.42410  0.61142  0.59954  1.0000 0.1548055377
C   C16       1.0  0.30390  0.58780  0.54677  1.0000 -0.1764396673
C   C17       1.0  0.27770  0.49370  0.52376  1.0000 -0.1764396673
C   C18       1.0  0.40160  0.78690  0.57989  1.0000 0.1021670706
C   C19       1.0  0.53330  0.73920  0.69737  1.0000 -0.1001341153
C   C20       1.0  0.52850  0.83540  0.69450  1.0000 -0.0353793349
C   C21       1.0  0.95520  0.97799  0.30576  1.0000 -0.0017475346
C   C22       1.0  0.08310  0.97046  0.35442  1.0000 -0.1190011038
C   C23       1.0  0.19320  0.96550  0.31506  1.0000 -0.018947078
C   C24       1.0  0.17480  0.97240  0.22735  1.0000 -0.1109399158
C   C25       1.0  0.04720  0.98250  0.17924  1.0000 -0.1190011038
C   C26       1.0  0.93750  0.98410  0.21797  1.0000 -0.1190011038
C   C27       1.0  0.83380  0.97833  0.34629  1.0000 0.5418704864
C   C28       1.0  0.33333  0.95537  0.36455  1.0000 0.5557559248
C   C29       1.0  0.59760  0.75160  0.43062  1.0000 0.0854702484
C   C30       1.0  0.74470  0.80170  0.53410  1.0000 -0.018947078
C   C31       1.0  0.74950  0.70610  0.53801  1.0000 -0.1109399158
C   C32       1.0  0.62820  0.57645  0.44717  1.0000 0.156034743
C   C33       1.0  0.50830  0.55230  0.39470  1.0000 -0.1764396673
C   C34       1.0  0.48300  0.45850  0.37079  1.0000 -0.1313916143
C   C35       1.0  0.57590  0.38858  0.40046  1.0000 0.156034743
C   C36       1.0  0.69610  0.41220  0.45323  1.0000 -0.1764396673
C   C37       1.0  0.72230  0.50630  0.47624  1.0000 -0.1764396673
C   C38       1.0  0.59840  0.21310  0.42011  1.0000 0.1021670706
C   C39       1.0  0.46670  0.26080  0.30263  1.0000 -0.1001341153
C   C40       1.0  0.47150  0.16460  0.30550  1.0000 -0.0353793349
C   C41       1.0  0.95520  0.52201  0.80576  1.0000 -0.0017475346
C   C42       1.0  0.08310  0.52954  0.85442  1.0000 -0.1190011038
C   C43       1.0  0.19320  0.53450  0.81506  1.0000 -0.018947078
C   C44       1.0  0.17480  0.52760  0.72735  1.0000 -0.1109399158
C   C45       1.0  0.04720  0.51750  0.67924  1.0000 -0.1190011038
C   C46       1.0  0.93750  0.51590  0.71797  1.0000 -0.1190011038
C   C47       1.0  0.83380  0.52167  0.84629  1.0000 0.5418704864
C   C48       1.0  0.33333  0.54463  0.86455  1.0000 0.5557559248
C   C49       1.0  0.59760  0.74840  0.93062  1.0000 0.0854702484
C   C50       1.0  0.74470  0.69830  0.03410  1.0000 -0.018947078
C   C51       1.0  0.74950  0.79390  0.03801  1.0000 -0.1109399158
C   C52       1.0  0.62820  0.92355  0.94717  1.0000 0.156034743
C   C53       1.0  0.50830  0.94770  0.89470  1.0000 -0.1764396673
C   C54       1.0  0.48300  0.04150  0.87079  1.0000 -0.1313916143
C   C55       1.0  0.57590  0.11142  0.90046  1.0000 0.156034743
C   C56       1.0  0.69610  0.08780  0.95323  1.0000 -0.1764396673
C   C57       1.0  0.72230  0.99370  0.97624  1.0000 -0.1764396673
C   C58       1.0  0.59840  0.28690  0.92011  1.0000 0.1021670706
C   C59       1.0  0.46670  0.23920  0.80263  1.0000 -0.1001341153
C   C60       1.0  0.47150  0.33540  0.80550  1.0000 -0.0353793349
C   C61       1.0  0.04480  0.47799  0.19424  1.0000 -0.0017475346
C   C62       1.0  0.91690  0.47046  0.14558  1.0000 -0.1190011038
C   C63       1.0  0.80680  0.46550  0.18494  1.0000 -0.018947078
C   C64       1.0  0.82520  0.47240  0.27265  1.0000 -0.1109399158
C   C65       1.0  0.95280  0.48250  0.32076  1.0000 -0.1190011038
C   C66       1.0  0.06250  0.48410  0.28203  1.0000 -0.1190011038
C   C67       1.0  0.16620  0.47833  0.15371  1.0000 0.5418704864
C   C68       1.0  0.66667  0.45537  0.13545  1.0000 0.5557559248
C   C69       1.0  0.40240  0.25160  0.06938  1.0000 0.0854702484
C   C70       1.0  0.25530  0.30170  0.96590  1.0000 -0.018947078
C   C71       1.0  0.25050  0.20610  0.96199  1.0000 -0.1109399158
C   C72       1.0  0.37180  0.07645  0.05283  1.0000 0.156034743
C   C73       1.0  0.49170  0.05230  0.10530  1.0000 -0.1764396673
C   C74       1.0  0.51700  0.95850  0.12921  1.0000 -0.1313916143
C   C75       1.0  0.42410  0.88858  0.09954  1.0000 0.156034743
C   C76       1.0  0.30390  0.91220  0.04677  1.0000 -0.1764396673
C   C77       1.0  0.27770  0.00630  0.02376  1.0000 -0.1764396673
C   C78       1.0  0.40160  0.71310  0.07989  1.0000 0.1021670706
C   C79       1.0  0.53330  0.76080  0.19737  1.0000 -0.1001341153
C   C80       1.0  0.52850  0.66460  0.19450  1.0000 -0.0353793349
N   N1        1.0  0.35030  0.17005  0.53325  1.0000 -0.2703701813
N   N2        1.0  0.34470  0.32685  0.52879  1.0000 -0.0017475346
N   N3        1.0  0.45150  0.70822  0.62391  1.0000 0.0008347155
N   N4        1.0  0.44590  0.86457  0.62094  1.0000 -0.2703701813
N   N5        1.0  0.64970  0.82995  0.46675  1.0000 -0.2703701813
N   N6        1.0  0.65530  0.67315  0.47121  1.0000 -0.0017475346
N   N7        1.0  0.54850  0.29178  0.37609  1.0000 0.0008347155
N   N8        1.0  0.55410  0.13543  0.37906  1.0000 -0.2703701813
N   N9        1.0  0.64970  0.67005  0.96675  1.0000 -0.2703701813
N   N10       1.0  0.65530  0.82685  0.97121  1.0000 -0.0017475346
N   N11       1.0  0.54850  0.20822  0.87609  1.0000 0.0008347155
N   N12       1.0  0.55410  0.36457  0.87906  1.0000 -0.2703701813
N   N13       1.0  0.35030  0.32995  0.03325  1.0000 -0.2703701813
N   N14       1.0  0.34470  0.17315  0.02879  1.0000 -0.0017475346
N   N15       1.0  0.45150  0.79178  0.12391  1.0000 0.0008347155
N   N16       1.0  0.44590  0.63543  0.12094  1.0000 -0.2703701813
O   O1        1.0  0.27577  0.04731  0.69834  1.0000 -0.5748368386
O   O2        1.0  0.15440  0.99664  0.57826  1.0000 -0.5320773009
O   O3        1.0  0.64370  0.03079  0.55707  1.0000 -0.5774520043
O   O4        1.0  0.57662  0.06429  0.67628  1.0000 -0.5519696359
O   O5        1.0  0.72423  0.95269  0.30166  1.0000 -0.5748368386
O   O6        1.0  0.84560  0.00336  0.42174  1.0000 -0.5320773009
O   O7        1.0  0.35630  0.96921  0.44293  1.0000 -0.5774520043
O   O8        1.0  0.42338  0.93571  0.32372  1.0000 -0.5519696359
O   O9        1.0  0.72423  0.54731  0.80166  1.0000 -0.5774520043
O   O10       1.0  0.84560  0.49664  0.92174  1.0000 -0.5320773009
O   O11       1.0  0.35630  0.53079  0.94293  1.0000 -0.5774520043
O   O12       1.0  0.42338  0.56429  0.82372  1.0000 -0.5519696359
O   O13       1.0  0.27577  0.45269  0.19834  1.0000 -0.5748368386
O   O14       1.0  0.15440  0.50336  0.07826  1.0000 -0.5320773009
O   O15       1.0  0.64370  0.46921  0.05707  1.0000 -0.5774520043
O   O16       1.0  0.57662  0.43571  0.17628  1.0000 -0.5519696359
