# DDEC6 charges by PACMAN v1.1 (https://github.com/mtap-research/PACMAN-charge/)
data_2017[Tb][dia]3[FSR]1
_chemical_formula_sum              "Tb8 H16 C32 O72"
_cell_length_a       9.7909
_cell_length_b       17.2987
_cell_length_c       16.5329
_cell_angle_alpha    90
_cell_angle_beta     118.857
_cell_angle_gamma    90

_symmetry_space_group_name_H-M    "P 1"
_symmetry_Int_Tables_number       1

loop_
  _symmetry_equiv_pos_as_xyz
  'x, y, z'

loop_
  _atom_site_type_symbol
  _atom_site_label
  _atom_site_symmetry_multiplicity
  _atom_site_fract_x
  _atom_site_fract_y
  _atom_site_fract_z
  _atom_site_occupancy
  _atom_site_charge
Tb  Tb1       1.0  0.16306  0.37811  0.65841  1.0000 1.9792907813
Tb  Tb2       1.0  0.60684  0.16358  0.58781  1.0000 1.9658645966
Tb  Tb3       1.0  0.83694  0.87811  0.84159  1.0000 1.9792907813
Tb  Tb4       1.0  0.39316  0.66358  0.91219  1.0000 1.9658645966
Tb  Tb5       1.0  0.83694  0.62189  0.34159  1.0000 1.9792907813
Tb  Tb6       1.0  0.39316  0.83642  0.41219  1.0000 1.9658645966
Tb  Tb7       1.0  0.16306  0.12189  0.15841  1.0000 1.9792907813
Tb  Tb8       1.0  0.60684  0.33642  0.08781  1.0000 1.9658645966
H   H1        1.0  0.25590  0.37620  0.85100  1.0000 0.4094632843
H   H2        1.0  0.12820  0.32600  0.81150  1.0000 0.4279712716
H   H3        1.0  0.49200  0.18200  0.38500  1.0000 0.4431500786
H   H4        1.0  0.66200  0.18600  0.47100  1.0000 0.4011066088
H   H5        1.0  0.74410  0.87620  0.64900  1.0000 0.4094632843
H   H6        1.0  0.87180  0.82600  0.68850  1.0000 0.4279712716
H   H7        1.0  0.50800  0.68200  0.11500  1.0000 0.4431500786
H   H8        1.0  0.33800  0.68600  0.02900  1.0000 0.4011066088
H   H9        1.0  0.74410  0.62380  0.14900  1.0000 0.4094632843
H   H10       1.0  0.87180  0.67400  0.18850  1.0000 0.4279712716
H   H11       1.0  0.50800  0.81800  0.61500  1.0000 0.4431500786
H   H12       1.0  0.33800  0.81400  0.52900  1.0000 0.4011066088
H   H13       1.0  0.25590  0.12380  0.35100  1.0000 0.4094632843
H   H14       1.0  0.12820  0.17400  0.31150  1.0000 0.4279712716
H   H15       1.0  0.49200  0.31800  0.88500  1.0000 0.4431500786
H   H16       1.0  0.66200  0.31400  0.97100  1.0000 0.4011066088
C   C1        1.0  0.19770  0.54880  0.74540  1.0000 0.5310421863
C   C2        1.0  0.36620  0.51850  0.78340  1.0000 0.5220175141
C   C3        1.0  0.84280  0.30490  0.63330  1.0000 0.5310421863
C   C4        1.0  0.92930  0.23560  0.61640  1.0000 0.5415289083
C   C5        1.0  0.43770  0.26510  0.67750  1.0000 0.5415289083
C   C6        1.0  0.33910  0.27740  0.57200  1.0000 0.5415289083
C   C7        1.0  0.92410  0.47580  0.48190  1.0000 0.5415289083
C   C8        1.0  0.41410  0.01340  0.47580  1.0000 0.5220175141
C   C9        1.0  0.80230  0.04880  0.75460  1.0000 0.5310421863
C   C10       1.0  0.63380  0.01850  0.71660  1.0000 0.5220175141
C   C11       1.0  0.15720  0.80490  0.86670  1.0000 0.5310421863
C   C12       1.0  0.07070  0.73560  0.88360  1.0000 0.5415289083
C   C13       1.0  0.56230  0.76510  0.82250  1.0000 0.5415289083
C   C14       1.0  0.66090  0.77740  0.92800  1.0000 0.5415289083
C   C15       1.0  0.07590  0.97580  0.01810  1.0000 0.5415289083
C   C16       1.0  0.58590  0.51340  0.02420  1.0000 0.5220175141
C   C17       1.0  0.80230  0.45120  0.25460  1.0000 0.5310421863
C   C18       1.0  0.63380  0.48150  0.21660  1.0000 0.5220175141
C   C19       1.0  0.15720  0.69510  0.36670  1.0000 0.5310421863
C   C20       1.0  0.07070  0.76440  0.38360  1.0000 0.5415289083
C   C21       1.0  0.56230  0.73490  0.32250  1.0000 0.5415289083
C   C22       1.0  0.66090  0.72260  0.42800  1.0000 0.5415289083
C   C23       1.0  0.07590  0.52420  0.51810  1.0000 0.5415289083
C   C24       1.0  0.58590  0.98660  0.52420  1.0000 0.5220175141
C   C25       1.0  0.19770  0.95120  0.24540  1.0000 0.5310421863
C   C26       1.0  0.36620  0.98150  0.28340  1.0000 0.5220175141
C   C27       1.0  0.84280  0.19510  0.13330  1.0000 0.5310421863
C   C28       1.0  0.92930  0.26440  0.11640  1.0000 0.5415289083
C   C29       1.0  0.43770  0.23490  0.17750  1.0000 0.5415289083
C   C30       1.0  0.33910  0.22260  0.07200  1.0000 0.5415289083
C   C31       1.0  0.92410  0.02420  0.98190  1.0000 0.5415289083
C   C32       1.0  0.41410  0.48660  0.97580  1.0000 0.5220175141
O   O1        1.0  0.09050  0.50080  0.70040  1.0000 -0.5392229152
O   O2        1.0  0.18190  0.61710  0.76310  1.0000 -0.5122590384
O   O3        1.0  0.38590  0.45300  0.76010  1.0000 -0.5303315121
O   O4        1.0  0.47340  0.56380  0.83640  1.0000 -0.5303315121
O   O5        1.0  0.91630  0.36610  0.66040  1.0000 -0.5122590384
O   O6        1.0  0.70620  0.29200  0.61780  1.0000 -0.5506608186
O   O7        1.0  0.06280  0.24970  0.62780  1.0000 -0.5506608186
O   O8        1.0  0.85630  0.17360  0.59260  1.0000 -0.5303315121
O   O9        1.0  0.55270  0.22010  0.70300  1.0000 -0.5392229152
O   O10       1.0  0.39490  0.29970  0.72710  1.0000 -0.5202902219
O   O11       1.0  0.37490  0.23850  0.52170  1.0000 -0.5303315121
O   O12       1.0  0.22970  0.32620  0.54670  1.0000 -0.5506608186
O   O13       1.0  0.93870  0.40880  0.51120  1.0000 -0.5122590384
O   O14       1.0  0.80020  0.50950  0.42610  1.0000 -0.5202902219
O   O15       1.0  0.39010  0.08440  0.47650  1.0000 -0.5303315121
O   O16       1.0  0.31260  0.96210  0.44130  1.0000 -0.5202902219
O   O17       1.0  0.21410  0.33870  0.81290  1.0000 -0.6947489998
O   O18       1.0  0.56670  0.19490  0.43570  1.0000 -0.7292705199
O   O19       1.0  0.90950  0.00080  0.79960  1.0000 -0.5392229152
O   O20       1.0  0.81810  0.11710  0.73690  1.0000 -0.5122590384
O   O21       1.0  0.61410  0.95300  0.73990  1.0000 -0.5303315121
O   O22       1.0  0.52660  0.06380  0.66360  1.0000 -0.5303315121
O   O23       1.0  0.08370  0.86610  0.83960  1.0000 -0.5122590384
O   O24       1.0  0.29380  0.79200  0.88220  1.0000 -0.5506608186
O   O25       1.0  0.93720  0.74970  0.87220  1.0000 -0.5506608186
O   O26       1.0  0.14370  0.67360  0.90740  1.0000 -0.5202902219
O   O27       1.0  0.44730  0.72010  0.79700  1.0000 -0.5392229152
O   O28       1.0  0.60510  0.79970  0.77290  1.0000 -0.5202902219
O   O29       1.0  0.62510  0.73850  0.97830  1.0000 -0.5303315121
O   O30       1.0  0.77030  0.82620  0.95330  1.0000 -0.5506608186
O   O31       1.0  0.06130  0.90880  0.98880  1.0000 -0.5122590384
O   O32       1.0  0.19980  0.00950  0.07390  1.0000 -0.5202902219
O   O33       1.0  0.60990  0.58440  0.02350  1.0000 -0.5303315121
O   O34       1.0  0.68740  0.46210  0.05870  1.0000 -0.5202902219
O   O35       1.0  0.78590  0.83870  0.68710  1.0000 -0.6947489998
O   O36       1.0  0.43330  0.69490  0.06430  1.0000 -0.7292705199
O   O37       1.0  0.90950  0.49920  0.29960  1.0000 -0.5506608186
O   O38       1.0  0.81810  0.38290  0.23690  1.0000 -0.5122590384
O   O39       1.0  0.61410  0.54700  0.23990  1.0000 -0.5303315121
O   O40       1.0  0.52660  0.43620  0.16360  1.0000 -0.5303315121
O   O41       1.0  0.08370  0.63390  0.33960  1.0000 -0.5122590384
O   O42       1.0  0.29380  0.70800  0.38220  1.0000 -0.5506608186
O   O43       1.0  0.93720  0.75030  0.37220  1.0000 -0.5506608186
O   O44       1.0  0.14370  0.82640  0.40740  1.0000 -0.5202902219
O   O45       1.0  0.44730  0.77990  0.29700  1.0000 -0.5392229152
O   O46       1.0  0.60510  0.70030  0.27290  1.0000 -0.5202902219
O   O47       1.0  0.62510  0.76150  0.47830  1.0000 -0.5303315121
O   O48       1.0  0.77030  0.67380  0.45330  1.0000 -0.5506608186
O   O49       1.0  0.06130  0.59120  0.48880  1.0000 -0.5122590384
O   O50       1.0  0.19980  0.49050  0.57390  1.0000 -0.5202902219
O   O51       1.0  0.60990  0.91560  0.52350  1.0000 -0.5303315121
O   O52       1.0  0.68740  0.03790  0.55870  1.0000 -0.5202902219
O   O53       1.0  0.78590  0.66130  0.18710  1.0000 -0.6947489998
O   O54       1.0  0.43330  0.80510  0.56430  1.0000 -0.7292705199
O   O55       1.0  0.09050  0.99920  0.20040  1.0000 -0.5392229152
O   O56       1.0  0.18190  0.88290  0.26310  1.0000 -0.5122590384
O   O57       1.0  0.38590  0.04700  0.26010  1.0000 -0.5303315121
O   O58       1.0  0.47340  0.93620  0.33640  1.0000 -0.5303315121
O   O59       1.0  0.91630  0.13390  0.16040  1.0000 -0.5122590384
O   O60       1.0  0.70620  0.20800  0.11780  1.0000 -0.5506608186
O   O61       1.0  0.06280  0.25030  0.12780  1.0000 -0.5506608186
O   O62       1.0  0.85630  0.32640  0.09260  1.0000 -0.5202902219
O   O63       1.0  0.55270  0.27990  0.20300  1.0000 -0.5392229152
O   O64       1.0  0.39490  0.20030  0.22710  1.0000 -0.5202902219
O   O65       1.0  0.37490  0.26150  0.02170  1.0000 -0.5303315121
O   O66       1.0  0.22970  0.17380  0.04670  1.0000 -0.5506608186
O   O67       1.0  0.93870  0.09120  0.01120  1.0000 -0.5122590384
O   O68       1.0  0.80020  0.99050  0.92610  1.0000 -0.5202902219
O   O69       1.0  0.39010  0.41560  0.97650  1.0000 -0.5303315121
O   O70       1.0  0.31260  0.53790  0.94130  1.0000 -0.5202902219
O   O71       1.0  0.21410  0.16130  0.31290  1.0000 -0.6947489998
O   O72       1.0  0.56670  0.30510  0.93570  1.0000 -0.7292705199
