# DDEC6 charges by PACMAN v1.1 (https://github.com/mtap-research/PACMAN-charge/)
data_2017[La][nan]3[FSR]3
_chemical_formula_sum              "La2 P6 H34 C24 O26"
_cell_length_a       10.35
_cell_length_b       11.94
_cell_length_c       12.75
_cell_angle_alpha    104.97
_cell_angle_beta     90.47
_cell_angle_gamma    93.06

_symmetry_space_group_name_H-M    "P 1"
_symmetry_Int_Tables_number       1

loop_
  _symmetry_equiv_pos_as_xyz
  'x, y, z'

loop_
  _atom_site_type_symbol
  _atom_site_label
  _atom_site_symmetry_multiplicity
  _atom_site_fract_x
  _atom_site_fract_y
  _atom_site_fract_z
  _atom_site_occupancy
  _atom_site_charge
La  La1       1.0  0.99934  0.72733  0.92058  1.0000 1.7685628119
La  La2       1.0  0.00066  0.27267  0.07942  1.0000 1.7685628119
P   P1        1.0  0.19960  0.64110  0.66880  1.0000 1.2494939747
P   P2        1.0  0.80040  0.35890  0.33120  1.0000 1.2494939747
P   P3        1.0  0.13480  0.45160  0.89890  1.0000 1.2644133154
P   P4        1.0  0.86520  0.54840  0.10110  1.0000 1.2644133154
P   P5        1.0  0.85750  0.99080  0.89450  1.0000 1.2732196632
P   P6        1.0  0.14250  0.00920  0.10550  1.0000 1.2732196632
H   H1        1.0  0.11370  0.74420  0.59510  1.0000 0.3894454125
H   H2        1.0  0.88630  0.25580  0.40490  1.0000 0.3894454125
H   H3        1.0  0.48880  0.79240  0.67330  1.0000 0.3411663406
H   H4        1.0  0.51120  0.20760  0.32670  1.0000 0.3411663406
H   H5        1.0  0.03930  0.29880  0.88320  1.0000 0.3467341992
H   H6        1.0  0.96070  0.70120  0.11680  1.0000 0.3467341992
H   H7        1.0  0.22170  0.71080  0.06140  1.0000 0.3411663406
H   H8        1.0  0.77830  0.28920  0.93860  1.0000 0.3411663406
H   H9        1.0  0.94470  0.13210  0.99230  1.0000 0.2006584289
H   H10       1.0  0.05530  0.86790  0.00770  1.0000 0.2006584289
H   H11       1.0  0.77370  0.81410  0.05110  1.0000 0.3411663406
H   H12       1.0  0.22630  0.18590  0.94890  1.0000 0.3411663406
H   H13       1.0  0.85300  0.58070  0.73140  1.0000 0.369972046
H   H14       1.0  0.14700  0.41930  0.26860  1.0000 0.369972046
H   H15       1.0  0.80610  0.69020  0.74290  1.0000 0.369972046
H   H16       1.0  0.19390  0.30980  0.25710  1.0000 0.369972046
H   H17       1.0  0.40580  0.65560  0.74400  1.0000 0.123972516
H   H18       1.0  0.59420  0.34440  0.25600  1.0000 0.1279918874
H   H19       1.0  0.50170  0.47960  0.67440  1.0000 0.1279918874
H   H20       1.0  0.49830  0.52040  0.32560  1.0000 0.1279918874
H   H21       1.0  0.40410  0.65290  0.46150  1.0000 0.123972516
H   H22       1.0  0.59590  0.34710  0.53850  1.0000 0.123972516
H   H23       1.0  0.19470  0.54590  0.07690  1.0000 0.1368403467
H   H24       1.0  0.80530  0.45410  0.92310  1.0000 0.1368403467
H   H25       1.0  0.35930  0.40950  0.09550  1.0000 0.1279918874
H   H26       1.0  0.64070  0.59050  0.90450  1.0000 0.1279918874
H   H27       1.0  0.42970  0.63420  0.91630  1.0000 0.1279918874
H   H28       1.0  0.57030  0.36580  0.08370  1.0000 0.1279918874
H   H29       1.0  0.81030  0.99200  0.07230  1.0000 0.1368403467
H   H30       1.0  0.18970  0.00800  0.92770  1.0000 0.1368403467
H   H31       1.0  0.56520  0.82270  0.90040  1.0000 0.123972516
H   H32       1.0  0.43480  0.17730  0.09960  1.0000 0.123972516
H   H33       1.0  0.65150  0.13290  0.10400  1.0000 0.1279918874
H   H34       1.0  0.34850  0.86710  0.89600  1.0000 0.1279918874
C   C1        1.0  0.37410  0.66630  0.67480  1.0000 -0.1499551912
C   C2        1.0  0.62590  0.33370  0.32520  1.0000 -0.1499551912
C   C3        1.0  0.43890  0.57640  0.58070  1.0000 0.0617010645
C   C4        1.0  0.56110  0.42360  0.41930  1.0000 0.0617010645
C   C5        1.0  0.49970  0.48760  0.60380  1.0000 -0.1243440998
C   C6        1.0  0.50030  0.51240  0.39620  1.0000 -0.1243440998
C   C7        1.0  0.44200  0.58990  0.47680  1.0000 -0.1036826364
C   C8        1.0  0.55800  0.41010  0.52320  1.0000 -0.1036826364
C   C9        1.0  0.22960  0.55260  0.00740  1.0000 -0.1499551912
C   C10       1.0  0.77040  0.44740  0.99260  1.0000 -0.1499551912
C   C11       1.0  0.37130  0.52770  0.00660  1.0000 0.0937433573
C   C12       1.0  0.62870  0.47230  0.99340  1.0000 0.0937433573
C   C13       1.0  0.41590  0.44610  0.05700  1.0000 -0.127891269
C   C14       1.0  0.58410  0.55390  0.94300  1.0000 -0.127891269
C   C15       1.0  0.45820  0.57970  0.95040  1.0000 -0.1036826364
C   C16       1.0  0.54180  0.42030  0.04960  1.0000 -0.1095343498
C   C17       1.0  0.77040  0.94850  0.00270  1.0000 -0.1686296132
C   C18       1.0  0.22960  0.05150  0.99730  1.0000 -0.1686296132
C   C19       1.0  0.62850  0.97480  0.00310  1.0000 0.0937433573
C   C20       1.0  0.37150  0.02520  0.99690  1.0000 0.0937433573
C   C21       1.0  0.53910  0.89420  0.94060  1.0000 -0.1095343498
C   C22       1.0  0.46090  0.10580  0.05940  1.0000 -0.1095343498
C   C23       1.0  0.59100  0.07910  0.06200  1.0000 -0.127891269
C   C24       1.0  0.40900  0.92090  0.93800  1.0000 -0.127891269
O   O1        1.0  0.14930  0.71760  0.77370  1.0000 -0.8112510261
O   O2        1.0  0.85070  0.28240  0.22630  1.0000 -0.8112510261
O   O3        1.0  0.15130  0.68430  0.57230  1.0000 -0.5866872486
O   O4        1.0  0.84870  0.31570  0.42770  1.0000 -0.5866872486
O   O5        1.0  0.17190  0.51210  0.64690  1.0000 -0.6459913668
O   O6        1.0  0.82810  0.48790  0.35310  1.0000 -0.6459913668
O   O7        1.0  0.40970  0.78280  0.67170  1.0000 -0.4222889063
O   O8        1.0  0.59030  0.21720  0.32830  1.0000 -0.4222889063
O   O9        1.0  0.22710  0.41440  0.80060  1.0000 -0.6372054038
O   O10       1.0  0.77290  0.58560  0.19940  1.0000 -0.6372054038
O   O11       1.0  0.02860  0.51540  0.86880  1.0000 -0.7912909207
O   O12       1.0  0.97140  0.48460  0.13120  1.0000 -0.7912909207
O   O13       1.0  0.09200  0.33220  0.93460  1.0000 -0.7309310404
O   O14       1.0  0.90800  0.66780  0.06540  1.0000 -0.7309310404
O   O15       1.0  0.21020  0.66620  0.99790  1.0000 -0.4702189234
O   O16       1.0  0.78980  0.33380  0.00210  1.0000 -0.4702189234
O   O17       1.0  0.75710  0.98510  0.79980  1.0000 -0.6759159979
O   O18       1.0  0.24290  0.01490  0.20020  1.0000 -0.6759159979
O   O19       1.0  0.95500  0.90260  0.85400  1.0000 -0.7955202279
O   O20       1.0  0.04500  0.09740  0.14600  1.0000 -0.7955202279
O   O21       1.0  0.90390  0.12130  0.93490  1.0000 -0.7155937073
O   O22       1.0  0.09610  0.87870  0.06510  1.0000 -0.7155937073
O   O23       1.0  0.78800  0.82730  0.98980  1.0000 -0.482416254
O   O24       1.0  0.21200  0.17270  0.01020  1.0000 -0.482416254
O   O25       1.0  0.82880  0.64120  0.77650  1.0000 -0.7309310404
O   O26       1.0  0.17120  0.35880  0.22350  1.0000 -0.7309310404
