# DDEC6 charges by PACMAN v1.1 (https://github.com/mtap-research/PACMAN-charge/)
data_2017[Co][sql]2[FSR]10
_chemical_formula_sum              "Co2 H40 C54 N4 O16"
_cell_length_a       10.1785
_cell_length_b       11.2977
_cell_length_c       14.5361
_cell_angle_alpha    99.853
_cell_angle_beta     105.945
_cell_angle_gamma    104.634

_symmetry_space_group_name_H-M    "P 1"
_symmetry_Int_Tables_number       1

loop_
  _symmetry_equiv_pos_as_xyz
  'x, y, z'

loop_
  _atom_site_type_symbol
  _atom_site_label
  _atom_site_symmetry_multiplicity
  _atom_site_fract_x
  _atom_site_fract_y
  _atom_site_fract_z
  _atom_site_occupancy
  _atom_site_charge
Co  Co1       1.0  0.85053  0.10819  0.44918  1.0000 0.8511075112
Co  Co2       1.0  0.14947  0.89181  0.55082  1.0000 0.8511075112
H   H1        1.0  0.05660  0.13110  0.65260  1.0000 0.109202947
H   H2        1.0  0.95770  0.39910  0.54190  1.0000 0.109202947
H   H3        1.0  0.21410  0.27350  0.79410  1.0000 0.1200062044
H   H4        1.0  0.11300  0.55040  0.68030  1.0000 0.1396889272
H   H5        1.0  0.26240  0.60300  0.33100  1.0000 0.3671719167
H   H6        1.0  0.58610  0.87360  0.35400  1.0000 0.1200062044
H   H7        1.0  0.44050  0.73760  0.20590  1.0000 0.129996106
H   H8        1.0  0.83110  0.05770  0.22930  1.0000 0.1200062044
H   H9        1.0  0.69290  0.93000  0.07640  1.0000 0.129996106
H   H10       1.0  0.40330  0.57820  0.08930  1.0000 0.1200062044
H   H11       1.0  0.32880  0.67080  0.78700  1.0000 0.129996106
H   H12       1.0  0.37280  0.37760  0.07710  1.0000 0.1200062044
H   H13       1.0  0.22450  0.26920  0.03770  1.0000 0.129996106
H   H14       1.0  0.23330  0.40810  0.08390  1.0000 0.129996106
H   H15       1.0  0.59160  0.83080  0.83150  1.0000 0.1200062044
H   H16       1.0  0.58360  0.96910  0.85350  1.0000 0.129996106
H   H17       1.0  0.44520  0.85610  0.78820  1.0000 0.1200062044
H   H18       1.0  0.40850  0.10420  0.46390  1.0000 0.129996106
H   H19       1.0  0.58270  0.40270  0.37230  1.0000 0.1200062044
H   H20       1.0  0.18610  0.34130  0.39230  1.0000 0.1200062044
H   H21       1.0  0.94340  0.86890  0.34740  1.0000 0.109202947
H   H22       1.0  0.04230  0.60090  0.45810  1.0000 0.109202947
H   H23       1.0  0.78590  0.72650  0.20590  1.0000 0.1200062044
H   H24       1.0  0.88700  0.44960  0.31970  1.0000 0.1396889272
H   H25       1.0  0.73760  0.39700  0.66900  1.0000 0.3671719167
H   H26       1.0  0.41390  0.12640  0.64600  1.0000 0.1200062044
H   H27       1.0  0.55950  0.26240  0.79410  1.0000 0.129996106
H   H28       1.0  0.16890  0.94230  0.77070  1.0000 0.1200062044
H   H29       1.0  0.30710  0.07000  0.92360  1.0000 0.129996106
H   H30       1.0  0.59670  0.42180  0.91070  1.0000 0.1200062044
H   H31       1.0  0.67120  0.32920  0.21300  1.0000 0.129996106
H   H32       1.0  0.62720  0.62240  0.92290  1.0000 0.1200062044
H   H33       1.0  0.77550  0.73080  0.96230  1.0000 0.129996106
H   H34       1.0  0.76670  0.59190  0.91610  1.0000 0.129996106
H   H35       1.0  0.40840  0.16920  0.16850  1.0000 0.1200062044
H   H36       1.0  0.41640  0.03090  0.14650  1.0000 0.129996106
H   H37       1.0  0.55480  0.14390  0.21180  1.0000 0.1200062044
H   H38       1.0  0.59150  0.89580  0.53610  1.0000 0.129996106
H   H39       1.0  0.41730  0.59730  0.62770  1.0000 0.1200062044
H   H40       1.0  0.81390  0.65870  0.60770  1.0000 0.1200062044
C   C1        1.0  0.06710  0.21650  0.65840  1.0000 0.0879237759
C   C2        1.0  0.00950  0.37340  0.59370  1.0000 0.078915115
C   C3        1.0  0.16230  0.30220  0.74420  1.0000 -0.1889147651
C   C4        1.0  0.10270  0.46550  0.67720  1.0000 -0.1889147651
C   C5        1.0  0.60810  0.88510  0.29740  1.0000 0.078915115
C   C6        1.0  0.51970  0.80240  0.20830  1.0000 -0.197668728
C   C7        1.0  0.75050  0.99240  0.22430  1.0000 0.07094318
C   C8        1.0  0.66840  0.91530  0.13140  1.0000 -0.197668728
C   C9        1.0  0.54810  0.81510  0.12050  1.0000 0.129996106
C   C10       1.0  0.45510  0.72000  0.02570  1.0000 -0.0193663344
C   C11       1.0  0.38950  0.59680  0.02820  1.0000 -0.2644929853
C   C12       1.0  0.30570  0.50210  0.94460  1.0000 0.198034856
C   C13       1.0  0.43290  0.74450  0.93170  1.0000 0.1879493925
C   C14       1.0  0.34490  0.65140  0.84800  1.0000 -0.2693012026
C   C15       1.0  0.27810  0.52770  0.85090  1.0000 -0.0193663344
C   C16       1.0  0.27100  0.35710  0.04480  1.0000 -0.2377628055
C   C17       1.0  0.53240  0.88150  0.84380  1.0000 -0.2280402747
C   C18       1.0  0.18240  0.43090  0.75770  1.0000 0.129996106
C   C19       1.0  0.14510  0.12320  0.44190  1.0000 0.5791968438
C   C20       1.0  0.27520  0.20720  0.42800  1.0000 -0.0144010331
C   C21       1.0  0.40110  0.17490  0.44090  1.0000 -0.1147230682
C   C22       1.0  0.51590  0.24790  0.41970  1.0000 -0.0144010331
C   C23       1.0  0.64830  0.20610  0.43040  1.0000 0.5285644862
C   C24       1.0  0.50660  0.35510  0.38760  1.0000 -0.1236384478
C   C25       1.0  0.26830  0.31720  0.39850  1.0000 -0.1306165126
C   C26       1.0  0.38420  0.39170  0.37800  1.0000 -0.0426539001
C   C27       1.0  0.37300  0.50530  0.34110  1.0000 0.5354947182
C   C28       1.0  0.93290  0.78350  0.34160  1.0000 0.0879237759
C   C29       1.0  0.99050  0.62660  0.40630  1.0000 0.078915115
C   C30       1.0  0.83770  0.69780  0.25580  1.0000 -0.1889147651
C   C31       1.0  0.89730  0.53450  0.32280  1.0000 -0.1889147651
C   C32       1.0  0.39190  0.11490  0.70260  1.0000 0.0879237759
C   C33       1.0  0.48030  0.19760  0.79170  1.0000 -0.197668728
C   C34       1.0  0.24950  0.00760  0.77570  1.0000 0.07094318
C   C35       1.0  0.33160  0.08470  0.86860  1.0000 -0.197668728
C   C36       1.0  0.45190  0.18490  0.87950  1.0000 0.129996106
C   C37       1.0  0.54490  0.28000  0.97430  1.0000 -0.0193663344
C   C38       1.0  0.61050  0.40320  0.97180  1.0000 -0.2644929853
C   C39       1.0  0.69430  0.49790  0.05540  1.0000 0.198034856
C   C40       1.0  0.56710  0.25550  0.06830  1.0000 0.1879493925
C   C41       1.0  0.65510  0.34860  0.15200  1.0000 -0.2693012026
C   C42       1.0  0.72190  0.47230  0.14910  1.0000 -0.0193663344
C   C43       1.0  0.72900  0.64290  0.95520  1.0000 -0.2377628055
C   C44       1.0  0.46760  0.11850  0.15620  1.0000 -0.2280402747
C   C45       1.0  0.81760  0.56910  0.24230  1.0000 0.129996106
C   C46       1.0  0.85490  0.87680  0.55810  1.0000 0.5791968438
C   C47       1.0  0.72480  0.79280  0.57200  1.0000 -0.0144010331
C   C48       1.0  0.59890  0.82510  0.55910  1.0000 -0.1147230682
C   C49       1.0  0.48410  0.75210  0.58030  1.0000 -0.0144010331
C   C50       1.0  0.35170  0.79390  0.56960  1.0000 0.5285644862
C   C51       1.0  0.49340  0.64490  0.61240  1.0000 -0.1236384478
C   C52       1.0  0.73170  0.68280  0.60150  1.0000 -0.1306165126
C   C53       1.0  0.61580  0.60830  0.62200  1.0000 -0.0426539001
C   C54       1.0  0.62700  0.49470  0.65890  1.0000 0.5354947182
N   N1        1.0  0.98830  0.24870  0.58226  1.0000 -0.2526713205
N   N2        1.0  0.72410  0.98130  0.30799  1.0000 -0.2526713205
N   N3        1.0  0.01170  0.75130  0.41774  1.0000 -0.2526713205
N   N4        1.0  0.27590  0.01870  0.69201  1.0000 -0.2526713205
O   O1        1.0  0.02630  0.13960  0.40369  1.0000 -0.5561512378
O   O2        1.0  0.16390  0.04350  0.48941  1.0000 -0.5512649086
O   O3        1.0  0.26500  0.54130  0.35320  1.0000 -0.4309854177
O   O4        1.0  0.45280  0.55530  0.30200  1.0000 -0.4992779908
O   O5        1.0  0.66150  0.12260  0.47562  1.0000 -0.5248948005
O   O6        1.0  0.74080  0.25380  0.39337  1.0000 -0.5722039607
O   O7        1.0  0.24480  0.38150  0.94910  1.0000 -0.1458439049
O   O8        1.0  0.49860  0.86490  0.92910  1.0000 -0.1389410761
O   O9        1.0  0.97370  0.86040  0.59631  1.0000 -0.5561512378
O   O10       1.0  0.83610  0.95650  0.51059  1.0000 -0.5512649086
O   O11       1.0  0.73500  0.45870  0.64680  1.0000 -0.4309854177
O   O12       1.0  0.54720  0.44470  0.69800  1.0000 -0.4992779908
O   O13       1.0  0.33850  0.87740  0.52438  1.0000 -0.5248948005
O   O14       1.0  0.25920  0.74620  0.60663  1.0000 -0.5722039607
O   O15       1.0  0.75520  0.61850  0.05090  1.0000 -0.1458439049
O   O16       1.0  0.50140  0.13510  0.07090  1.0000 -0.1389410761
