# DDEC6 charges by PACMAN v1.1 (https://github.com/mtap-research/PACMAN-charge/)
data_2017[Co][nan]2[FSR]2
_chemical_formula_sum              "Co4 H96 C96 N16 O20"
_cell_length_a       21.1225
_cell_length_b       21.1225
_cell_length_c       24.177
_cell_angle_alpha    59.9292
_cell_angle_beta     120.071
_cell_angle_gamma    154.829

_symmetry_space_group_name_H-M    "P 1"
_symmetry_Int_Tables_number       1

loop_
  _symmetry_equiv_pos_as_xyz
  'x, y, z'

loop_
  _atom_site_type_symbol
  _atom_site_label
  _atom_site_symmetry_multiplicity
  _atom_site_fract_x
  _atom_site_fract_y
  _atom_site_fract_z
  _atom_site_occupancy
  _atom_site_charge
Co  Co1       1.0  0.48887  0.58515  0.62806  1.0000 0.7521518052
Co  Co2       1.0  0.11216  0.54044  0.87825  1.0000 0.8618570745
Co  Co3       1.0  0.58515  0.48887  0.37194  1.0000 0.7521518052
Co  Co4       1.0  0.54044  0.11216  0.12175  1.0000 0.8618570745
H   H1        1.0  0.57670  0.60650  0.77150  1.0000 0.0993185028
H   H2        1.0  0.41040  0.34800  0.68930  1.0000 0.1091726895
H   H3        1.0  0.58370  0.50910  0.87190  1.0000 0.1316878346
H   H4        1.0  0.42470  0.25690  0.78390  1.0000 0.1316878346
H   H5        1.0  0.65830  0.47570  0.95510  1.0000 0.1316878346
H   H6        1.0  0.38180  0.13140  0.88060  1.0000 0.1316878346
H   H7        1.0  0.67190  0.38250  0.05150  1.0000 0.0993185028
H   H8        1.0  0.40840  0.05160  0.98180  1.0000 0.1197606976
H   H9        1.0  0.28960  0.72900  0.76510  1.0000 0.1091726895
H   H10       1.0  0.10930  0.38690  0.88520  1.0000 0.0993185028
H   H11       1.0  0.36130  0.73710  0.71170  1.0000 0.1316878346
H   H12       1.0  0.18490  0.39610  0.83670  1.0000 0.1316878346
H   H13       1.0  0.46990  0.77150  0.68120  1.0000 0.1316878346
H   H14       1.0  0.17140  0.35120  0.76200  1.0000 0.1197606976
H   H15       1.0  0.53380  0.76700  0.63090  1.0000 0.1091726895
H   H16       1.0  0.23890  0.35750  0.70850  1.0000 0.0905743324
H   H17       1.0  0.52320  0.28580  0.48750  1.0000 0.0905743324
H   H18       1.0  0.89160  0.71700  0.45760  1.0000 0.1197606976
H   H19       1.0  0.62130  0.28890  0.59250  1.0000 0.1316878346
H   H20       1.0  0.00050  0.73730  0.55920  1.0000 0.1362814487
H   H21       1.0  0.76930  0.32690  0.66920  1.0000 0.1362814487
H   H22       1.0  0.02390  0.71210  0.67070  1.0000 0.1316878346
H   H23       1.0  0.87860  0.34560  0.77220  1.0000 0.1091726895
H   H24       1.0  0.12120  0.71600  0.77570  1.0000 0.1091726895
H   H25       1.0  0.64260  0.85020  0.85570  1.0000 0.1091726895
H   H26       1.0  0.84710  0.20990  0.73570  1.0000 0.1197606976
H   H27       1.0  0.89820  0.10560  0.92400  1.0000 0.0993185028
H   H28       1.0  0.74900  0.93880  0.95360  1.0000 0.0905743324
H   H29       1.0  0.96450  0.20230  0.99460  1.0000 0.1091726895
H   H30       1.0  0.88080  0.05620  0.03830  1.0000 0.1091726895
H   H31       1.0  0.66710  0.92910  0.02010  1.0000 0.0993185028
H   H32       1.0  0.79040  0.09000  0.02750  1.0000 0.1197606976
H   H33       1.0  0.59710  0.97410  0.91940  1.0000 0.1091726895
H   H34       1.0  0.70900  0.84720  0.80590  1.0000 0.1091726895
H   H35       1.0  0.91790  0.21310  0.68590  1.0000 0.1091726895
H   H36       1.0  0.99710  0.06430  0.82840  1.0000 0.0905743324
H   H37       1.0  0.87160  0.89760  0.83000  1.0000 0.0993185028
H   H38       1.0  0.08490  0.01370  0.85700  1.0000 0.0993185028
H   H39       1.0  0.17830  0.16350  0.81150  1.0000 0.0993185028
H   H40       1.0  0.94710  0.88790  0.77170  1.0000 0.1197606976
H   H41       1.0  0.10460  0.04920  0.74630  1.0000 0.1091726895
H   H42       1.0  0.03470  0.10250  0.67890  1.0000 0.0810438326
H   H43       1.0  0.67440  0.68340  0.60470  1.0000 0.3616139472
H   H44       1.0  0.56010  0.60810  0.55320  1.0000 0.3401614607
H   H45       1.0  0.21090  0.34870  0.59070  1.0000 0.3088248552
H   H46       1.0  0.24540  0.30500  0.62890  1.0000 0.3088248552
H   H47       1.0  0.34200  0.81140  0.84020  1.0000 0.3525152982
H   H48       1.0  0.04700  0.58240  0.89960  1.0000 0.3838049353
H   H49       1.0  0.60650  0.57670  0.22850  1.0000 0.0993185028
H   H50       1.0  0.34800  0.41040  0.31070  1.0000 0.1091726895
H   H51       1.0  0.50910  0.58370  0.12810  1.0000 0.1316878346
H   H52       1.0  0.25690  0.42470  0.21610  1.0000 0.1316878346
H   H53       1.0  0.47570  0.65830  0.04490  1.0000 0.1316878346
H   H54       1.0  0.13140  0.38180  0.11940  1.0000 0.1316878346
H   H55       1.0  0.38250  0.67190  0.94850  1.0000 0.0993185028
H   H56       1.0  0.05160  0.40840  0.01820  1.0000 0.1197606976
H   H57       1.0  0.72900  0.28960  0.23490  1.0000 0.1091726895
H   H58       1.0  0.38690  0.10930  0.11480  1.0000 0.0993185028
H   H59       1.0  0.73710  0.36130  0.28830  1.0000 0.1316878346
H   H60       1.0  0.39610  0.18490  0.16330  1.0000 0.1316878346
H   H61       1.0  0.77150  0.46990  0.31880  1.0000 0.1316878346
H   H62       1.0  0.35120  0.17140  0.23800  1.0000 0.1197606976
H   H63       1.0  0.76700  0.53380  0.36910  1.0000 0.1091726895
H   H64       1.0  0.35750  0.23890  0.29150  1.0000 0.0905743324
H   H65       1.0  0.28580  0.52320  0.51250  1.0000 0.0905743324
H   H66       1.0  0.71700  0.89160  0.54240  1.0000 0.1197606976
H   H67       1.0  0.28890  0.62130  0.40750  1.0000 0.1316878346
H   H68       1.0  0.73730  0.00050  0.44080  1.0000 0.1362814487
H   H69       1.0  0.32690  0.76930  0.33080  1.0000 0.1362814487
H   H70       1.0  0.71210  0.02390  0.32930  1.0000 0.1316878346
H   H71       1.0  0.34560  0.87860  0.22780  1.0000 0.1091726895
H   H72       1.0  0.71600  0.12120  0.22430  1.0000 0.1091726895
H   H73       1.0  0.85020  0.64260  0.14430  1.0000 0.1091726895
H   H74       1.0  0.20990  0.84710  0.26430  1.0000 0.1197606976
H   H75       1.0  0.10560  0.89820  0.07600  1.0000 0.0993185028
H   H76       1.0  0.93880  0.74900  0.04640  1.0000 0.0905743324
H   H77       1.0  0.20230  0.96450  0.00540  1.0000 0.1091726895
H   H78       1.0  0.05620  0.88080  0.96170  1.0000 0.1091726895
H   H79       1.0  0.92910  0.66710  0.97990  1.0000 0.0993185028
H   H80       1.0  0.09000  0.79040  0.97250  1.0000 0.1197606976
H   H81       1.0  0.97410  0.59710  0.08060  1.0000 0.1091726895
H   H82       1.0  0.84720  0.70900  0.19410  1.0000 0.1091726895
H   H83       1.0  0.21310  0.91790  0.31410  1.0000 0.1091726895
H   H84       1.0  0.06430  0.99710  0.17160  1.0000 0.0905743324
H   H85       1.0  0.89760  0.87160  0.17000  1.0000 0.0993185028
H   H86       1.0  0.01370  0.08490  0.14300  1.0000 0.0993185028
H   H87       1.0  0.16350  0.17830  0.18850  1.0000 0.0993185028
H   H88       1.0  0.88790  0.94710  0.22830  1.0000 0.1197606976
H   H89       1.0  0.04920  0.10460  0.25370  1.0000 0.1091726895
H   H90       1.0  0.10250  0.03470  0.32110  1.0000 0.0810438326
H   H91       1.0  0.68340  0.67440  0.39530  1.0000 0.3616139472
H   H92       1.0  0.60810  0.56010  0.44680  1.0000 0.3401614607
H   H93       1.0  0.34870  0.21090  0.40930  1.0000 0.3088248552
H   H94       1.0  0.30500  0.24540  0.37110  1.0000 0.3088248552
H   H95       1.0  0.81140  0.34200  0.15980  1.0000 0.3525152982
H   H96       1.0  0.58240  0.04700  0.10040  1.0000 0.3838049353
C   C1        1.0  0.54402  0.53378  0.77412  1.0000 0.1091726895
C   C2        1.0  0.44809  0.38271  0.72650  1.0000 0.0269073688
C   C3        1.0  0.55074  0.47686  0.83520  1.0000 -0.2086019933
C   C4        1.0  0.45528  0.32732  0.78270  1.0000 -0.1814001172
C   C5        1.0  0.50918  0.37442  0.84086  1.0000 0.1091726895
C   C6        1.0  0.52103  0.31697  0.90550  1.0000 0.0993185028
C   C7        1.0  0.60583  0.38877  0.95850  1.0000 -0.2178385972
C   C8        1.0  0.44319  0.18621  0.91460  1.0000 -0.2011657675
C   C9        1.0  0.61230  0.33090  0.01640  1.0000 0.0696788659
C   C10       1.0  0.45896  0.13824  0.97620  1.0000 0.1091726895
C   C11       1.0  0.26757  0.66063  0.77970  1.0000 0.0696788659
C   C12       1.0  0.16300  0.46060  0.85040  1.0000 0.0696788659
C   C13       1.0  0.30957  0.66483  0.74710  1.0000 -0.1814001172
C   C14       1.0  0.20452  0.46288  0.82060  1.0000 -0.1915832988
C   C15       1.0  0.27589  0.56351  0.76620  1.0000 0.0993185028
C   C16       1.0  0.31434  0.56206  0.72930  1.0000 0.1091726895
C   C17       1.0  0.42277  0.68663  0.68840  1.0000 -0.1814001172
C   C18       1.0  0.24640  0.43820  0.73550  1.0000 -0.2011657675
C   C19       1.0  0.45987  0.68213  0.65800  1.0000 0.0993185028
C   C20       1.0  0.28816  0.44304  0.70360  1.0000 0.0562642694
C   C21       1.0  0.62048  0.37812  0.50250  1.0000 0.0905743324
C   C22       1.0  0.83516  0.62924  0.48550  1.0000 0.0810438326
C   C23       1.0  0.67883  0.37857  0.56640  1.0000 -0.1915832988
C   C24       1.0  0.90219  0.64281  0.54640  1.0000 -0.1814001172
C   C25       1.0  0.82179  0.51341  0.58940  1.0000 0.1091726895
C   C26       1.0  0.88740  0.52120  0.65700  1.0000 0.0993185028
C   C27       1.0  0.84243  0.40857  0.68940  1.0000 -0.1915832988
C   C28       1.0  0.99210  0.63590  0.69030  1.0000 -0.1915832988
C   C29       1.0  0.90780  0.42000  0.75170  1.0000 0.0993185028
C   C30       1.0  0.05105  0.63795  0.75370  1.0000 0.0810438326
C   C31       1.0  0.69958  0.92422  0.82180  1.0000 -0.1497283212
C   C32       1.0  0.82126  0.13854  0.75070  1.0000 -0.1292063638
C   C33       1.0  0.74253  0.03447  0.80220  1.0000 -0.0057812391
C   C34       1.0  0.70124  0.04016  0.83420  1.0000 0.3993472636
C   C35       1.0  0.81489  0.03831  0.94240  1.0000 -0.1188397452
C   C36       1.0  0.86910  0.09350  0.99950  1.0000 -0.1915832988
C   C37       1.0  0.75200  0.03400  0.00180  1.0000 -0.1915832988
C   C38       1.0  0.70320  0.05320  0.92740  1.0000 -0.0544774949
C   C39       1.0  0.80468  0.20752  0.90940  1.0000 0.5606257797
C   C40       1.0  0.73909  0.92171  0.79210  1.0000 -0.1497283212
C   C41       1.0  0.86326  0.13994  0.72050  1.0000 -0.1188397452
C   C42       1.0  0.82561  0.03399  0.74070  1.0000 -0.0346361368
C   C43       1.0  0.87215  0.04005  0.70600  1.0000 0.3868151486
C   C44       1.0  0.95802  0.00018  0.80960  1.0000 -0.0991570621
C   C45       1.0  0.08030  0.05490  0.81610  1.0000 -0.1814001172
C   C46       1.0  0.02296  0.99224  0.75970  1.0000 -0.2086019933
C   C47       1.0  0.95732  0.00688  0.70630  1.0000 -0.0378453925
C   C48       1.0  0.82773  0.88067  0.66620  1.0000 0.5606257797
C   C49       1.0  0.53378  0.54402  0.22588  1.0000 0.1091726895
C   C50       1.0  0.38271  0.44809  0.27350  1.0000 0.0269073688
C   C51       1.0  0.47686  0.55074  0.16480  1.0000 -0.2086019933
C   C52       1.0  0.32732  0.45528  0.21730  1.0000 -0.1814001172
C   C53       1.0  0.37442  0.50918  0.15914  1.0000 0.1091726895
C   C54       1.0  0.31697  0.52103  0.09450  1.0000 0.0993185028
C   C55       1.0  0.38877  0.60583  0.04150  1.0000 -0.2178385972
C   C56       1.0  0.18621  0.44319  0.08540  1.0000 -0.2011657675
C   C57       1.0  0.33090  0.61230  0.98360  1.0000 0.0696788659
C   C58       1.0  0.13824  0.45896  0.02380  1.0000 0.1091726895
C   C59       1.0  0.66063  0.26757  0.22030  1.0000 0.0696788659
C   C60       1.0  0.46060  0.16300  0.14960  1.0000 0.0696788659
C   C61       1.0  0.66483  0.30957  0.25290  1.0000 -0.1814001172
C   C62       1.0  0.46288  0.20452  0.17940  1.0000 -0.1915832988
C   C63       1.0  0.56351  0.27589  0.23380  1.0000 0.0993185028
C   C64       1.0  0.56206  0.31434  0.27070  1.0000 0.1091726895
C   C65       1.0  0.68663  0.42277  0.31160  1.0000 -0.1814001172
C   C66       1.0  0.43820  0.24640  0.26450  1.0000 -0.2011657675
C   C67       1.0  0.68213  0.45987  0.34200  1.0000 0.0993185028
C   C68       1.0  0.44304  0.28816  0.29640  1.0000 0.0562642694
C   C69       1.0  0.37812  0.62048  0.49750  1.0000 0.0905743324
C   C70       1.0  0.62924  0.83516  0.51450  1.0000 0.0810438326
C   C71       1.0  0.37857  0.67883  0.43360  1.0000 -0.1915832988
C   C72       1.0  0.64281  0.90219  0.45360  1.0000 -0.1814001172
C   C73       1.0  0.51341  0.82179  0.41060  1.0000 0.1091726895
C   C74       1.0  0.52120  0.88740  0.34300  1.0000 0.0993185028
C   C75       1.0  0.40857  0.84243  0.31060  1.0000 -0.1915832988
C   C76       1.0  0.63590  0.99210  0.30970  1.0000 -0.1915832988
C   C77       1.0  0.42000  0.90780  0.24830  1.0000 0.0993185028
C   C78       1.0  0.63795  0.05105  0.24630  1.0000 0.0810438326
C   C79       1.0  0.92422  0.69958  0.17820  1.0000 -0.1497283212
C   C80       1.0  0.13854  0.82126  0.24930  1.0000 -0.1292063638
C   C81       1.0  0.03447  0.74253  0.19780  1.0000 -0.0057812391
C   C82       1.0  0.04016  0.70124  0.16580  1.0000 0.3993472636
C   C83       1.0  0.03831  0.81489  0.05760  1.0000 -0.1188397452
C   C84       1.0  0.09350  0.86910  0.00050  1.0000 -0.1915832988
C   C85       1.0  0.03400  0.75200  0.99820  1.0000 -0.1915832988
C   C86       1.0  0.05320  0.70320  0.07260  1.0000 -0.0544774949
C   C87       1.0  0.20752  0.80468  0.09060  1.0000 0.5606257797
C   C88       1.0  0.92171  0.73909  0.20790  1.0000 -0.1497283212
C   C89       1.0  0.13994  0.86326  0.27950  1.0000 -0.1188397452
C   C90       1.0  0.03399  0.82561  0.25930  1.0000 -0.0346361368
C   C91       1.0  0.04005  0.87215  0.29400  1.0000 0.3868151486
C   C92       1.0  0.00018  0.95802  0.19040  1.0000 -0.0991570621
C   C93       1.0  0.05490  0.08030  0.18390  1.0000 -0.1814001172
C   C94       1.0  0.99224  0.02296  0.24030  1.0000 -0.2086019933
C   C95       1.0  0.00688  0.95732  0.29370  1.0000 -0.0378453925
C   C96       1.0  0.88067  0.82773  0.33380  1.0000 0.5606257797
N   N1        1.0  0.49397  0.48963  0.72068  1.0000 -0.267331247
N   N2        1.0  0.54047  0.20793  0.02609  1.0000 -0.2011657675
N   N3        1.0  0.19464  0.55876  0.83287  1.0000 -0.2804072022
N   N4        1.0  0.39598  0.56342  0.66543  1.0000 -0.267331247
N   N5        1.0  0.69444  0.49916  0.46316  1.0000 -0.2570531785
N   N6        1.0  0.01078  0.53242  0.78387  1.0000 -0.245217663
N   N7        1.0  0.73192  0.03508  0.89660  1.0000 -0.1188397452
N   N8        1.0  0.91940  0.01120  0.73896  1.0000 -0.1292063638
N   N9        1.0  0.48963  0.49397  0.27932  1.0000 -0.267331247
N   N10       1.0  0.20793  0.54047  0.97391  1.0000 -0.2011657675
N   N11       1.0  0.55876  0.19464  0.16713  1.0000 -0.2804072022
N   N12       1.0  0.56342  0.39598  0.33457  1.0000 -0.267331247
N   N13       1.0  0.49916  0.69444  0.53684  1.0000 -0.2570531785
N   N14       1.0  0.53242  0.01078  0.21613  1.0000 -0.245217663
N   N15       1.0  0.03508  0.73192  0.10340  1.0000 -0.1188397452
N   N16       1.0  0.01120  0.91940  0.26104  1.0000 -0.1292063638
O   O1        1.0  0.57975  0.60385  0.59405  1.0000 -0.6630289375
O   O2        1.0  0.27239  0.36921  0.59885  1.0000 -0.6509453475
O   O3        1.0  0.30778  0.76862  0.87533  1.0000 -0.8444670855
O   O4        1.0  0.02304  0.51656  0.91908  1.0000 -0.8195362508
O   O5        1.0  0.75672  0.21528  0.91630  1.0000 -0.5035236895
O   O6        1.0  0.92544  0.31216  0.89177  1.0000 -0.5646151721
O   O7        1.0  0.64916  0.05544  0.80000  1.0000 -0.4577851712
O   O8        1.0  0.85951  0.88109  0.63440  1.0000 -0.5646151721
O   O9        1.0  0.69880  0.78760  0.66572  1.0000 -0.566926064
O   O10       1.0  0.86352  0.06888  0.64673  1.0000 -0.4935083806
O   O11       1.0  0.60385  0.57975  0.40595  1.0000 -0.6630289375
O   O12       1.0  0.36921  0.27239  0.40115  1.0000 -0.6509453475
O   O13       1.0  0.76862  0.30778  0.12467  1.0000 -0.8444670855
O   O14       1.0  0.51656  0.02304  0.08092  1.0000 -0.8195362508
O   O15       1.0  0.21528  0.75672  0.08370  1.0000 -0.5035236895
O   O16       1.0  0.31216  0.92544  0.10823  1.0000 -0.566926064
O   O17       1.0  0.05544  0.64916  0.20000  1.0000 -0.4577851712
O   O18       1.0  0.88109  0.85951  0.36560  1.0000 -0.5646151721
O   O19       1.0  0.78760  0.69880  0.33428  1.0000 -0.566926064
O   O20       1.0  0.06888  0.86352  0.35327  1.0000 -0.4935083806
