# DDEC6 charges by PACMAN v1.1 (https://github.com/mtap-research/PACMAN-charge/)
data_2017[Mg][nan]3[FSR]1
_chemical_formula_sum              "Mg8 H48 C64 N20 O44"
_cell_length_a       12.474
_cell_length_b       15.248
_cell_length_c       16.899
_cell_angle_alpha    90
_cell_angle_beta     90
_cell_angle_gamma    90

_symmetry_space_group_name_H-M    "P 1"
_symmetry_Int_Tables_number       1

loop_
  _symmetry_equiv_pos_as_xyz
  'x, y, z'

loop_
  _atom_site_type_symbol
  _atom_site_label
  _atom_site_symmetry_multiplicity
  _atom_site_fract_x
  _atom_site_fract_y
  _atom_site_fract_z
  _atom_site_occupancy
  _atom_site_charge
Mg  Mg1       1.0  0.25000  0.50000  0.39148  1.0000 1.3403381707
Mg  Mg2       1.0  0.75000  0.00000  0.10852  1.0000 1.3403381707
Mg  Mg3       1.0  0.75000  0.50000  0.60852  1.0000 1.3403381707
Mg  Mg4       1.0  0.25000  0.00000  0.89148  1.0000 1.3403381707
Mg  Mg5       1.0  0.50000  0.50000  0.50000  1.0000 1.3851602676
Mg  Mg6       1.0  0.00000  0.50000  0.50000  1.0000 1.3851602676
Mg  Mg7       1.0  0.50000  0.00000  0.00000  1.0000 1.3851602676
Mg  Mg8       1.0  0.00000  0.00000  0.00000  1.0000 1.3851602676
H   H1        1.0  0.67850  0.76130  0.40440  1.0000 0.2688758562
H   H2        1.0  0.82150  0.23870  0.40440  1.0000 0.2688758562
H   H3        1.0  0.32150  0.26130  0.09560  1.0000 0.2688758562
H   H4        1.0  0.17850  0.73870  0.09560  1.0000 0.2688758562
H   H5        1.0  0.32150  0.23870  0.59560  1.0000 0.2688758562
H   H6        1.0  0.17850  0.76130  0.59560  1.0000 0.2688758562
H   H7        1.0  0.67850  0.73870  0.90440  1.0000 0.2688758562
H   H8        1.0  0.82150  0.26130  0.90440  1.0000 0.2688758562
H   H9        1.0  0.60220  0.69170  0.43000  1.0000 0.3153198065
H   H10       1.0  0.89780  0.30830  0.43000  1.0000 0.3153198065
H   H11       1.0  0.39780  0.19170  0.07000  1.0000 0.3153198065
H   H12       1.0  0.10220  0.80830  0.07000  1.0000 0.3153198065
H   H13       1.0  0.39780  0.30830  0.57000  1.0000 0.3153198065
H   H14       1.0  0.10220  0.69170  0.57000  1.0000 0.3153198065
H   H15       1.0  0.60220  0.80830  0.93000  1.0000 0.3153198065
H   H16       1.0  0.89780  0.19170  0.93000  1.0000 0.3153198065
H   H17       1.0  0.64900  0.84430  0.28270  1.0000 0.140634332
H   H18       1.0  0.85100  0.15570  0.28270  1.0000 0.140634332
H   H19       1.0  0.35100  0.34430  0.21730  1.0000 0.140634332
H   H20       1.0  0.14900  0.65570  0.21730  1.0000 0.140634332
H   H21       1.0  0.35100  0.15570  0.71730  1.0000 0.140634332
H   H22       1.0  0.14900  0.84430  0.71730  1.0000 0.140634332
H   H23       1.0  0.64900  0.65570  0.78270  1.0000 0.140634332
H   H24       1.0  0.85100  0.34430  0.78270  1.0000 0.140634332
H   H25       1.0  0.31850  0.70560  0.25990  1.0000 0.140634332
H   H26       1.0  0.18150  0.29440  0.25990  1.0000 0.140634332
H   H27       1.0  0.68150  0.20560  0.24010  1.0000 0.140634332
H   H28       1.0  0.81850  0.79440  0.24010  1.0000 0.140634332
H   H29       1.0  0.68150  0.29440  0.74010  1.0000 0.140634332
H   H30       1.0  0.81850  0.70560  0.74010  1.0000 0.140634332
H   H31       1.0  0.31850  0.79440  0.75990  1.0000 0.140634332
H   H32       1.0  0.18150  0.20560  0.75990  1.0000 0.140634332
H   H33       1.0  0.37690  0.83930  0.10350  1.0000 0.3095175849
H   H34       1.0  0.12310  0.16070  0.10350  1.0000 0.3095175849
H   H35       1.0  0.62310  0.33930  0.39650  1.0000 0.3095175849
H   H36       1.0  0.87690  0.66070  0.39650  1.0000 0.3095175849
H   H37       1.0  0.62310  0.16070  0.89650  1.0000 0.3095175849
H   H38       1.0  0.87690  0.83930  0.89650  1.0000 0.3095175849
H   H39       1.0  0.37690  0.66070  0.60350  1.0000 0.3095175849
H   H40       1.0  0.12310  0.33930  0.60350  1.0000 0.3095175849
H   H41       1.0  0.29530  0.77800  0.13650  1.0000 0.2688758562
H   H42       1.0  0.20470  0.22200  0.13650  1.0000 0.2688758562
H   H43       1.0  0.70470  0.27800  0.36350  1.0000 0.2688758562
H   H44       1.0  0.79530  0.72200  0.36350  1.0000 0.2688758562
H   H45       1.0  0.70470  0.22200  0.86350  1.0000 0.2688758562
H   H46       1.0  0.79530  0.77800  0.86350  1.0000 0.2688758562
H   H47       1.0  0.29530  0.72200  0.63650  1.0000 0.2688758562
H   H48       1.0  0.20470  0.27800  0.63650  1.0000 0.2688758562
C   C1        1.0  0.54860  0.90920  0.15810  1.0000 0.6437136458
C   C2        1.0  0.95140  0.09080  0.15810  1.0000 0.6437136458
C   C3        1.0  0.45140  0.40920  0.34190  1.0000 0.6437136458
C   C4        1.0  0.04860  0.59080  0.34190  1.0000 0.6437136458
C   C5        1.0  0.45140  0.09080  0.84190  1.0000 0.6437136458
C   C6        1.0  0.04860  0.90920  0.84190  1.0000 0.6437136458
C   C7        1.0  0.54860  0.59080  0.65810  1.0000 0.6437136458
C   C8        1.0  0.95140  0.40920  0.65810  1.0000 0.6437136458
C   C9        1.0  0.41700  0.64050  0.38460  1.0000 0.6293068083
C   C10       1.0  0.08300  0.35950  0.38460  1.0000 0.6293068083
C   C11       1.0  0.58300  0.14050  0.11540  1.0000 0.6293068083
C   C12       1.0  0.91700  0.85950  0.11540  1.0000 0.6293068083
C   C13       1.0  0.58300  0.35950  0.61540  1.0000 0.6293068083
C   C14       1.0  0.91700  0.64050  0.61540  1.0000 0.6293068083
C   C15       1.0  0.41700  0.85950  0.88460  1.0000 0.6293068083
C   C16       1.0  0.08300  0.14050  0.88460  1.0000 0.6293068083
C   C17       1.0  0.45210  0.71210  0.32870  1.0000 -0.100625057
C   C18       1.0  0.04790  0.28790  0.32870  1.0000 -0.100625057
C   C19       1.0  0.54790  0.21210  0.17130  1.0000 -0.100625057
C   C20       1.0  0.95210  0.78790  0.17130  1.0000 -0.100625057
C   C21       1.0  0.54790  0.28790  0.67130  1.0000 -0.100625057
C   C22       1.0  0.95210  0.71210  0.67130  1.0000 -0.100625057
C   C23       1.0  0.45210  0.78790  0.82870  1.0000 -0.100625057
C   C24       1.0  0.04790  0.21210  0.82870  1.0000 -0.100625057
C   C25       1.0  0.55550  0.75060  0.33260  1.0000 0.254061077
C   C26       1.0  0.94450  0.24940  0.33260  1.0000 0.254061077
C   C27       1.0  0.44450  0.25060  0.16740  1.0000 0.254061077
C   C28       1.0  0.05550  0.74940  0.16740  1.0000 0.254061077
C   C29       1.0  0.44450  0.24940  0.66740  1.0000 0.254061077
C   C30       1.0  0.05550  0.75060  0.66740  1.0000 0.254061077
C   C31       1.0  0.55550  0.74940  0.83260  1.0000 0.254061077
C   C32       1.0  0.94450  0.25060  0.83260  1.0000 0.254061077
C   C33       1.0  0.58300  0.81630  0.27830  1.0000 -0.2063021136
C   C34       1.0  0.91700  0.18370  0.27830  1.0000 -0.2063021136
C   C35       1.0  0.41700  0.31630  0.22170  1.0000 -0.2063021136
C   C36       1.0  0.08300  0.68370  0.22170  1.0000 -0.2063021136
C   C37       1.0  0.41700  0.18370  0.72170  1.0000 -0.2063021136
C   C38       1.0  0.08300  0.81630  0.72170  1.0000 -0.2063021136
C   C39       1.0  0.58300  0.68370  0.77830  1.0000 -0.2063021136
C   C40       1.0  0.91700  0.31630  0.77830  1.0000 -0.2063021136
C   C41       1.0  0.51300  0.84050  0.21750  1.0000 -0.100625057
C   C42       1.0  0.98700  0.15950  0.21750  1.0000 -0.100625057
C   C43       1.0  0.48700  0.34050  0.28250  1.0000 -0.100625057
C   C44       1.0  0.01300  0.65950  0.28250  1.0000 -0.100625057
C   C45       1.0  0.48700  0.15950  0.78250  1.0000 -0.100625057
C   C46       1.0  0.01300  0.84050  0.78250  1.0000 -0.100625057
C   C47       1.0  0.51300  0.65950  0.71750  1.0000 -0.100625057
C   C48       1.0  0.98700  0.34050  0.71750  1.0000 -0.100625057
C   C49       1.0  0.41610  0.79620  0.20890  1.0000 0.2583237293
C   C50       1.0  0.08390  0.20380  0.20890  1.0000 0.2583237293
C   C51       1.0  0.58390  0.29620  0.29110  1.0000 0.2583237293
C   C52       1.0  0.91610  0.70380  0.29110  1.0000 0.2583237293
C   C53       1.0  0.58390  0.20380  0.79110  1.0000 0.2583237293
C   C54       1.0  0.91610  0.79620  0.79110  1.0000 0.2583237293
C   C55       1.0  0.41610  0.70380  0.70890  1.0000 0.2583237293
C   C56       1.0  0.08390  0.29620  0.70890  1.0000 0.2583237293
C   C57       1.0  0.38460  0.73340  0.26500  1.0000 -0.2024080751
C   C58       1.0  0.11540  0.26660  0.26500  1.0000 -0.2024080751
C   C59       1.0  0.61540  0.23340  0.23500  1.0000 -0.2024080751
C   C60       1.0  0.88460  0.76660  0.23500  1.0000 -0.2024080751
C   C61       1.0  0.61540  0.26660  0.73500  1.0000 -0.2024080751
C   C62       1.0  0.88460  0.73340  0.73500  1.0000 -0.2024080751
C   C63       1.0  0.38460  0.76660  0.76500  1.0000 -0.2024080751
C   C64       1.0  0.11540  0.23340  0.76500  1.0000 -0.2024080751
N   N1        1.0  0.25000  0.50000  0.54200  1.0000 0.7564615907
N   N2        1.0  0.75000  0.00000  0.95800  1.0000 0.7564615907
N   N3        1.0  0.75000  0.50000  0.45800  1.0000 0.7564615907
N   N4        1.0  0.25000  0.00000  0.04200  1.0000 0.7564615907
N   N5        1.0  0.62030  0.73220  0.39720  1.0000 -0.5856666339
N   N6        1.0  0.87970  0.26780  0.39720  1.0000 -0.5856666339
N   N7        1.0  0.37970  0.23220  0.10280  1.0000 -0.5856666339
N   N8        1.0  0.12030  0.76780  0.10280  1.0000 -0.5856666339
N   N9        1.0  0.37970  0.26780  0.60280  1.0000 -0.5856666339
N   N10       1.0  0.12030  0.73220  0.60280  1.0000 -0.5856666339
N   N11       1.0  0.62030  0.76780  0.89720  1.0000 -0.5856666339
N   N12       1.0  0.87970  0.23220  0.89720  1.0000 -0.5856666339
N   N13       1.0  0.35510  0.80570  0.14110  1.0000 -0.5666146873
N   N14       1.0  0.14490  0.19430  0.14110  1.0000 -0.5666146873
N   N15       1.0  0.64490  0.30570  0.35890  1.0000 -0.5666146873
N   N16       1.0  0.85510  0.69430  0.35890  1.0000 -0.5666146873
N   N17       1.0  0.64490  0.19430  0.85890  1.0000 -0.5641412137
N   N18       1.0  0.85510  0.80570  0.85890  1.0000 -0.5641412137
N   N19       1.0  0.35510  0.69430  0.64110  1.0000 -0.5666146873
N   N20       1.0  0.14490  0.30570  0.64110  1.0000 -0.5666146873
O   O1        1.0  0.63210  0.95090  0.17710  1.0000 -0.6359555123
O   O2        1.0  0.86790  0.04910  0.17710  1.0000 -0.6298190473
O   O3        1.0  0.36790  0.45090  0.32290  1.0000 -0.6359555123
O   O4        1.0  0.13210  0.54910  0.32290  1.0000 -0.6359555123
O   O5        1.0  0.36790  0.04910  0.82290  1.0000 -0.6359555123
O   O6        1.0  0.13210  0.95090  0.82290  1.0000 -0.6359555123
O   O7        1.0  0.63210  0.54910  0.67710  1.0000 -0.6359555123
O   O8        1.0  0.86790  0.45090  0.67710  1.0000 -0.6298190473
O   O9        1.0  0.49610  0.91360  0.09520  1.0000 -0.5971337703
O   O10       1.0  0.00390  0.08640  0.09520  1.0000 -0.5971337703
O   O11       1.0  0.50390  0.41360  0.40480  1.0000 -0.5971337703
O   O12       1.0  0.99610  0.58640  0.40480  1.0000 -0.5971337703
O   O13       1.0  0.50390  0.08640  0.90480  1.0000 -0.5971337703
O   O14       1.0  0.99610  0.91360  0.90480  1.0000 -0.5971337703
O   O15       1.0  0.49610  0.58640  0.59520  1.0000 -0.5971337703
O   O16       1.0  0.00390  0.41360  0.59520  1.0000 -0.5971337703
O   O17       1.0  0.33830  0.48650  0.50360  1.0000 -0.5784486605
O   O18       1.0  0.16170  0.51350  0.50360  1.0000 -0.5784486605
O   O19       1.0  0.66170  0.98650  0.99640  1.0000 -0.5784486605
O   O20       1.0  0.83830  0.01350  0.99640  1.0000 -0.5784486605
O   O21       1.0  0.66170  0.51350  0.49640  1.0000 -0.5784486605
O   O22       1.0  0.83830  0.48650  0.49640  1.0000 -0.5784486605
O   O23       1.0  0.33830  0.01350  0.00360  1.0000 -0.5784486605
O   O24       1.0  0.16170  0.98650  0.00360  1.0000 -0.5784486605
O   O25       1.0  0.25000  0.50000  0.62160  1.0000 -0.3806965051
O   O26       1.0  0.75000  0.00000  0.87840  1.0000 -0.3806965051
O   O27       1.0  0.75000  0.50000  0.37840  1.0000 -0.3806965051
O   O28       1.0  0.25000  0.00000  0.12160  1.0000 -0.3806965051
O   O29       1.0  0.48420  0.60390  0.42580  1.0000 -0.5784486605
O   O30       1.0  0.01580  0.39610  0.42580  1.0000 -0.5784486605
O   O31       1.0  0.51580  0.10390  0.07420  1.0000 -0.5784486605
O   O32       1.0  0.98420  0.89610  0.07420  1.0000 -0.5784486605
O   O33       1.0  0.51580  0.39610  0.57420  1.0000 -0.5784486605
O   O34       1.0  0.98420  0.60390  0.57420  1.0000 -0.5784486605
O   O35       1.0  0.48420  0.89610  0.92580  1.0000 -0.5784486605
O   O36       1.0  0.01580  0.10390  0.92580  1.0000 -0.5784486605
O   O37       1.0  0.31940  0.62160  0.38470  1.0000 -0.6298190473
O   O38       1.0  0.18060  0.37840  0.38470  1.0000 -0.6298190473
O   O39       1.0  0.68060  0.12160  0.11530  1.0000 -0.6298190473
O   O40       1.0  0.81940  0.87840  0.11530  1.0000 -0.6298190473
O   O41       1.0  0.68060  0.37840  0.61530  1.0000 -0.6298190473
O   O42       1.0  0.81940  0.62160  0.61530  1.0000 -0.6298190473
O   O43       1.0  0.31940  0.87840  0.88470  1.0000 -0.6298190473
O   O44       1.0  0.18060  0.12160  0.88470  1.0000 -0.6298190473
