# DDEC6 charges by PACMAN v1.1 (https://github.com/mtap-research/PACMAN-charge/)
data_2017[Co][sql]2[FSR]6
_chemical_formula_sum              "Co2 H34 C42 N6 O10"
_cell_length_a       9.0976
_cell_length_b       10.3656
_cell_length_c       13.3008
_cell_angle_alpha    91.255
_cell_angle_beta     90.074
_cell_angle_gamma    108.746

_symmetry_space_group_name_H-M    "P 1"
_symmetry_Int_Tables_number       1

loop_
  _symmetry_equiv_pos_as_xyz
  'x, y, z'

loop_
  _atom_site_type_symbol
  _atom_site_label
  _atom_site_symmetry_multiplicity
  _atom_site_fract_x
  _atom_site_fract_y
  _atom_site_fract_z
  _atom_site_occupancy
  _atom_site_charge
Co  Co1       1.0  0.08163  0.07325  0.68801  1.0000 0.8219470945
Co  Co2       1.0  0.93103  0.31526  0.50309  1.0000 0.8219470945
H   H1        1.0  0.14220  0.97160  0.01090  1.0000 0.272491422
H   H2        1.0  0.77610  0.33130  0.18240  1.0000 0.272491422
H   H3        1.0  0.08500  0.18950  0.27920  1.0000 0.130784024
H   H4        1.0  0.22440  0.91780  0.41950  1.0000 0.1194605773
H   H5        1.0  0.30740  0.84730  0.26960  1.0000 0.1194605773
H   H6        1.0  0.15800  0.12440  0.13170  1.0000 0.130784024
H   H7        1.0  0.37210  0.92580  0.90110  1.0000 0.1003832052
H   H8        1.0  0.21140  0.72440  0.81900  1.0000 0.1194605773
H   H9        1.0  0.07310  0.72330  0.88960  1.0000 0.130784024
H   H10       1.0  0.22070  0.69750  0.93400  1.0000 0.1381346968
H   H11       1.0  0.70890  0.52600  0.29060  1.0000 0.1003832052
H   H12       1.0  0.49710  0.38100  0.37200  1.0000 0.1194605773
H   H13       1.0  0.50230  0.25960  0.30110  1.0000 0.130784024
H   H14       1.0  0.46130  0.38290  0.25680  1.0000 0.130784024
H   H15       1.0  0.80650  0.24200  0.05660  1.0000 0.1194605773
H   H16       1.0  0.73810  0.55800  0.92900  1.0000 0.1194605773
H   H17       1.0  0.88270  0.17420  0.90230  1.0000 0.130784024
H   H18       1.0  0.81010  0.49540  0.77630  1.0000 0.1080432129
H   H19       1.0  0.94040  0.80680  0.56430  1.0000 0.1003832052
H   H20       1.0  0.77980  0.93550  0.79790  1.0000 0.1080432129
H   H21       1.0  0.75030  0.60120  0.56500  1.0000 0.1381346968
H   H22       1.0  0.58070  0.73230  0.80940  1.0000 0.130784024
H   H23       1.0  0.57530  0.42160  0.57050  1.0000 0.1381346968
H   H24       1.0  0.40160  0.54720  0.81400  1.0000 0.130784024
H   H25       1.0  0.37540  0.22780  0.57280  1.0000 0.1080432129
H   H26       1.0  0.20590  0.34210  0.81200  1.0000 0.1080432129
H   H27       1.0  0.80230  0.04860  0.38120  1.0000 0.1003832052
H   H28       1.0  0.63560  0.16930  0.61860  1.0000 0.1003832052
H   H29       1.0  0.61550  0.84190  0.38070  1.0000 0.130784024
H   H30       1.0  0.44570  0.95910  0.62900  1.0000 0.130784024
H   H31       1.0  0.43320  0.65100  0.38460  1.0000 0.1381346968
H   H32       1.0  0.26460  0.78050  0.62660  1.0000 0.1381346968
H   H33       1.0  0.22600  0.46290  0.38240  1.0000 0.1194605773
H   H34       1.0  0.06140  0.58560  0.62100  1.0000 0.1080432129
C   C1        1.0  0.11180  0.10720  0.46640  1.0000 0.5570065644
C   C2        1.0  0.15290  0.05970  0.36620  1.0000 -0.0264236141
C   C3        1.0  0.13070  0.12100  0.27700  1.0000 -0.1010932173
C   C4        1.0  0.21370  0.96070  0.36060  1.0000 -0.1010932173
C   C5        1.0  0.26290  0.91640  0.27080  1.0000 -0.1165334056
C   C6        1.0  0.17400  0.08220  0.18980  1.0000 -0.1165334056
C   C7        1.0  0.24260  0.98070  0.18160  1.0000 -0.0208545509
C   C8        1.0  0.29550  0.93040  0.08660  1.0000 0.4488631454
C   C9        1.0  0.25910  0.90160  0.90610  1.0000 0.0478251953
C   C10       1.0  0.18390  0.74710  0.88520  1.0000 -0.4180998835
C   C11       1.0  0.19980  0.97610  0.82650  1.0000 0.5210229722
C   C12       1.0  0.79610  0.39480  0.36350  1.0000 0.5210229722
C   C13       1.0  0.69100  0.42760  0.28680  1.0000 0.0427949768
C   C14       1.0  0.52290  0.35640  0.30590  1.0000 -0.4180998835
C   C15       1.0  0.71210  0.45120  0.10500  1.0000 0.4584120181
C   C16       1.0  0.76300  0.40670  0.00600  1.0000 -0.0075790789
C   C17       1.0  0.80700  0.29250  0.99960  1.0000 -0.1386449668
C   C18       1.0  0.76630  0.47950  0.92360  1.0000 -0.1064206134
C   C19       1.0  0.85250  0.25180  0.90640  1.0000 -0.0935330946
C   C20       1.0  0.80940  0.44270  0.83210  1.0000 -0.1064206134
C   C21       1.0  0.85310  0.32380  0.82250  1.0000 -0.0426731254
C   C22       1.0  0.89940  0.27930  0.72510  1.0000 0.5540888574
C   C23       1.0  0.86830  0.79100  0.61590  1.0000 0.0620073643
C   C24       1.0  0.77630  0.86640  0.75130  1.0000 0.1003832052
C   C25       1.0  0.75150  0.66667  0.61420  1.0000 -0.2023037407
C   C26       1.0  0.65200  0.74360  0.75760  1.0000 -0.2108394984
C   C27       1.0  0.63560  0.63950  0.68660  1.0000 0.1003832052
C   C28       1.0  0.50790  0.50960  0.69060  1.0000 0.1003832052
C   C29       1.0  0.50010  0.40890  0.61990  1.0000 -0.1808953517
C   C30       1.0  0.39800  0.48240  0.76370  1.0000 -0.1808953517
C   C31       1.0  0.38190  0.29250  0.62370  1.0000 0.0786894005
C   C32       1.0  0.28160  0.35860  0.76270  1.0000 0.0786894005
C   C33       1.0  0.73020  0.03070  0.43280  1.0000 0.1003832052
C   C34       1.0  0.63410  0.10110  0.57160  1.0000 0.0786894005
C   C35       1.0  0.61610  0.90530  0.43140  1.0000 -0.2023037407
C   C36       1.0  0.51580  0.97420  0.57630  1.0000 -0.1915151361
C   C37       1.0  0.50070  0.87170  0.50520  1.0000 0.1003832052
C   C38       1.0  0.37400  0.74080  0.50490  1.0000 0.1003832052
C   C39       1.0  0.35800  0.64030  0.43380  1.0000 -0.1808953517
C   C40       1.0  0.25930  0.71580  0.57600  1.0000 -0.2023037407
C   C41       1.0  0.23610  0.52720  0.43410  1.0000 0.0693087396
C   C42       1.0  0.13890  0.59840  0.57310  1.0000 0.087921929
N   N1        1.0  0.21900  0.94060  0.00540  1.0000 -0.3650480244
N   N2        1.0  0.73340  0.39410  0.18750  1.0000 -0.3487615022
N   N3        1.0  0.88690  0.89050  0.68490  1.0000 -0.2391172929
N   N4        1.0  0.27350  0.26120  0.69330  1.0000 -0.2391172929
N   N5        1.0  0.74450  0.12610  0.50130  1.0000 -0.2391172929
N   N6        1.0  0.12720  0.50170  0.50530  1.0000 -0.2233023826
O   O1        1.0  0.11490  0.03840  0.54150  1.0000 -0.5302909944
O   O2        1.0  0.08230  0.21650  0.47030  1.0000 -0.5398736331
O   O3        1.0  0.41170  0.89440  0.08300  1.0000 -0.4772955808
O   O4        1.0  0.11360  0.04110  0.85010  1.0000 -0.5108342502
O   O5        1.0  0.23120  0.96140  0.73520  1.0000 -0.5398736331
O   O6        1.0  0.77650  0.42370  0.45250  1.0000 -0.5398736331
O   O7        1.0  0.88500  0.32810  0.33800  1.0000 -0.5557868216
O   O8        1.0  0.66070  0.54710  0.10540  1.0000 -0.4613805744
O   O9        1.0  0.89980  0.35490  0.65130  1.0000 -0.5493807825
O   O10       1.0  0.93250  0.17140  0.72250  1.0000 -0.5493807825
