# DDEC6 charges by PACMAN v1.1 (https://github.com/mtap-research/PACMAN-charge/)
data_2017[In][nan]2[FSR]2
_chemical_formula_sum              "In3 H18 C32 O22"
_cell_length_a       7.4519
_cell_length_b       10.7242
_cell_length_c       13.246
_cell_angle_alpha    103.801
_cell_angle_beta     91.608
_cell_angle_gamma    103.345

_symmetry_space_group_name_H-M    "P 1"
_symmetry_Int_Tables_number       1

loop_
  _symmetry_equiv_pos_as_xyz
  'x, y, z'

loop_
  _atom_site_type_symbol
  _atom_site_label
  _atom_site_symmetry_multiplicity
  _atom_site_fract_x
  _atom_site_fract_y
  _atom_site_fract_z
  _atom_site_occupancy
  _atom_site_charge
In  In1       1.0  0.25801  0.19165  0.20583  1.0000 1.4520921343
In  In2       1.0  0.74199  0.80835  0.79417  1.0000 1.4520921343
In  In3       1.0  0.50000  0.00000  0.00000  1.0000 1.5475140446
H   H1        1.0  0.70550  0.49790  0.99070  1.0000 0.1294627124
H   H2        1.0  0.71530  0.42700  0.13950  1.0000 0.1522505665
H   H3        1.0  0.12370  0.75350  0.26690  1.0000 0.1522505665
H   H4        1.0  0.26470  0.53600  0.30900  1.0000 0.1551144951
H   H5        1.0  0.88890  0.66410  0.49030  1.0000 0.1522505665
H   H6        1.0  0.48180  0.60890  0.45160  1.0000 0.1376370424
H   H7        1.0  0.57730  0.24030  0.11910  1.0000 0.3910017693
H   H8        1.0  0.31580  0.02890  0.84020  1.0000 0.3828406119
H   H9        1.0  0.18450  0.95950  0.89190  1.0000 0.3910017693
H   H10       1.0  0.29450  0.50210  0.00930  1.0000 0.1294627124
H   H11       1.0  0.28470  0.57300  0.86050  1.0000 0.1522505665
H   H12       1.0  0.87630  0.24650  0.73310  1.0000 0.1522505665
H   H13       1.0  0.73530  0.46400  0.69100  1.0000 0.1551144951
H   H14       1.0  0.11110  0.33590  0.50970  1.0000 0.1522505665
H   H15       1.0  0.51820  0.39110  0.54840  1.0000 0.1376370424
H   H16       1.0  0.42270  0.75970  0.88090  1.0000 0.3910017693
H   H17       1.0  0.68420  0.97110  0.15980  1.0000 0.3828406119
H   H18       1.0  0.81550  0.04050  0.10810  1.0000 0.3910017693
C   C1        1.0  0.15800  0.87700  0.11930  1.0000 0.650395357
C   C2        1.0  0.86550  0.71890  0.94450  1.0000 0.5578514868
C   C3        1.0  0.46950  0.72690  0.64470  1.0000 0.5578514868
C   C4        1.0  0.08210  0.76040  0.67470  1.0000 0.5976669425
C   C5        1.0  0.02710  0.74450  0.11980  1.0000 0.0152419851
C   C6        1.0  0.90140  0.67050  0.03720  1.0000 -0.0648208475
C   C7        1.0  0.78820  0.55000  0.04700  1.0000 -0.0678956425
C   C8        1.0  0.79420  0.50610  0.13510  1.0000 -0.2014972149
C   C9        1.0  0.92150  0.58280  0.21850  1.0000 0.2987739378
C   C10       1.0  0.03880  0.70250  0.21120  1.0000 -0.2606710559
C   C11       1.0  0.05980  0.59340  0.38650  1.0000 0.2216551238
C   C12       1.0  0.23330  0.57660  0.37400  1.0000 -0.1708675838
C   C13       1.0  0.00900  0.65390  0.48350  1.0000 -0.18937648
C   C14       1.0  0.13910  0.69880  0.56980  1.0000 -0.0326773814
C   C15       1.0  0.31990  0.68230  0.55630  1.0000 -0.0087211524
C   C16       1.0  0.36280  0.62090  0.45950  1.0000 -0.0941106594
C   C17       1.0  0.84200  0.12300  0.88070  1.0000 0.650395357
C   C18       1.0  0.13450  0.28110  0.05550  1.0000 0.5578514868
C   C19       1.0  0.53050  0.27310  0.35530  1.0000 0.5578514868
C   C20       1.0  0.91790  0.23960  0.32530  1.0000 0.5976669425
C   C21       1.0  0.97290  0.25550  0.88020  1.0000 0.0152419851
C   C22       1.0  0.09860  0.32950  0.96280  1.0000 -0.0648208475
C   C23       1.0  0.21180  0.45000  0.95300  1.0000 -0.0678956425
C   C24       1.0  0.20580  0.49390  0.86490  1.0000 -0.2014972149
C   C25       1.0  0.07850  0.41720  0.78150  1.0000 0.2987739378
C   C26       1.0  0.96120  0.29750  0.78880  1.0000 -0.2606710559
C   C27       1.0  0.94020  0.40660  0.61350  1.0000 0.2216551238
C   C28       1.0  0.76670  0.42340  0.62600  1.0000 -0.1708675838
C   C29       1.0  0.99100  0.34610  0.51650  1.0000 -0.18937648
C   C30       1.0  0.86090  0.30120  0.43020  1.0000 -0.0326773814
C   C31       1.0  0.68010  0.31770  0.44370  1.0000 -0.0087211524
C   C32       1.0  0.63720  0.37910  0.54050  1.0000 -0.0941106594
O   O1        1.0  0.47820  0.16660  0.11010  1.0000 -0.8985537654
O   O2        1.0  0.27750  0.02500  0.89950  1.0000 -0.6459199554
O   O3        1.0  0.12900  0.97850  0.17840  1.0000 -0.5313112206
O   O4        1.0  0.28910  0.87000  0.06150  1.0000 -0.5963465041
O   O5        1.0  0.91190  0.84280  0.95140  1.0000 -0.5313112206
O   O6        1.0  0.78160  0.64040  0.86140  1.0000 -0.5382049448
O   O7        1.0  0.55830  0.84700  0.67060  1.0000 -0.5157023436
O   O8        1.0  0.51410  0.64520  0.68650  1.0000 -0.5126168496
O   O9        1.0  0.18980  0.79150  0.75500  1.0000 -0.5313112206
O   O10       1.0  0.91500  0.77470  0.67310  1.0000 -0.5756823188
O   O11       1.0  0.91560  0.53690  0.30620  1.0000 -0.2014972149
O   O12       1.0  0.52180  0.83340  0.88990  1.0000 -0.8985537654
O   O13       1.0  0.72250  0.97500  0.10050  1.0000 -0.6459199554
O   O14       1.0  0.87100  0.02150  0.82160  1.0000 -0.5313112206
O   O15       1.0  0.71090  0.13000  0.93850  1.0000 -0.5963465041
O   O16       1.0  0.08810  0.15720  0.04860  1.0000 -0.5313112206
O   O17       1.0  0.21840  0.35960  0.13860  1.0000 -0.5382049448
O   O18       1.0  0.44170  0.15300  0.32940  1.0000 -0.5157023436
O   O19       1.0  0.48590  0.35480  0.31350  1.0000 -0.5126168496
O   O20       1.0  0.81020  0.20850  0.24500  1.0000 -0.5313112206
O   O21       1.0  0.08500  0.22530  0.32690  1.0000 -0.5756823188
O   O22       1.0  0.08440  0.46310  0.69380  1.0000 -0.2014972149
