# DDEC6 charges by PACMAN v1.1 (https://github.com/mtap-research/PACMAN-charge/)
data_2017[Zn][hcb]2[FSR]1
_chemical_formula_sum              "Zn8 H96 C104 N16 O40"
_cell_length_a       18.4322
_cell_length_b       8.4517
_cell_length_c       19.2226
_cell_angle_alpha    90
_cell_angle_beta     104.96
_cell_angle_gamma    90

_symmetry_space_group_name_H-M    "P 1"
_symmetry_Int_Tables_number       1

loop_
  _symmetry_equiv_pos_as_xyz
  'x, y, z'

loop_
  _atom_site_type_symbol
  _atom_site_label
  _atom_site_symmetry_multiplicity
  _atom_site_fract_x
  _atom_site_fract_y
  _atom_site_fract_z
  _atom_site_occupancy
  _atom_site_charge
Zn  Zn1       1.0  0.44199  0.71325  0.64694  1.0000 0.8516001745
Zn  Zn2       1.0  0.05921  0.91359  0.35123  1.0000 0.8807541175
Zn  Zn3       1.0  0.55801  0.21325  0.85306  1.0000 0.8516001745
Zn  Zn4       1.0  0.94079  0.41359  0.14877  1.0000 0.8807541175
Zn  Zn5       1.0  0.55801  0.28675  0.35306  1.0000 0.8516001745
Zn  Zn6       1.0  0.94079  0.08641  0.64877  1.0000 0.8807541175
Zn  Zn7       1.0  0.44199  0.78675  0.14694  1.0000 0.8516001745
Zn  Zn8       1.0  0.05921  0.58641  0.85123  1.0000 0.8807541175
H   H1        1.0  0.64813  0.58153  0.51304  1.0000 0.1308907463
H   H2        1.0  0.53617  0.90813  0.37220  1.0000 0.1308907463
H   H3        1.0  0.60443  0.47663  0.60631  1.0000 0.1115014522
H   H4        1.0  0.58688  0.49104  0.73924  1.0000 0.1622125848
H   H5        1.0  0.55036  0.34562  0.69262  1.0000 0.1397322422
H   H6        1.0  0.70852  0.69505  0.42883  1.0000 0.1308907463
H   H7        1.0  0.64972  0.69683  0.35359  1.0000 0.1520709767
H   H8        1.0  0.67843  0.85653  0.39253  1.0000 0.1520709767
H   H9        1.0  0.41648  0.00050  0.37449  1.0000 0.1115014522
H   H10       1.0  0.29134  0.08245  0.36646  1.0000 0.1397322422
H   H11       1.0  0.29007  0.13376  0.44390  1.0000 0.1397322422
H   H12       1.0  0.85107  0.79272  0.49009  1.0000 0.1308907463
H   H13       1.0  0.01578  0.54867  0.62692  1.0000 0.1397322422
H   H14       1.0  0.86758  0.93889  0.39613  1.0000 0.1115014522
H   H15       1.0  0.87989  0.13175  0.31683  1.0000 0.1397322422
H   H16       1.0  0.87414  0.99368  0.26355  1.0000 0.1520709767
H   H17       1.0  0.81900  0.60387  0.57400  1.0000 0.1397322422
H   H18       1.0  0.88157  0.49935  0.62384  1.0000 0.1520709767
H   H19       1.0  0.87060  0.67525  0.64492  1.0000 0.1520709767
H   H20       1.0  0.14116  0.56618  0.61933  1.0000 0.1115014522
H   H21       1.0  0.28830  0.64276  0.54988  1.0000 0.1397322422
H   H22       1.0  0.26832  0.57717  0.61768  1.0000 0.1397322422
H   H23       1.0  0.35800  0.88100  0.47500  1.0000 0.2678564234
H   H24       1.0  0.17100  0.73000  0.51010  1.0000 0.282007788
H   H25       1.0  0.35187  0.08153  0.98696  1.0000 0.1308907463
H   H26       1.0  0.46383  0.40813  0.12780  1.0000 0.1308907463
H   H27       1.0  0.39557  0.97663  0.89369  1.0000 0.1115014522
H   H28       1.0  0.41312  0.99104  0.76076  1.0000 0.1622125848
H   H29       1.0  0.44964  0.84562  0.80738  1.0000 0.1397322422
H   H30       1.0  0.29148  0.19505  0.07117  1.0000 0.1308907463
H   H31       1.0  0.35028  0.19683  0.14641  1.0000 0.1520709767
H   H32       1.0  0.32157  0.35653  0.10747  1.0000 0.1520709767
H   H33       1.0  0.58352  0.50050  0.12551  1.0000 0.1115014522
H   H34       1.0  0.70866  0.58245  0.13354  1.0000 0.1397322422
H   H35       1.0  0.70993  0.63376  0.05610  1.0000 0.1397322422
H   H36       1.0  0.14893  0.29272  0.00991  1.0000 0.1308907463
H   H37       1.0  0.98422  0.04867  0.87308  1.0000 0.1397322422
H   H38       1.0  0.13242  0.43889  0.10387  1.0000 0.1115014522
H   H39       1.0  0.12011  0.63175  0.18317  1.0000 0.1397322422
H   H40       1.0  0.12586  0.49368  0.23645  1.0000 0.1520709767
H   H41       1.0  0.18100  0.10387  0.92600  1.0000 0.1397322422
H   H42       1.0  0.11843  0.99935  0.87616  1.0000 0.1520709767
H   H43       1.0  0.12940  0.17525  0.85508  1.0000 0.1520709767
H   H44       1.0  0.85884  0.06618  0.88067  1.0000 0.1115014522
H   H45       1.0  0.71170  0.14276  0.95012  1.0000 0.1397322422
H   H46       1.0  0.73168  0.07717  0.88232  1.0000 0.1397322422
H   H47       1.0  0.64200  0.38100  0.02500  1.0000 0.2678564234
H   H48       1.0  0.82900  0.23000  0.98990  1.0000 0.282007788
H   H49       1.0  0.35187  0.41847  0.48696  1.0000 0.1308907463
H   H50       1.0  0.46383  0.09187  0.62780  1.0000 0.1308907463
H   H51       1.0  0.39557  0.52337  0.39369  1.0000 0.1115014522
H   H52       1.0  0.41312  0.50896  0.26076  1.0000 0.1622125848
H   H53       1.0  0.44964  0.65438  0.30738  1.0000 0.1397322422
H   H54       1.0  0.29148  0.30495  0.57117  1.0000 0.1308907463
H   H55       1.0  0.35028  0.30317  0.64641  1.0000 0.1520709767
H   H56       1.0  0.32157  0.14347  0.60747  1.0000 0.1520709767
H   H57       1.0  0.58352  0.99950  0.62551  1.0000 0.1115014522
H   H58       1.0  0.70866  0.91755  0.63354  1.0000 0.1397322422
H   H59       1.0  0.70993  0.86624  0.55610  1.0000 0.1397322422
H   H60       1.0  0.14893  0.20728  0.50991  1.0000 0.1308907463
H   H61       1.0  0.98422  0.45133  0.37308  1.0000 0.1397322422
H   H62       1.0  0.13242  0.06111  0.60387  1.0000 0.1115014522
H   H63       1.0  0.12011  0.86825  0.68317  1.0000 0.1397322422
H   H64       1.0  0.12586  0.00632  0.73645  1.0000 0.1520709767
H   H65       1.0  0.18100  0.39613  0.42600  1.0000 0.1397322422
H   H66       1.0  0.11843  0.50065  0.37616  1.0000 0.1520709767
H   H67       1.0  0.12940  0.32475  0.35508  1.0000 0.1520709767
H   H68       1.0  0.85884  0.43382  0.38067  1.0000 0.1115014522
H   H69       1.0  0.71170  0.35724  0.45012  1.0000 0.1397322422
H   H70       1.0  0.73168  0.42283  0.38232  1.0000 0.1397322422
H   H71       1.0  0.64200  0.11900  0.52500  1.0000 0.2678564234
H   H72       1.0  0.82900  0.27000  0.48990  1.0000 0.282007788
H   H73       1.0  0.64813  0.91847  0.01304  1.0000 0.1308907463
H   H74       1.0  0.53617  0.59187  0.87220  1.0000 0.1308907463
H   H75       1.0  0.60443  0.02337  0.10631  1.0000 0.1115014522
H   H76       1.0  0.58688  0.00896  0.23924  1.0000 0.1622125848
H   H77       1.0  0.55036  0.15438  0.19262  1.0000 0.1397322422
H   H78       1.0  0.70852  0.80495  0.92883  1.0000 0.1308907463
H   H79       1.0  0.64972  0.80317  0.85359  1.0000 0.1520709767
H   H80       1.0  0.67843  0.64347  0.89253  1.0000 0.1520709767
H   H81       1.0  0.41648  0.49950  0.87449  1.0000 0.1115014522
H   H82       1.0  0.29134  0.41755  0.86646  1.0000 0.1397322422
H   H83       1.0  0.29007  0.36624  0.94390  1.0000 0.1397322422
H   H84       1.0  0.85107  0.70728  0.99009  1.0000 0.1308907463
H   H85       1.0  0.01578  0.95133  0.12692  1.0000 0.1397322422
H   H86       1.0  0.86758  0.56111  0.89613  1.0000 0.1115014522
H   H87       1.0  0.87989  0.36825  0.81683  1.0000 0.1397322422
H   H88       1.0  0.87414  0.50632  0.76355  1.0000 0.1520709767
H   H89       1.0  0.81900  0.89613  0.07400  1.0000 0.1397322422
H   H90       1.0  0.88157  0.00065  0.12384  1.0000 0.1520709767
H   H91       1.0  0.87060  0.82475  0.14492  1.0000 0.1520709767
H   H92       1.0  0.14116  0.93382  0.11933  1.0000 0.1115014522
H   H93       1.0  0.28830  0.85724  0.04988  1.0000 0.1397322422
H   H94       1.0  0.26832  0.92283  0.11768  1.0000 0.1397322422
H   H95       1.0  0.35800  0.61900  0.97500  1.0000 0.2678564234
H   H96       1.0  0.17100  0.77000  0.01010  1.0000 0.282007788
C   C1        1.0  0.48500  0.74810  0.50990  1.0000 0.2610198005
C   C2        1.0  0.55010  0.65100  0.53440  1.0000 -0.0707554485
C   C3        1.0  0.60570  0.65030  0.49660  1.0000 -0.2053333179
C   C4        1.0  0.60250  0.74500  0.43630  1.0000 0.1752967431
C   C5        1.0  0.53940  0.84030  0.41290  1.0000 -0.1833974415
C   C6        1.0  0.48050  0.84120  0.44640  1.0000 -0.0707554485
C   C7        1.0  0.56310  0.54950  0.59790  1.0000 0.0829667008
C   C8        1.0  0.54200  0.45190  0.70640  1.0000 -0.2598920123
C   C9        1.0  0.47770  0.45350  0.74290  1.0000 0.620465432
C   C10       1.0  0.66550  0.74870  0.39950  1.0000 -0.4809308605
C   C11       1.0  0.41650  0.93950  0.41660  1.0000 0.0728003724
C   C12       1.0  0.29090  0.04420  0.41340  1.0000 -0.2215617628
C   C13       1.0  0.22090  0.94400  0.40780  1.0000 0.6113682432
C   C14       1.0  0.02680  0.75620  0.48240  1.0000 0.282007788
C   C15       1.0  0.95080  0.80490  0.46330  1.0000 -0.0707554485
C   C16       1.0  0.90210  0.75650  0.50410  1.0000 -0.1904529848
C   C17       1.0  0.92400  0.65790  0.56440  1.0000 0.1930304101
C   C18       1.0  0.99860  0.61410  0.58510  1.0000 -0.1904529848
C   C19       1.0  0.05030  0.66220  0.54690  1.0000 -0.0707554485
C   C20       1.0  0.91880  0.90660  0.40230  1.0000 0.0954518734
C   C21       1.0  0.90920  0.05760  0.29770  1.0000 -0.2400249795
C   C22       1.0  0.95920  0.14650  0.25960  1.0000 0.620465432
C   C23       1.0  0.86880  0.60420  0.60550  1.0000 -0.4696988941
C   C24       1.0  0.12730  0.62530  0.57520  1.0000 0.0829667008
C   C25       1.0  0.25900  0.66260  0.58360  1.0000 -0.2519385771
C   C26       1.0  0.28410  0.81860  0.62290  1.0000 0.6113682432
C   C27       1.0  0.51500  0.24810  0.99010  1.0000 0.2610198005
C   C28       1.0  0.44990  0.15100  0.96560  1.0000 -0.0707554485
C   C29       1.0  0.39430  0.15030  0.00340  1.0000 -0.2053333179
C   C30       1.0  0.39750  0.24500  0.06370  1.0000 0.1752967431
C   C31       1.0  0.46060  0.34030  0.08710  1.0000 -0.1833974415
C   C32       1.0  0.51950  0.34120  0.05360  1.0000 -0.0707554485
C   C33       1.0  0.43690  0.04950  0.90210  1.0000 0.0829667008
C   C34       1.0  0.45800  0.95190  0.79360  1.0000 -0.2598920123
C   C35       1.0  0.52230  0.95350  0.75710  1.0000 0.620465432
C   C36       1.0  0.33450  0.24870  0.10050  1.0000 -0.4809308605
C   C37       1.0  0.58350  0.43950  0.08340  1.0000 0.0728003724
C   C38       1.0  0.70910  0.54420  0.08660  1.0000 -0.2215617628
C   C39       1.0  0.77910  0.44400  0.09220  1.0000 0.6113682432
C   C40       1.0  0.97320  0.25620  0.01760  1.0000 0.282007788
C   C41       1.0  0.04920  0.30490  0.03670  1.0000 -0.0707554485
C   C42       1.0  0.09790  0.25650  0.99590  1.0000 -0.1904529848
C   C43       1.0  0.07600  0.15790  0.93560  1.0000 0.1930304101
C   C44       1.0  0.00140  0.11410  0.91490  1.0000 -0.1904529848
C   C45       1.0  0.94970  0.16220  0.95310  1.0000 -0.0707554485
C   C46       1.0  0.08120  0.40660  0.09770  1.0000 0.0954518734
C   C47       1.0  0.09080  0.55760  0.20230  1.0000 -0.2400249795
C   C48       1.0  0.04080  0.64650  0.24040  1.0000 0.620465432
C   C49       1.0  0.13120  0.10420  0.89450  1.0000 -0.4696988941
C   C50       1.0  0.87270  0.12530  0.92480  1.0000 0.0829667008
C   C51       1.0  0.74100  0.16260  0.91640  1.0000 -0.2519385771
C   C52       1.0  0.71590  0.31860  0.87710  1.0000 0.6113682432
C   C53       1.0  0.51500  0.25190  0.49010  1.0000 0.2610198005
C   C54       1.0  0.44990  0.34900  0.46560  1.0000 -0.0707554485
C   C55       1.0  0.39430  0.34970  0.50340  1.0000 -0.2053333179
C   C56       1.0  0.39750  0.25500  0.56370  1.0000 0.1752967431
C   C57       1.0  0.46060  0.15970  0.58710  1.0000 -0.1833974415
C   C58       1.0  0.51950  0.15880  0.55360  1.0000 -0.0707554485
C   C59       1.0  0.43690  0.45050  0.40210  1.0000 0.0829667008
C   C60       1.0  0.45800  0.54810  0.29360  1.0000 -0.2598920123
C   C61       1.0  0.52230  0.54650  0.25710  1.0000 0.620465432
C   C62       1.0  0.33450  0.25130  0.60050  1.0000 -0.4809308605
C   C63       1.0  0.58350  0.06050  0.58340  1.0000 0.0728003724
C   C64       1.0  0.70910  0.95580  0.58660  1.0000 -0.2215617628
C   C65       1.0  0.77910  0.05600  0.59220  1.0000 0.6113682432
C   C66       1.0  0.97320  0.24380  0.51760  1.0000 0.282007788
C   C67       1.0  0.04920  0.19510  0.53670  1.0000 -0.0707554485
C   C68       1.0  0.09790  0.24350  0.49590  1.0000 -0.1904529848
C   C69       1.0  0.07600  0.34210  0.43560  1.0000 0.1930304101
C   C70       1.0  0.00140  0.38590  0.41490  1.0000 -0.1904529848
C   C71       1.0  0.94970  0.33780  0.45310  1.0000 -0.0707554485
C   C72       1.0  0.08120  0.09340  0.59770  1.0000 0.0954518734
C   C73       1.0  0.09080  0.94240  0.70230  1.0000 -0.2400249795
C   C74       1.0  0.04080  0.85350  0.74040  1.0000 0.620465432
C   C75       1.0  0.13120  0.39580  0.39450  1.0000 -0.4696988941
C   C76       1.0  0.87270  0.37470  0.42480  1.0000 0.0829667008
C   C77       1.0  0.74100  0.33740  0.41640  1.0000 -0.2519385771
C   C78       1.0  0.71590  0.18140  0.37710  1.0000 0.6113682432
C   C79       1.0  0.48500  0.75190  0.00990  1.0000 0.2610198005
C   C80       1.0  0.55010  0.84900  0.03440  1.0000 -0.0707554485
C   C81       1.0  0.60570  0.84970  0.99660  1.0000 -0.2053333179
C   C82       1.0  0.60250  0.75500  0.93630  1.0000 0.1752967431
C   C83       1.0  0.53940  0.65970  0.91290  1.0000 -0.1833974415
C   C84       1.0  0.48050  0.65880  0.94640  1.0000 -0.0707554485
C   C85       1.0  0.56310  0.95050  0.09790  1.0000 0.0829667008
C   C86       1.0  0.54200  0.04810  0.20640  1.0000 -0.2598920123
C   C87       1.0  0.47770  0.04650  0.24290  1.0000 0.620465432
C   C88       1.0  0.66550  0.75130  0.89950  1.0000 -0.4809308605
C   C89       1.0  0.41650  0.56050  0.91660  1.0000 0.0728003724
C   C90       1.0  0.29090  0.45580  0.91340  1.0000 -0.2215617628
C   C91       1.0  0.22090  0.55600  0.90780  1.0000 0.6113682432
C   C92       1.0  0.02680  0.74380  0.98240  1.0000 0.282007788
C   C93       1.0  0.95080  0.69510  0.96330  1.0000 -0.0707554485
C   C94       1.0  0.90210  0.74350  0.00410  1.0000 -0.1904529848
C   C95       1.0  0.92400  0.84210  0.06440  1.0000 0.1930304101
C   C96       1.0  0.99860  0.88590  0.08510  1.0000 -0.1904529848
C   C97       1.0  0.05030  0.83780  0.04690  1.0000 -0.0707554485
C   C98       1.0  0.91880  0.59340  0.90230  1.0000 0.0954518734
C   C99       1.0  0.90920  0.44240  0.79770  1.0000 -0.2400249795
C   C100      1.0  0.95920  0.35350  0.75960  1.0000 0.620465432
C   C101      1.0  0.86880  0.89580  0.10550  1.0000 -0.4696988941
C   C102      1.0  0.12730  0.87470  0.07520  1.0000 0.0829667008
C   C103      1.0  0.25900  0.83740  0.08360  1.0000 -0.2519385771
C   C104      1.0  0.28410  0.68140  0.12290  1.0000 0.6113682432
N   N1        1.0  0.52300  0.55190  0.64277  1.0000 -0.2215617628
N   N2        1.0  0.35870  0.95130  0.44300  1.0000 -0.1312234954
N   N3        1.0  0.95190  0.95780  0.35560  1.0000 -0.2326995836
N   N4        1.0  0.17990  0.66560  0.54590  1.0000 -0.1154449241
N   N5        1.0  0.47700  0.05190  0.85723  1.0000 -0.2215617628
N   N6        1.0  0.64130  0.45130  0.05700  1.0000 -0.1312234954
N   N7        1.0  0.04810  0.45780  0.14440  1.0000 -0.2326995836
N   N8        1.0  0.82010  0.16560  0.95410  1.0000 -0.1154449241
N   N9        1.0  0.47700  0.44810  0.35723  1.0000 -0.2215617628
N   N10       1.0  0.64130  0.04870  0.55700  1.0000 -0.1312234954
N   N11       1.0  0.04810  0.04220  0.64440  1.0000 -0.2326995836
N   N12       1.0  0.82010  0.33440  0.45410  1.0000 -0.1154449241
N   N13       1.0  0.52300  0.94810  0.14277  1.0000 -0.2215617628
N   N14       1.0  0.35870  0.54870  0.94300  1.0000 -0.1312234954
N   N15       1.0  0.95190  0.54220  0.85560  1.0000 -0.2326995836
N   N16       1.0  0.17990  0.83440  0.04590  1.0000 -0.1154449241
O   O1        1.0  0.43074  0.75510  0.54083  1.0000 -0.5231277751
O   O2        1.0  0.42498  0.55080  0.72171  1.0000 -0.5294963078
O   O3        1.0  0.47989  0.36180  0.79444  1.0000 -0.5380612767
O   O4        1.0  0.16082  0.01460  0.37626  1.0000 -0.5380612767
O   O5        1.0  0.22860  0.80850  0.43322  1.0000 -0.5539648489
O   O6        1.0  0.07410  0.79250  0.44614  1.0000 -0.4933134423
O   O7        1.0  0.02628  0.10620  0.27093  1.0000 -0.5231277751
O   O8        1.0  0.92570  0.25160  0.21779  1.0000 -0.5380612767
O   O9        1.0  0.35334  0.84060  0.64758  1.0000 -0.5570747809
O   O10       1.0  0.23570  0.91310  0.62960  1.0000 -0.5294963078
O   O11       1.0  0.56926  0.25510  0.95917  1.0000 -0.5231277751
O   O12       1.0  0.57502  0.05080  0.77829  1.0000 -0.5294963078
O   O13       1.0  0.52011  0.86180  0.70556  1.0000 -0.5380612767
O   O14       1.0  0.83918  0.51460  0.12374  1.0000 -0.5380612767
O   O15       1.0  0.77140  0.30850  0.06678  1.0000 -0.5539648489
O   O16       1.0  0.92590  0.29250  0.05386  1.0000 -0.4933134423
O   O17       1.0  0.97372  0.60620  0.22907  1.0000 -0.5231277751
O   O18       1.0  0.07430  0.75160  0.28221  1.0000 -0.5380612767
O   O19       1.0  0.64666  0.34060  0.85242  1.0000 -0.5570747809
O   O20       1.0  0.76430  0.41310  0.87040  1.0000 -0.5294963078
O   O21       1.0  0.56926  0.24490  0.45917  1.0000 -0.5231277751
O   O22       1.0  0.57502  0.44920  0.27829  1.0000 -0.5294963078
O   O23       1.0  0.52011  0.63820  0.20556  1.0000 -0.5380612767
O   O24       1.0  0.83918  0.98540  0.62374  1.0000 -0.5380612767
O   O25       1.0  0.77140  0.19150  0.56678  1.0000 -0.5539648489
O   O26       1.0  0.92590  0.20750  0.55386  1.0000 -0.4933134423
O   O27       1.0  0.97372  0.89380  0.72907  1.0000 -0.5231277751
O   O28       1.0  0.07430  0.74840  0.78221  1.0000 -0.5380612767
O   O29       1.0  0.64666  0.15940  0.35242  1.0000 -0.5570747809
O   O30       1.0  0.76430  0.08690  0.37040  1.0000 -0.5294963078
O   O31       1.0  0.43074  0.74490  0.04083  1.0000 -0.5231277751
O   O32       1.0  0.42498  0.94920  0.22171  1.0000 -0.5294963078
O   O33       1.0  0.47989  0.13820  0.29444  1.0000 -0.5380612767
O   O34       1.0  0.16082  0.48540  0.87626  1.0000 -0.5380612767
O   O35       1.0  0.22860  0.69150  0.93322  1.0000 -0.5539648489
O   O36       1.0  0.07410  0.70750  0.94614  1.0000 -0.4933134423
O   O37       1.0  0.02628  0.39380  0.77093  1.0000 -0.5231277751
O   O38       1.0  0.92570  0.24840  0.71779  1.0000 -0.5380612767
O   O39       1.0  0.35334  0.65940  0.14758  1.0000 -0.5570747809
O   O40       1.0  0.23570  0.58690  0.12960  1.0000 -0.5294963078
