# DDEC6 charges by PACMAN v1.1 (https://github.com/mtap-research/PACMAN-charge/)
data_2017[Gd][nan]2[FSR]1
_chemical_formula_sum              "Gd4 H24 C68 O36"
_cell_length_a       13.9516
_cell_length_b       13.9516
_cell_length_c       21.7643
_cell_angle_alpha    65.1224
_cell_angle_beta     114.878
_cell_angle_gamma    145.929

_symmetry_space_group_name_H-M    "P 1"
_symmetry_Int_Tables_number       1

loop_
  _symmetry_equiv_pos_as_xyz
  'x, y, z'

loop_
  _atom_site_type_symbol
  _atom_site_label
  _atom_site_symmetry_multiplicity
  _atom_site_fract_x
  _atom_site_fract_y
  _atom_site_fract_z
  _atom_site_occupancy
  _atom_site_charge
Gd  Gd1       1.0  0.60928  0.10598  0.97203  1.0000 2.0658939838
Gd  Gd2       1.0  0.10598  0.60928  0.02797  1.0000 2.0658939838
Gd  Gd3       1.0  0.39416  0.88776  0.53517  1.0000 2.0521234035
Gd  Gd4       1.0  0.88776  0.39416  0.46483  1.0000 2.0521234035
H   H1        1.0  0.77020  0.64360  0.93530  1.0000 0.1364998728
H   H2        1.0  0.51180  0.77400  0.89510  1.0000 0.1508349835
H   H3        1.0  0.22790  0.29050  0.91780  1.0000 0.1321062604
H   H4        1.0  0.00810  0.18750  0.94670  1.0000 0.1508349835
H   H5        1.0  0.33320  0.24800  0.78540  1.0000 0.1321062604
H   H6        1.0  0.31080  0.36280  0.81920  1.0000 0.1321062604
H   H7        1.0  0.64360  0.77020  0.06470  1.0000 0.1364998728
H   H8        1.0  0.77400  0.51180  0.10490  1.0000 0.1508349835
H   H9        1.0  0.29050  0.22790  0.08220  1.0000 0.1321062604
H   H10       1.0  0.18750  0.00810  0.05330  1.0000 0.1508349835
H   H11       1.0  0.24800  0.33320  0.21460  1.0000 0.1321062604
H   H12       1.0  0.36280  0.31080  0.18080  1.0000 0.1321062604
H   H13       1.0  0.49230  0.19810  0.61090  1.0000 0.1508349835
H   H14       1.0  0.23170  0.34910  0.54180  1.0000 0.1321062604
H   H15       1.0  0.74850  0.67550  0.57210  1.0000 0.1233255401
H   H16       1.0  0.97600  0.79000  0.54710  1.0000 0.1508349835
H   H17       1.0  0.61830  0.68350  0.71640  1.0000 0.1321062604
H   H18       1.0  0.64520  0.56800  0.68450  1.0000 0.1321062604
H   H19       1.0  0.19810  0.49230  0.38910  1.0000 0.1508349835
H   H20       1.0  0.34910  0.23170  0.45820  1.0000 0.1321062604
H   H21       1.0  0.67550  0.74850  0.42790  1.0000 0.1233255401
H   H22       1.0  0.79000  0.97600  0.45290  1.0000 0.1508349835
H   H23       1.0  0.68350  0.61830  0.28360  1.0000 0.1321062604
H   H24       1.0  0.56800  0.64520  0.31550  1.0000 0.1321062604
C   C1        1.0  0.13130  0.42090  0.93950  1.0000 0.007488343
C   C2        1.0  0.98730  0.34090  0.96540  1.0000 0.6418703258
C   C3        1.0  0.83660  0.52740  0.92710  1.0000 0.6174989189
C   C4        1.0  0.28210  0.59790  0.92230  1.0000 -0.0345424094
C   C5        1.0  0.67850  0.55910  0.90670  1.0000 -0.0795294894
C   C6        1.0  0.41060  0.65580  0.90600  1.0000 -0.0795294894
C   C7        1.0  0.68260  0.47480  0.89140  1.0000 -0.0396658123
C   C8        1.0  0.24230  0.36730  0.91970  1.0000 -0.108104821
C   C9        1.0  0.11040  0.30580  0.93690  1.0000 -0.0901505168
C   C10       1.0  0.39450  0.54390  0.90540  1.0000 0.007488343
C   C11       1.0  0.55090  0.62250  0.89500  1.0000 0.3634350061
C   C12       1.0  0.53880  0.51800  0.87950  1.0000 -0.0115515591
C   C13       1.0  0.31140  0.72880  0.92310  1.0000 0.6418703258
C   C14       1.0  0.55450  0.35770  0.84640  1.0000 0.0012917981
C   C15       1.0  0.41890  0.32310  0.81790  1.0000 -0.0901505168
C   C16       1.0  0.40780  0.39620  0.83620  1.0000 -0.097795478
C   C17       1.0  0.55800  0.27500  0.82070  1.0000 0.6174989189
C   C18       1.0  0.42090  0.13130  0.06050  1.0000 0.007488343
C   C19       1.0  0.34090  0.98730  0.03460  1.0000 0.6418703258
C   C20       1.0  0.52740  0.83660  0.07290  1.0000 0.6174989189
C   C21       1.0  0.59790  0.28210  0.07770  1.0000 -0.0345424094
C   C22       1.0  0.55910  0.67850  0.09330  1.0000 -0.0795294894
C   C23       1.0  0.65580  0.41060  0.09400  1.0000 -0.0795294894
C   C24       1.0  0.47480  0.68260  0.10860  1.0000 -0.0396658123
C   C25       1.0  0.36730  0.24230  0.08030  1.0000 -0.108104821
C   C26       1.0  0.30580  0.11040  0.06310  1.0000 -0.0901505168
C   C27       1.0  0.54390  0.39450  0.09460  1.0000 0.007488343
C   C28       1.0  0.62250  0.55090  0.10500  1.0000 0.3634350061
C   C29       1.0  0.51800  0.53880  0.12050  1.0000 -0.0115515591
C   C30       1.0  0.72880  0.31140  0.07690  1.0000 0.6418703258
C   C31       1.0  0.35770  0.55450  0.15360  1.0000 0.0012917981
C   C32       1.0  0.32310  0.41890  0.18210  1.0000 -0.0901505168
C   C33       1.0  0.39620  0.40780  0.16380  1.0000 -0.097795478
C   C34       1.0  0.27500  0.55800  0.17930  1.0000 0.6174989189
C   C35       1.0  0.73100  0.38900  0.58470  1.0000 -0.0482838151
C   C36       1.0  0.87650  0.56690  0.56480  1.0000 0.007488343
C   C37       1.0  0.59310  0.42350  0.59330  1.0000 0.0012917981
C   C38       1.0  0.02520  0.65120  0.54200  1.0000 0.6250328779
C   C39       1.0  0.58900  0.31680  0.59840  1.0000 -0.0688061357
C   C40       1.0  0.31010  0.41710  0.57680  1.0000 -0.0795294894
C   C41       1.0  0.74240  0.60240  0.57470  1.0000 -0.108104821
C   C42       1.0  0.87980  0.67140  0.56020  1.0000 -0.097795478
C   C43       1.0  0.30110  0.49550  0.59400  1.0000 -0.0396658123
C   C44       1.0  0.43100  0.34080  0.59810  1.0000 0.3634350061
C   C45       1.0  0.16380  0.46800  0.55090  1.0000 0.6174989189
C   C46       1.0  0.43820  0.44200  0.61280  1.0000 -0.0115515591
C   C47       1.0  0.41630  0.59470  0.64580  1.0000 -0.0027865354
C   C48       1.0  0.39370  0.66110  0.67020  1.0000 0.6174989189
C   C49       1.0  0.54170  0.61830  0.68050  1.0000 -0.097795478
C   C50       1.0  0.55560  0.54560  0.66250  1.0000 -0.0901505168
C   C51       1.0  0.71690  0.26630  0.58910  1.0000 0.6418703258
C   C52       1.0  0.38900  0.73100  0.41530  1.0000 -0.0482838151
C   C53       1.0  0.56690  0.87650  0.43520  1.0000 0.007488343
C   C54       1.0  0.42350  0.59310  0.40670  1.0000 0.0012917981
C   C55       1.0  0.65120  0.02520  0.45800  1.0000 0.6250328779
C   C56       1.0  0.31680  0.58900  0.40160  1.0000 -0.0688061357
C   C57       1.0  0.41710  0.31010  0.42320  1.0000 -0.0795294894
C   C58       1.0  0.60240  0.74240  0.42530  1.0000 -0.108104821
C   C59       1.0  0.67140  0.87980  0.43980  1.0000 -0.097795478
C   C60       1.0  0.49550  0.30110  0.40600  1.0000 -0.0396658123
C   C61       1.0  0.34080  0.43100  0.40190  1.0000 0.3634350061
C   C62       1.0  0.46800  0.16380  0.44910  1.0000 0.6174989189
C   C63       1.0  0.44200  0.43820  0.38720  1.0000 -0.0115515591
C   C64       1.0  0.59470  0.41630  0.35420  1.0000 -0.0027865354
C   C65       1.0  0.66110  0.39370  0.32980  1.0000 0.6146246552
C   C66       1.0  0.61830  0.54170  0.31950  1.0000 -0.097795478
C   C67       1.0  0.54560  0.55560  0.33750  1.0000 -0.0901505168
C   C68       1.0  0.26630  0.71690  0.41090  1.0000 0.6418703258
O   O1        1.0  0.83880  0.23220  0.93200  1.0000 -0.5687264443
O   O2        1.0  0.69070  0.77370  0.90030  1.0000 -0.3675443471
O   O3        1.0  0.81894  0.41246  0.94820  1.0000 -0.7302606941
O   O4        1.0  0.53650  0.16310  0.86000  1.0000 -0.6075178028
O   O5        1.0  0.18973  0.68067  0.92690  1.0000 -0.5880072356
O   O6        1.0  0.02240  0.38360  0.02020  1.0000 -0.676001215
O   O7        1.0  0.46600  0.88580  0.91900  1.0000 -0.6075178028
O   O8        1.0  0.97843  0.67817  0.94040  1.0000 -0.5423637271
O   O9        1.0  0.57690  0.31970  0.75980  1.0000 -0.4781006217
O   O10       1.0  0.23220  0.83880  0.06800  1.0000 -0.5687264443
O   O11       1.0  0.77370  0.69070  0.09970  1.0000 -0.3675443471
O   O12       1.0  0.41246  0.81894  0.05180  1.0000 -0.7302606941
O   O13       1.0  0.16310  0.53650  0.14000  1.0000 -0.6075178028
O   O14       1.0  0.68067  0.18973  0.07310  1.0000 -0.5880072356
O   O15       1.0  0.38360  0.02240  0.97980  1.0000 -0.676001215
O   O16       1.0  0.88580  0.46600  0.08100  1.0000 -0.6075178028
O   O17       1.0  0.67817  0.97843  0.05960  1.0000 -0.5423637271
O   O18       1.0  0.31970  0.57690  0.24020  1.0000 -0.4781006217
O   O19       1.0  0.16610  0.74110  0.58480  1.0000 -0.5880072356
O   O20       1.0  0.00471  0.63249  0.48670  1.0000 -0.5816324592
O   O21       1.0  0.02483  0.32957  0.52710  1.0000 -0.5514735222
O   O22       1.0  0.29360  0.19320  0.58710  1.0000 -0.3675443471
O   O23       1.0  0.46334  0.80526  0.64390  1.0000 -0.5989782751
O   O24       1.0  0.19243  0.58677  0.54080  1.0000 -0.7056651354
O   O25       1.0  0.31060  0.56800  0.72010  1.0000 -0.4928344429
O   O26       1.0  0.57718  0.10602  0.60320  1.0000 -0.5989782751
O   O27       1.0  0.84273  0.32927  0.57560  1.0000 -0.618298018
O   O28       1.0  0.74110  0.16610  0.41520  1.0000 -0.5880072356
O   O29       1.0  0.63249  0.00471  0.51330  1.0000 -0.5816324592
O   O30       1.0  0.32957  0.02483  0.47290  1.0000 -0.5514735222
O   O31       1.0  0.19320  0.29360  0.41290  1.0000 -0.3675443471
O   O32       1.0  0.80526  0.46334  0.35610  1.0000 -0.5989782751
O   O33       1.0  0.58677  0.19243  0.45920  1.0000 -0.7056651354
O   O34       1.0  0.56800  0.31060  0.27990  1.0000 -0.4928344429
O   O35       1.0  0.10602  0.57718  0.39680  1.0000 -0.5989782751
O   O36       1.0  0.32927  0.84273  0.42440  1.0000 -0.618298018
