# DDEC6 charges by PACMAN v1.1 (https://github.com/mtap-research/PACMAN-charge/)
data_2017[Cu][rob]3[FSR]6
_chemical_formula_sum              "Cu4 H48 C44 N4 O16"
_cell_length_a       13.8876
_cell_length_b       13.8876
_cell_length_c       8.6609
_cell_angle_alpha    88.4122
_cell_angle_beta     91.5878
_cell_angle_gamma    124.281

_symmetry_space_group_name_H-M    "P 1"
_symmetry_Int_Tables_number       1

loop_
  _symmetry_equiv_pos_as_xyz
  'x, y, z'

loop_
  _atom_site_type_symbol
  _atom_site_label
  _atom_site_symmetry_multiplicity
  _atom_site_fract_x
  _atom_site_fract_y
  _atom_site_fract_z
  _atom_site_occupancy
  _atom_site_charge
Cu  Cu1       1.0  0.90935  0.49727  0.44458  1.0000 0.7554025814
Cu  Cu2       1.0  0.49727  0.90935  0.05542  1.0000 0.7554025814
Cu  Cu3       1.0  0.09065  0.50273  0.55542  1.0000 0.7542574173
Cu  Cu4       1.0  0.50273  0.09065  0.94458  1.0000 0.7554025814
H   H1        1.0  0.86123  0.67029  0.29019  1.0000 0.1115118209
H   H2        1.0  0.11227  0.64099  0.00617  1.0000 0.0976741615
H   H3        1.0  0.06859  0.71279  0.08448  1.0000 0.0976741615
H   H4        1.0  0.59379  0.57523  0.89726  1.0000 0.1193658514
H   H5        1.0  0.51814  0.43588  0.89103  1.0000 0.1115118209
H   H6        1.0  0.55062  0.32484  0.09173  1.0000 0.1394292442
H   H7        1.0  0.67583  0.32807  0.27713  1.0000 0.1193658514
H   H8        1.0  0.74187  0.67751  0.10483  1.0000 0.1394292442
H   H9        1.0  0.92062  0.64896  0.89152  1.0000 0.1269895052
H   H10       1.0  0.90641  0.53933  0.98091  1.0000 0.1394292442
H   H11       1.0  0.12728  0.83966  0.87225  1.0000 0.1269895052
H   H12       1.0  0.15594  0.76224  0.77685  1.0000 0.1394292442
H   H13       1.0  0.67029  0.86123  0.20981  1.0000 0.1115118209
H   H14       1.0  0.64099  0.11227  0.49383  1.0000 0.0976741615
H   H15       1.0  0.71279  0.06859  0.41552  1.0000 0.0976741615
H   H16       1.0  0.57523  0.59379  0.60274  1.0000 0.1193658514
H   H17       1.0  0.43588  0.51814  0.60897  1.0000 0.1115118209
H   H18       1.0  0.32484  0.55062  0.40827  1.0000 0.1394292442
H   H19       1.0  0.32807  0.67583  0.22287  1.0000 0.1193658514
H   H20       1.0  0.67751  0.74187  0.39517  1.0000 0.1394292442
H   H21       1.0  0.64896  0.92062  0.60848  1.0000 0.1269895052
H   H22       1.0  0.53933  0.90641  0.51909  1.0000 0.1394292442
H   H23       1.0  0.83966  0.12728  0.62775  1.0000 0.1269895052
H   H24       1.0  0.76224  0.15594  0.72315  1.0000 0.1394292442
H   H25       1.0  0.13877  0.32971  0.70981  1.0000 0.1115118209
H   H26       1.0  0.88773  0.35901  0.99383  1.0000 0.0976741615
H   H27       1.0  0.93141  0.28721  0.91552  1.0000 0.0976741615
H   H28       1.0  0.40621  0.42477  0.10274  1.0000 0.1193658514
H   H29       1.0  0.48186  0.56412  0.10897  1.0000 0.1115118209
H   H30       1.0  0.44938  0.67516  0.90827  1.0000 0.1394292442
H   H31       1.0  0.32417  0.67193  0.72287  1.0000 0.1193658514
H   H32       1.0  0.25813  0.32249  0.89517  1.0000 0.1394292442
H   H33       1.0  0.07938  0.35104  0.10848  1.0000 0.1269895052
H   H34       1.0  0.09359  0.46067  0.01909  1.0000 0.1394292442
H   H35       1.0  0.87272  0.16034  0.12775  1.0000 0.1269895052
H   H36       1.0  0.84406  0.23776  0.22315  1.0000 0.1394292442
H   H37       1.0  0.32971  0.13877  0.79019  1.0000 0.1115118209
H   H38       1.0  0.35901  0.88773  0.50617  1.0000 0.0976741615
H   H39       1.0  0.28721  0.93141  0.58448  1.0000 0.0976741615
H   H40       1.0  0.42477  0.40621  0.39726  1.0000 0.1193658514
H   H41       1.0  0.56412  0.48186  0.39103  1.0000 0.1115118209
H   H42       1.0  0.67516  0.44938  0.59173  1.0000 0.1394292442
H   H43       1.0  0.67193  0.32417  0.77713  1.0000 0.1193658514
H   H44       1.0  0.32249  0.25813  0.60483  1.0000 0.1394292442
H   H45       1.0  0.35104  0.07938  0.39152  1.0000 0.1269895052
H   H46       1.0  0.46067  0.09359  0.48091  1.0000 0.1394292442
H   H47       1.0  0.16034  0.87272  0.37225  1.0000 0.1269895052
H   H48       1.0  0.23776  0.84406  0.27685  1.0000 0.1394292442
C   C1        1.0  0.96223  0.55715  0.75680  1.0000 0.6250063544
C   C2        1.0  0.28410  0.86650  0.93470  1.0000 0.6241875058
C   C3        1.0  0.79694  0.59926  0.24970  1.0000 0.0852733617
C   C4        1.0  0.07718  0.68542  0.98470  1.0000 -0.0971073592
C   C5        1.0  0.55007  0.50293  0.96080  1.0000 -0.2476919676
C   C6        1.0  0.61384  0.39716  0.13070  1.0000 -0.2038476104
C   C7        1.0  0.68878  0.39982  0.24200  1.0000 0.0976741615
C   C8        1.0  0.63193  0.50127  0.07650  1.0000 0.1667458964
C   C9        1.0  0.72623  0.60437  0.13860  1.0000 -0.2198982174
C   C10       1.0  0.95670  0.60510  0.90930  1.0000 -0.328908586
C   C11       1.0  0.15832  0.79068  0.88140  1.0000 -0.328908586
C   C12       1.0  0.55715  0.96223  0.74320  1.0000 0.6250063544
C   C13       1.0  0.86650  0.28410  0.56530  1.0000 0.6241875058
C   C14       1.0  0.59926  0.79694  0.25030  1.0000 0.0852733617
C   C15       1.0  0.68542  0.07718  0.51530  1.0000 -0.0971073592
C   C16       1.0  0.50293  0.55007  0.53920  1.0000 -0.2476919676
C   C17       1.0  0.39716  0.61384  0.36930  1.0000 -0.2038476104
C   C18       1.0  0.39982  0.68878  0.25800  1.0000 0.0976741615
C   C19       1.0  0.50127  0.63193  0.42350  1.0000 0.1667458964
C   C20       1.0  0.60437  0.72623  0.36140  1.0000 -0.2198982174
C   C21       1.0  0.60510  0.95670  0.59070  1.0000 -0.328908586
C   C22       1.0  0.79068  0.15832  0.61860  1.0000 -0.328908586
C   C23       1.0  0.03777  0.44285  0.24320  1.0000 0.6250063544
C   C24       1.0  0.71590  0.13350  0.06530  1.0000 0.6241875058
C   C25       1.0  0.20306  0.40074  0.75030  1.0000 0.0852733617
C   C26       1.0  0.92282  0.31458  0.01530  1.0000 -0.0971073592
C   C27       1.0  0.44993  0.49707  0.03920  1.0000 -0.2476919676
C   C28       1.0  0.38616  0.60284  0.86930  1.0000 -0.2038476104
C   C29       1.0  0.31122  0.60018  0.75800  1.0000 0.0976741615
C   C30       1.0  0.36807  0.49873  0.92350  1.0000 0.1667458964
C   C31       1.0  0.27377  0.39563  0.86140  1.0000 -0.2198982174
C   C32       1.0  0.04330  0.39490  0.09070  1.0000 -0.328908586
C   C33       1.0  0.84168  0.20932  0.11860  1.0000 -0.328908586
C   C34       1.0  0.44285  0.03777  0.25680  1.0000 0.6250063544
C   C35       1.0  0.13350  0.71590  0.43470  1.0000 0.6241875058
C   C36       1.0  0.40074  0.20306  0.74970  1.0000 0.0852733617
C   C37       1.0  0.31458  0.92282  0.48470  1.0000 -0.0971073592
C   C38       1.0  0.49707  0.44993  0.46080  1.0000 -0.2476919676
C   C39       1.0  0.60284  0.38616  0.63070  1.0000 -0.2038476104
C   C40       1.0  0.60018  0.31122  0.74200  1.0000 0.0976741615
C   C41       1.0  0.49873  0.36807  0.57650  1.0000 0.1667458964
C   C42       1.0  0.39563  0.27377  0.63860  1.0000 -0.2198982174
C   C43       1.0  0.39490  0.04330  0.40930  1.0000 -0.328908586
C   C44       1.0  0.20932  0.84168  0.38140  1.0000 -0.328908586
N   N1        1.0  0.77904  0.49912  0.30280  1.0000 -0.2627102147
N   N2        1.0  0.49912  0.77904  0.19720  1.0000 -0.2627102147
N   N3        1.0  0.22096  0.50088  0.69720  1.0000 -0.2627102147
N   N4        1.0  0.50088  0.22096  0.80280  1.0000 -0.2627102147
O   O1        1.0  0.88862  0.53874  0.65220  1.0000 -0.541342699
O   O2        1.0  0.33010  0.81822  0.99640  1.0000 -0.5236006016
O   O3        1.0  0.04118  0.53992  0.74380  1.0000 -0.527444684
O   O4        1.0  0.33544  0.97384  0.90760  1.0000 -0.541342699
O   O5        1.0  0.53874  0.88862  0.84780  1.0000 -0.541342699
O   O6        1.0  0.81822  0.33010  0.50360  1.0000 -0.5236006016
O   O7        1.0  0.53992  0.04118  0.75620  1.0000 -0.527444684
O   O8        1.0  0.97384  0.33544  0.59240  1.0000 -0.541342699
O   O9        1.0  0.11138  0.46126  0.34780  1.0000 -0.541342699
O   O10       1.0  0.66990  0.18178  0.00360  1.0000 -0.5236006016
O   O11       1.0  0.95882  0.46008  0.25620  1.0000 -0.527444684
O   O12       1.0  0.66456  0.02616  0.09240  1.0000 -0.541342699
O   O13       1.0  0.46126  0.11138  0.15220  1.0000 -0.541342699
O   O14       1.0  0.18178  0.66990  0.49640  1.0000 -0.5236006016
O   O15       1.0  0.46008  0.95882  0.24380  1.0000 -0.527444684
O   O16       1.0  0.02616  0.66456  0.40760  1.0000 -0.541342699
