# DDEC6 charges by PACMAN v1.1 (https://github.com/mtap-research/PACMAN-charge/)
data_2018[Zn][sql]2[FSR]18
_chemical_formula_sum              "Zn2 H44 C68 N4 O16"
_cell_length_a       13.9308
_cell_length_b       13.9308
_cell_length_c       13.9308
_cell_angle_alpha    143.323
_cell_angle_beta     113.36
_cell_angle_gamma    78.5488

_symmetry_space_group_name_H-M    "P 1"
_symmetry_Int_Tables_number       1

loop_
  _symmetry_equiv_pos_as_xyz
  'x, y, z'

loop_
  _atom_site_type_symbol
  _atom_site_label
  _atom_site_symmetry_multiplicity
  _atom_site_fract_x
  _atom_site_fract_y
  _atom_site_fract_z
  _atom_site_occupancy
  _atom_site_charge
Zn  Zn1       1.0  0.75000  0.50000  0.25000  1.0000 0.9255819787
Zn  Zn2       1.0  0.25000  0.50000  0.75000  1.0000 0.9255819787
H   H1        1.0  0.05170  0.07320  0.75930  1.0000 0.1289560486
H   H2        1.0  0.29470  0.32430  0.13220  1.0000 0.1289560486
H   H3        1.0  0.44070  0.22960  0.04550  1.0000 0.1350656171
H   H4        1.0  0.52680  0.15400  0.88840  1.0000 0.1511635054
H   H5        1.0  0.59350  0.05420  0.72270  1.0000 0.1219826285
H   H6        1.0  0.68610  0.92680  0.97850  1.0000 0.1289560486
H   H7        1.0  0.80790  0.67570  0.97040  1.0000 0.1289560486
H   H8        1.0  0.81590  0.77040  0.21110  1.0000 0.1350656171
H   H9        1.0  0.73440  0.84600  0.37280  1.0000 0.1511635054
H   H10       1.0  0.66850  0.94580  0.53930  1.0000 0.1219826285
H   H11       1.0  0.81390  0.29240  0.74070  1.0000 0.1289560486
H   H12       1.0  0.69210  0.16250  0.36780  1.0000 0.1289560486
H   H13       1.0  0.68410  0.39520  0.45450  1.0000 0.1350656171
H   H14       1.0  0.76560  0.63840  0.61160  1.0000 0.1511635054
H   H15       1.0  0.83150  0.87080  0.77730  1.0000 0.1219826285
H   H16       1.0  0.44830  0.70760  0.52150  1.0000 0.1289560486
H   H17       1.0  0.20530  0.83750  0.52960  1.0000 0.1289560486
H   H18       1.0  0.05930  0.60480  0.28890  1.0000 0.1350656171
H   H19       1.0  0.97320  0.36160  0.12720  1.0000 0.1511635054
H   H20       1.0  0.90650  0.12920  0.96070  1.0000 0.1219826285
H   H21       1.0  0.94830  0.92680  0.24070  1.0000 0.1289560486
H   H22       1.0  0.70530  0.67570  0.86780  1.0000 0.1289560486
H   H23       1.0  0.55930  0.77040  0.95450  1.0000 0.1350656171
H   H24       1.0  0.47320  0.84600  0.11160  1.0000 0.1511635054
H   H25       1.0  0.40650  0.94580  0.27730  1.0000 0.1219826285
H   H26       1.0  0.31390  0.07320  0.02150  1.0000 0.1289560486
H   H27       1.0  0.19210  0.32430  0.02960  1.0000 0.1289560486
H   H28       1.0  0.18410  0.22960  0.78890  1.0000 0.1350656171
H   H29       1.0  0.26560  0.15400  0.62720  1.0000 0.1511635054
H   H30       1.0  0.33150  0.05420  0.46070  1.0000 0.1219826285
H   H31       1.0  0.18610  0.70760  0.25930  1.0000 0.1289560486
H   H32       1.0  0.30790  0.83750  0.63220  1.0000 0.1289560486
H   H33       1.0  0.31590  0.60480  0.54550  1.0000 0.1350656171
H   H34       1.0  0.23440  0.36160  0.38840  1.0000 0.1511635054
H   H35       1.0  0.16850  0.12920  0.22270  1.0000 0.1219826285
H   H36       1.0  0.55170  0.29240  0.47850  1.0000 0.1289560486
H   H37       1.0  0.79470  0.16250  0.47040  1.0000 0.1289560486
H   H38       1.0  0.94070  0.39520  0.71110  1.0000 0.1350656171
H   H39       1.0  0.02680  0.63840  0.87280  1.0000 0.1511635054
H   H40       1.0  0.09350  0.87080  0.03930  1.0000 0.1219826285
H   H41       1.0  0.06050  0.69110  0.63060  1.0000 0.1289560486
H   H42       1.0  0.93950  0.30890  0.36940  1.0000 0.1289560486
H   H43       1.0  0.56050  0.42990  0.86940  1.0000 0.1289560486
H   H44       1.0  0.43950  0.57010  0.13060  1.0000 0.1289560486
C   C1        1.0  0.92794  0.78468  0.52546  1.0000 0.5478580166
C   C2        1.0  0.03915  0.86852  0.67183  1.0000 -0.013194861
C   C3        1.0  0.08807  0.02230  0.77737  1.0000 -0.1924219262
C   C4        1.0  0.40492  0.21130  0.95822  1.0000 0.0329947193
C   C5        1.0  0.45621  0.16504  0.86337  1.0000 -0.1596637666
C   C6        1.0  0.55557  0.03274  0.63323  1.0000 -0.1176758837
C   C7        1.0  0.74078  0.21532  0.14326  1.0000 0.5478580166
C   C8        1.0  0.80331  0.13148  0.17063  1.0000 -0.013194861
C   C9        1.0  0.75507  0.97770  0.06577  1.0000 -0.1924219262
C   C10       1.0  0.74692  0.78870  0.19362  1.0000 0.0329947193
C   C11       1.0  0.69833  0.83496  0.29117  1.0000 -0.1596637666
C   C12       1.0  0.60049  0.96726  0.52283  1.0000 -0.1176758837
C   C13       1.0  0.75922  0.40248  0.97454  1.0000 0.5478580166
C   C14       1.0  0.69669  0.36732  0.82817  1.0000 -0.013194861
C   C15       1.0  0.74493  0.31070  0.72263  1.0000 -0.1924219262
C   C16       1.0  0.75308  0.44670  0.54178  1.0000 0.0329947193
C   C17       1.0  0.80167  0.59284  0.63663  1.0000 -0.1596637666
C   C18       1.0  0.89951  0.92234  0.86677  1.0000 -0.1176758837
C   C19       1.0  0.57206  0.59752  0.35674  1.0000 0.5478580166
C   C20       1.0  0.46085  0.63268  0.32937  1.0000 -0.013194861
C   C21       1.0  0.41193  0.68930  0.43423  1.0000 -0.1924219262
C   C22       1.0  0.09508  0.55330  0.30638  1.0000 0.0329947193
C   C23       1.0  0.04379  0.40716  0.20883  1.0000 -0.1596637666
C   C24       1.0  0.94443  0.07766  0.97717  1.0000 -0.1176758837
C   C25       1.0  0.07206  0.21532  0.47454  1.0000 0.5478580166
C   C26       1.0  0.96085  0.13148  0.32817  1.0000 -0.013194861
C   C27       1.0  0.91193  0.97770  0.22263  1.0000 -0.1924219262
C   C28       1.0  0.59508  0.78870  0.04178  1.0000 0.0329947193
C   C29       1.0  0.54379  0.83496  0.13663  1.0000 -0.1596637666
C   C30       1.0  0.44443  0.96726  0.36677  1.0000 -0.1176758837
C   C31       1.0  0.25922  0.78468  0.85674  1.0000 0.5478580166
C   C32       1.0  0.19669  0.86852  0.82937  1.0000 -0.013194861
C   C33       1.0  0.24493  0.02230  0.93423  1.0000 -0.1924219262
C   C34       1.0  0.25308  0.21130  0.80638  1.0000 0.0329947193
C   C35       1.0  0.30167  0.16504  0.70883  1.0000 -0.1596637666
C   C36       1.0  0.39951  0.03274  0.47717  1.0000 -0.1176758837
C   C37       1.0  0.24078  0.59752  0.02546  1.0000 0.5478580166
C   C38       1.0  0.30331  0.63268  0.17183  1.0000 -0.013194861
C   C39       1.0  0.25507  0.68930  0.27737  1.0000 -0.1924219262
C   C40       1.0  0.24692  0.55330  0.45822  1.0000 0.0329947193
C   C41       1.0  0.19833  0.40716  0.36337  1.0000 -0.1596637666
C   C42       1.0  0.10049  0.07766  0.13323  1.0000 -0.1176758837
C   C43       1.0  0.42794  0.40248  0.64326  1.0000 0.5478580166
C   C44       1.0  0.53915  0.36732  0.67063  1.0000 -0.013194861
C   C45       1.0  0.58807  0.31070  0.56577  1.0000 -0.1924219262
C   C46       1.0  0.90492  0.44670  0.69362  1.0000 0.0329947193
C   C47       1.0  0.95621  0.59284  0.79117  1.0000 -0.1596637666
C   C48       1.0  0.05557  0.92234  0.02283  1.0000 -0.1176758837
C   C49       1.0  0.09335  0.79265  0.69930  1.0000 -0.1401169281
C   C50       1.0  0.19063  0.09973  0.90910  1.0000 0.0864442569
C   C51       1.0  0.24501  0.26111  0.01610  1.0000 -0.1964878272
C   C52       1.0  0.40439  0.13409  0.72970  1.0000 0.1219826285
C   C53       1.0  0.45390  0.06800  0.61410  1.0000 0.0650789906
C   C54       1.0  0.90665  0.20735  0.30070  1.0000 -0.1401169281
C   C55       1.0  0.80937  0.90027  0.09090  1.0000 0.0864442569
C   C56       1.0  0.75499  0.73889  0.98390  1.0000 -0.1964878272
C   C57       1.0  0.59561  0.86591  0.27030  1.0000 0.1219826285
C   C58       1.0  0.54610  0.93200  0.38590  1.0000 0.0650789906
C   C59       1.0  0.59335  0.39405  0.80070  1.0000 -0.1401169281
C   C60       1.0  0.69063  0.28153  0.59090  1.0000 0.0864442569
C   C61       1.0  0.74501  0.22891  0.48390  1.0000 -0.1964878272
C   C62       1.0  0.90439  0.67469  0.77030  1.0000 0.1219826285
C   C63       1.0  0.95390  0.83980  0.88590  1.0000 0.0650789906
C   C64       1.0  0.40665  0.60595  0.19930  1.0000 -0.1401169281
C   C65       1.0  0.30937  0.71847  0.40910  1.0000 0.0864442569
C   C66       1.0  0.25499  0.77109  0.51610  1.0000 -0.1964878272
C   C67       1.0  0.09561  0.32531  0.22970  1.0000 0.1219826285
C   C68       1.0  0.04610  0.16020  0.11410  1.0000 0.0650789906
N   N1        1.0  0.30356  0.23076  0.92720  1.0000 0.0864442569
N   N2        1.0  0.69644  0.76924  0.07280  1.0000 0.0864442569
N   N3        1.0  0.80356  0.37636  0.57280  1.0000 0.0864442569
N   N4        1.0  0.19644  0.62364  0.42720  1.0000 0.0864442569
O   O1        1.0  0.88193  0.66391  0.45742  1.0000 -0.5299749355
O   O2        1.0  0.89587  0.83570  0.47957  1.0000 -0.5415914189
O   O3        1.0  0.79351  0.33609  0.21802  1.0000 -0.5299749355
O   O4        1.0  0.64387  0.16430  0.06017  1.0000 -0.5415914189
O   O5        1.0  0.70649  0.42451  0.04258  1.0000 -0.5299749355
O   O6        1.0  0.85613  0.41630  0.02043  1.0000 -0.5415914189
O   O7        1.0  0.61807  0.57549  0.28198  1.0000 -0.5299749355
O   O8        1.0  0.60413  0.58370  0.43983  1.0000 -0.5415914189
O   O9        1.0  0.11807  0.33609  0.54258  1.0000 -0.5299749355
O   O10       1.0  0.10413  0.16430  0.52043  1.0000 -0.5415914189
O   O11       1.0  0.20649  0.66391  0.78198  1.0000 -0.5299749355
O   O12       1.0  0.35613  0.83570  0.93983  1.0000 -0.5415914189
O   O13       1.0  0.29351  0.57549  0.95742  1.0000 -0.5299749355
O   O14       1.0  0.14387  0.58370  0.97957  1.0000 -0.5415914189
O   O15       1.0  0.38193  0.42451  0.71802  1.0000 -0.5299749355
O   O16       1.0  0.39587  0.41630  0.56017  1.0000 -0.5415914189
