# DDEC6 charges by PACMAN v1.1 (https://github.com/mtap-research/PACMAN-charge/)
data_2018[Cd][nan]2[FSR]3
_chemical_formula_sum              "Cd4 H72 C104 N16 O20"
_cell_length_a       16.06
_cell_length_b       16.06
_cell_length_c       15.7983
_cell_angle_alpha    71.2654
_cell_angle_beta     108.735
_cell_angle_gamma    134.48

_symmetry_space_group_name_H-M    "P 1"
_symmetry_Int_Tables_number       1

loop_
  _symmetry_equiv_pos_as_xyz
  'x, y, z'

loop_
  _atom_site_type_symbol
  _atom_site_label
  _atom_site_symmetry_multiplicity
  _atom_site_fract_x
  _atom_site_fract_y
  _atom_site_fract_z
  _atom_site_occupancy
  _atom_site_charge
Cd  Cd1       1.0  0.43020  0.57574  0.98879  1.0000 0.8682197812
Cd  Cd2       1.0  0.57574  0.43020  0.51121  1.0000 0.8682197812
Cd  Cd3       1.0  0.56980  0.42426  0.01121  1.0000 0.8682197812
Cd  Cd4       1.0  0.42426  0.56980  0.48879  1.0000 0.8682197812
H   H1        1.0  0.43061  0.01379  0.65021  1.0000 0.2874341938
H   H2        1.0  0.56133  0.70495  0.67796  1.0000 0.2990827071
H   H3        1.0  0.40460  0.14982  0.61483  1.0000 0.1076423558
H   H4        1.0  0.69318  0.30432  0.53031  1.0000 0.1395563516
H   H5        1.0  0.72313  0.18321  0.50360  1.0000 0.1191537282
H   H6        1.0  0.77878  0.08154  0.51170  1.0000 0.1191537282
H   H7        1.0  0.70687  0.91057  0.61098  1.0000 0.1191537282
H   H8        1.0  0.52413  0.94317  0.69913  1.0000 0.1191537282
H   H9        1.0  0.52851  0.81639  0.83890  1.0000 0.1321951491
H   H10       1.0  0.48166  0.55516  0.80319  1.0000 0.1191537282
H   H11       1.0  0.27072  0.18790  0.96768  1.0000 0.1191537282
H   H12       1.0  0.17108  0.98992  0.01086  1.0000 0.1395563516
H   H13       1.0  0.07635  0.98921  0.21772  1.0000 0.1321951491
H   H14       1.0  0.17401  0.18687  0.17144  1.0000 0.1076423558
H   H15       1.0  0.09849  0.77437  0.30658  1.0000 0.1321951491
H   H16       1.0  0.96889  0.65027  0.41134  1.0000 0.1191537282
H   H17       1.0  0.72560  0.64796  0.23498  1.0000 0.1191537282
H   H18       1.0  0.85661  0.77467  0.13004  1.0000 0.1321951491
H   H19       1.0  0.01379  0.43061  0.84979  1.0000 0.2874341938
H   H20       1.0  0.70495  0.56133  0.82204  1.0000 0.2990827071
H   H21       1.0  0.14982  0.40460  0.88517  1.0000 0.1076423558
H   H22       1.0  0.30432  0.69318  0.96969  1.0000 0.1395563516
H   H23       1.0  0.18321  0.72313  0.99640  1.0000 0.1191537282
H   H24       1.0  0.08154  0.77878  0.98830  1.0000 0.1191537282
H   H25       1.0  0.91057  0.70687  0.88902  1.0000 0.1191537282
H   H26       1.0  0.94317  0.52413  0.80087  1.0000 0.1191537282
H   H27       1.0  0.81639  0.52851  0.66110  1.0000 0.1321951491
H   H28       1.0  0.55516  0.48166  0.69681  1.0000 0.1191537282
H   H29       1.0  0.18790  0.27072  0.53232  1.0000 0.1191537282
H   H30       1.0  0.98992  0.17108  0.48914  1.0000 0.1395563516
H   H31       1.0  0.98921  0.07635  0.28228  1.0000 0.1321951491
H   H32       1.0  0.18687  0.17401  0.32856  1.0000 0.1076423558
H   H33       1.0  0.77437  0.09849  0.19342  1.0000 0.1321951491
H   H34       1.0  0.65027  0.96889  0.08866  1.0000 0.1191537282
H   H35       1.0  0.64796  0.72560  0.26502  1.0000 0.1191537282
H   H36       1.0  0.77467  0.85661  0.36996  1.0000 0.1321951491
H   H37       1.0  0.56939  0.98621  0.34979  1.0000 0.2874341938
H   H38       1.0  0.43867  0.29505  0.32204  1.0000 0.2990827071
H   H39       1.0  0.59540  0.85018  0.38517  1.0000 0.1076423558
H   H40       1.0  0.30682  0.69568  0.46969  1.0000 0.1395563516
H   H41       1.0  0.27687  0.81679  0.49640  1.0000 0.1191537282
H   H42       1.0  0.22122  0.91846  0.48830  1.0000 0.1191537282
H   H43       1.0  0.29313  0.08943  0.38902  1.0000 0.1191537282
H   H44       1.0  0.47587  0.05683  0.30087  1.0000 0.1191537282
H   H45       1.0  0.47149  0.18361  0.16110  1.0000 0.1321951491
H   H46       1.0  0.51834  0.44484  0.19681  1.0000 0.1191537282
H   H47       1.0  0.72928  0.81210  0.03232  1.0000 0.1191537282
H   H48       1.0  0.82892  0.01008  0.98914  1.0000 0.1395563516
H   H49       1.0  0.92365  0.01079  0.78228  1.0000 0.1321951491
H   H50       1.0  0.82599  0.81313  0.82856  1.0000 0.1076423558
H   H51       1.0  0.90151  0.22563  0.69342  1.0000 0.1321951491
H   H52       1.0  0.03111  0.34973  0.58866  1.0000 0.1191537282
H   H53       1.0  0.27440  0.35204  0.76502  1.0000 0.1191537282
H   H54       1.0  0.14339  0.22533  0.86996  1.0000 0.1321951491
H   H55       1.0  0.98621  0.56939  0.15021  1.0000 0.2874341938
H   H56       1.0  0.29505  0.43867  0.17796  1.0000 0.2990827071
H   H57       1.0  0.85018  0.59540  0.11483  1.0000 0.1076423558
H   H58       1.0  0.69568  0.30682  0.03031  1.0000 0.1395563516
H   H59       1.0  0.81679  0.27687  0.00360  1.0000 0.1191537282
H   H60       1.0  0.91846  0.22122  0.01170  1.0000 0.1191537282
H   H61       1.0  0.08943  0.29313  0.11098  1.0000 0.1191537282
H   H62       1.0  0.05683  0.47587  0.19913  1.0000 0.1191537282
H   H63       1.0  0.18361  0.47149  0.33890  1.0000 0.1321951491
H   H64       1.0  0.44484  0.51834  0.30319  1.0000 0.1191537282
H   H65       1.0  0.81210  0.72928  0.46768  1.0000 0.1191537282
H   H66       1.0  0.01008  0.82892  0.51086  1.0000 0.1395563516
H   H67       1.0  0.01079  0.92365  0.71772  1.0000 0.1321951491
H   H68       1.0  0.81313  0.82599  0.67144  1.0000 0.1076423558
H   H69       1.0  0.22563  0.90151  0.80658  1.0000 0.1321951491
H   H70       1.0  0.34973  0.03111  0.91134  1.0000 0.1191537282
H   H71       1.0  0.35204  0.27440  0.73498  1.0000 0.1191537282
H   H72       1.0  0.22533  0.14339  0.63004  1.0000 0.1321951491
C   C1        1.0  0.46679  0.16421  0.60224  1.0000 0.1632032352
C   C2        1.0  0.62400  0.24740  0.55612  1.0000 -0.0878696831
C   C3        1.0  0.57877  0.13603  0.59294  1.0000 0.0930595523
C   C4        1.0  0.61737  0.07361  0.60094  1.0000 0.0622988748
C   C5        1.0  0.69413  0.11467  0.54453  1.0000 -0.1682750848
C   C6        1.0  0.72717  0.05343  0.54937  1.0000 -0.0986959613
C   C7        1.0  0.68468  0.95132  0.60920  1.0000 -0.1573693869
C   C8        1.0  0.60889  0.90911  0.66696  1.0000 0.0712299677
C   C9        1.0  0.57561  0.97119  0.66138  1.0000 -0.2088483595
C   C10       1.0  0.56242  0.80232  0.73256  1.0000 0.1006659972
C   C11       1.0  0.52694  0.77044  0.81345  1.0000 -0.0986959613
C   C12       1.0  0.50117  0.62689  0.79465  1.0000 0.1632032352
C   C13       1.0  0.30345  0.33789  0.04073  1.0000 0.5381388697
C   C14       1.0  0.23381  0.20823  0.06557  1.0000 -0.050330997
C   C15       1.0  0.23168  0.14802  0.01797  1.0000 -0.0878696831
C   C16       1.0  0.17266  0.02984  0.04378  1.0000 -0.2088483595
C   C17       1.0  0.11558  0.97094  0.11948  1.0000 0.2584963175
C   C18       1.0  0.11541  0.02899  0.16747  1.0000 -0.2307183664
C   C19       1.0  0.17436  0.14740  0.13968  1.0000 -0.0986959613
C   C20       1.0  0.98810  0.78500  0.20883  1.0000 0.2115479144
C   C21       1.0  0.02350  0.74910  0.29230  1.0000 -0.2088483595
C   C22       1.0  0.94556  0.67484  0.35454  1.0000 -0.0986959613
C   C23       1.0  0.83413  0.63621  0.33467  1.0000 -0.0294297137
C   C24       1.0  0.80070  0.67350  0.24986  1.0000 -0.0878696831
C   C25       1.0  0.87882  0.74898  0.18680  1.0000 -0.2088483595
C   C26       1.0  0.75056  0.55584  0.40394  1.0000 0.5346879395
C   C27       1.0  0.16421  0.46679  0.89776  1.0000 0.1632032352
C   C28       1.0  0.24740  0.62400  0.94388  1.0000 -0.0878696831
C   C29       1.0  0.13603  0.57877  0.90706  1.0000 0.0930595523
C   C30       1.0  0.07361  0.61737  0.89906  1.0000 0.0622988748
C   C31       1.0  0.11467  0.69413  0.95547  1.0000 -0.1682750848
C   C32       1.0  0.05343  0.72717  0.95063  1.0000 -0.0986959613
C   C33       1.0  0.95132  0.68468  0.89080  1.0000 -0.1573693869
C   C34       1.0  0.90911  0.60889  0.83304  1.0000 0.0712299677
C   C35       1.0  0.97119  0.57561  0.83862  1.0000 -0.2088483595
C   C36       1.0  0.80232  0.56242  0.76744  1.0000 0.1006659972
C   C37       1.0  0.77044  0.52694  0.68655  1.0000 -0.0986959613
C   C38       1.0  0.62689  0.50117  0.70535  1.0000 0.1632032352
C   C39       1.0  0.33789  0.30345  0.45927  1.0000 0.5381388697
C   C40       1.0  0.20823  0.23381  0.43443  1.0000 -0.050330997
C   C41       1.0  0.14802  0.23168  0.48203  1.0000 -0.0878696831
C   C42       1.0  0.02984  0.17266  0.45622  1.0000 -0.2088483595
C   C43       1.0  0.97094  0.11558  0.38052  1.0000 0.2584963175
C   C44       1.0  0.02899  0.11541  0.33253  1.0000 -0.2307183664
C   C45       1.0  0.14740  0.17436  0.36032  1.0000 -0.0986959613
C   C46       1.0  0.78500  0.98810  0.29117  1.0000 0.2115479144
C   C47       1.0  0.74910  0.02350  0.20770  1.0000 -0.2088483595
C   C48       1.0  0.67484  0.94556  0.14546  1.0000 -0.0986959613
C   C49       1.0  0.63621  0.83413  0.16533  1.0000 -0.0294297137
C   C50       1.0  0.67350  0.80070  0.25014  1.0000 -0.0878696831
C   C51       1.0  0.74898  0.87882  0.31320  1.0000 -0.2088483595
C   C52       1.0  0.55584  0.75056  0.09606  1.0000 0.5346879395
C   C53       1.0  0.53321  0.83579  0.39776  1.0000 0.1632032352
C   C54       1.0  0.37600  0.75260  0.44388  1.0000 -0.0878696831
C   C55       1.0  0.42123  0.86397  0.40706  1.0000 0.0930595523
C   C56       1.0  0.38263  0.92639  0.39906  1.0000 0.0622988748
C   C57       1.0  0.30587  0.88533  0.45547  1.0000 -0.1682750848
C   C58       1.0  0.27283  0.94657  0.45063  1.0000 -0.0986959613
C   C59       1.0  0.31532  0.04868  0.39080  1.0000 -0.1573693869
C   C60       1.0  0.39111  0.09089  0.33304  1.0000 0.0712299677
C   C61       1.0  0.42439  0.02881  0.33862  1.0000 -0.2088483595
C   C62       1.0  0.43758  0.19768  0.26744  1.0000 0.1006659972
C   C63       1.0  0.47306  0.22956  0.18655  1.0000 -0.0986959613
C   C64       1.0  0.49883  0.37311  0.20535  1.0000 0.1632032352
C   C65       1.0  0.69655  0.66211  0.95927  1.0000 0.5381388697
C   C66       1.0  0.76619  0.79177  0.93443  1.0000 -0.050330997
C   C67       1.0  0.76832  0.85198  0.98203  1.0000 -0.0878696831
C   C68       1.0  0.82734  0.97016  0.95622  1.0000 -0.2088483595
C   C69       1.0  0.88442  0.02906  0.88052  1.0000 0.2584963175
C   C70       1.0  0.88459  0.97101  0.83253  1.0000 -0.2307183664
C   C71       1.0  0.82564  0.85260  0.86032  1.0000 -0.0986959613
C   C72       1.0  0.01190  0.21500  0.79117  1.0000 0.2115479144
C   C73       1.0  0.97650  0.25090  0.70770  1.0000 -0.2088483595
C   C74       1.0  0.05444  0.32516  0.64546  1.0000 -0.0986959613
C   C75       1.0  0.16587  0.36379  0.66533  1.0000 -0.0294297137
C   C76       1.0  0.19930  0.32650  0.75014  1.0000 -0.0878696831
C   C77       1.0  0.12118  0.25102  0.81320  1.0000 -0.2088483595
C   C78       1.0  0.24944  0.44416  0.59606  1.0000 0.5346879395
C   C79       1.0  0.83579  0.53321  0.10224  1.0000 0.1632032352
C   C80       1.0  0.75260  0.37600  0.05612  1.0000 -0.0878696831
C   C81       1.0  0.86397  0.42123  0.09294  1.0000 0.0930595523
C   C82       1.0  0.92639  0.38263  0.10094  1.0000 0.0622988748
C   C83       1.0  0.88533  0.30587  0.04453  1.0000 -0.1682750848
C   C84       1.0  0.94657  0.27283  0.04937  1.0000 -0.0986959613
C   C85       1.0  0.04868  0.31532  0.10920  1.0000 -0.1573693869
C   C86       1.0  0.09089  0.39111  0.16696  1.0000 0.0712299677
C   C87       1.0  0.02881  0.42439  0.16138  1.0000 -0.2088483595
C   C88       1.0  0.19768  0.43758  0.23256  1.0000 0.1006659972
C   C89       1.0  0.22956  0.47306  0.31345  1.0000 -0.0986959613
C   C90       1.0  0.37311  0.49883  0.29465  1.0000 0.1632032352
C   C91       1.0  0.66211  0.69655  0.54073  1.0000 0.5381388697
C   C92       1.0  0.79177  0.76619  0.56557  1.0000 -0.050330997
C   C93       1.0  0.85198  0.76832  0.51797  1.0000 -0.0878696831
C   C94       1.0  0.97016  0.82734  0.54378  1.0000 -0.2088483595
C   C95       1.0  0.02906  0.88442  0.61948  1.0000 0.2584963175
C   C96       1.0  0.97101  0.88459  0.66747  1.0000 -0.2307183664
C   C97       1.0  0.85260  0.82564  0.63968  1.0000 -0.0986959613
C   C98       1.0  0.21500  0.01190  0.70883  1.0000 0.2115479144
C   C99       1.0  0.25090  0.97650  0.79230  1.0000 -0.2088483595
C   C100      1.0  0.32516  0.05444  0.85454  1.0000 -0.0986959613
C   C101      1.0  0.36379  0.16587  0.83467  1.0000 -0.0294297137
C   C102      1.0  0.32650  0.19930  0.74986  1.0000 -0.0878696831
C   C103      1.0  0.25102  0.12118  0.68680  1.0000 -0.2088483595
C   C104      1.0  0.44416  0.24944  0.90394  1.0000 0.5346879395
N   N1        1.0  0.55342  0.26420  0.56231  1.0000 -0.2836169568
N   N2        1.0  0.47795  0.08453  0.62298  1.0000 -0.2307183664
N   N3        1.0  0.54573  0.70933  0.72277  1.0000 -0.2307183664
N   N4        1.0  0.48845  0.66051  0.85197  1.0000 -0.3012935785
N   N5        1.0  0.26420  0.55342  0.93769  1.0000 -0.2836169568
N   N6        1.0  0.08453  0.47795  0.87702  1.0000 -0.2307183664
N   N7        1.0  0.70933  0.54573  0.77723  1.0000 -0.2307183664
N   N8        1.0  0.66051  0.48845  0.64803  1.0000 -0.3012935785
N   N9        1.0  0.44658  0.73580  0.43769  1.0000 -0.2836169568
N   N10       1.0  0.52205  0.91547  0.37702  1.0000 -0.2307183664
N   N11       1.0  0.45427  0.29067  0.27723  1.0000 -0.2307183664
N   N12       1.0  0.51155  0.33949  0.14803  1.0000 -0.3012935785
N   N13       1.0  0.73580  0.44658  0.06231  1.0000 -0.2836169568
N   N14       1.0  0.91547  0.52205  0.12298  1.0000 -0.2307183664
N   N15       1.0  0.29067  0.45427  0.22277  1.0000 -0.2307183664
N   N16       1.0  0.33949  0.51155  0.35197  1.0000 -0.3012935785
O   O1        1.0  0.36623  0.39415  0.97837  1.0000 -0.5583424238
O   O2        1.0  0.29941  0.38867  0.08279  1.0000 -0.5520080296
O   O3        1.0  0.78287  0.52341  0.47971  1.0000 -0.5583424238
O   O4        1.0  0.65120  0.52792  0.38177  1.0000 -0.5520080296
O   O5        1.0  0.06445  0.85449  0.14380  1.0000 -0.2307183664
O   O6        1.0  0.39415  0.36623  0.52163  1.0000 -0.5583424238
O   O7        1.0  0.38867  0.29941  0.41721  1.0000 -0.5520080296
O   O8        1.0  0.52341  0.78287  0.02029  1.0000 -0.5583424238
O   O9        1.0  0.52792  0.65120  0.11823  1.0000 -0.5520080296
O   O10       1.0  0.85449  0.06445  0.35620  1.0000 -0.2307183664
O   O11       1.0  0.63377  0.60585  0.02163  1.0000 -0.5583424238
O   O12       1.0  0.70059  0.61133  0.91721  1.0000 -0.5520080296
O   O13       1.0  0.21713  0.47659  0.52029  1.0000 -0.5583424238
O   O14       1.0  0.34880  0.47208  0.61823  1.0000 -0.5520080296
O   O15       1.0  0.93555  0.14551  0.85620  1.0000 -0.2307183664
O   O16       1.0  0.60585  0.63377  0.47837  1.0000 -0.5583424238
O   O17       1.0  0.61133  0.70059  0.58279  1.0000 -0.5520080296
O   O18       1.0  0.47659  0.21713  0.97971  1.0000 -0.5583424238
O   O19       1.0  0.47208  0.34880  0.88177  1.0000 -0.5520080296
O   O20       1.0  0.14551  0.93555  0.64380  1.0000 -0.2307183664
