# DDEC6 charges by PACMAN v1.1 (https://github.com/mtap-research/PACMAN-charge/)
data_2018[Bi][nan]3[FSR]2
_chemical_formula_sum              "Bi2 H8 C24 S4 O22"
_cell_length_a       5.6597
_cell_length_b       7.5223
_cell_length_c       19.891
_cell_angle_alpha    89.08
_cell_angle_beta     88.69
_cell_angle_gamma    73.81

_symmetry_space_group_name_H-M    "P 1"
_symmetry_Int_Tables_number       1

loop_
  _symmetry_equiv_pos_as_xyz
  'x, y, z'

loop_
  _atom_site_type_symbol
  _atom_site_label
  _atom_site_symmetry_multiplicity
  _atom_site_fract_x
  _atom_site_fract_y
  _atom_site_fract_z
  _atom_site_occupancy
  _atom_site_charge
Bi  Bi1       1.0  0.42109  0.52498  0.21076  1.0000 1.6312756697
Bi  Bi2       1.0  0.57891  0.47502  0.78924  1.0000 1.6312756697
H   H1        1.0  0.65520  0.70960  0.57970  1.0000 0.1402227106
H   H2        1.0  0.56150  0.68220  0.38050  1.0000 0.1402227106
H   H3        1.0  0.96240  0.94130  0.87050  1.0000 0.1462364505
H   H4        1.0  0.70080  0.65770  0.01390  1.0000 0.1462364505
H   H5        1.0  0.34480  0.29040  0.42030  1.0000 0.1402227106
H   H6        1.0  0.43850  0.31780  0.61950  1.0000 0.1402227106
H   H7        1.0  0.03760  0.05870  0.12950  1.0000 0.1462364505
H   H8        1.0  0.29920  0.34230  0.98610  1.0000 0.1462364505
C   C1        1.0  0.71580  0.66210  0.53790  1.0000 -0.0623952656
C   C2        1.0  0.57510  0.71500  0.48230  1.0000 0.0166755999
C   C3        1.0  0.66040  0.64610  0.41780  1.0000 -0.0623952656
C   C4        1.0  0.89030  0.52560  0.41110  1.0000 -0.0623952656
C   C5        1.0  0.04610  0.46500  0.46750  1.0000 0.0773421704
C   C6        1.0  0.73090  0.68260  0.88160  1.0000 0.5351082842
C   C7        1.0  0.93660  0.91820  0.91580  1.0000 -0.1231957887
C   C8        1.0  0.82010  0.78610  0.93390  1.0000 0.0124837785
C   C9        1.0  0.78100  0.74640  0.00220  1.0000 -0.1070130159
C   C10       1.0  0.86270  0.84010  0.05120  1.0000 -0.1231957887
C   C11       1.0  0.98250  0.98070  0.03450  1.0000 0.0773421704
C   C12       1.0  0.32230  0.84300  0.48930  1.0000 0.524273024
C   C13       1.0  0.28420  0.33790  0.46210  1.0000 -0.0623952656
C   C14       1.0  0.42490  0.28500  0.51770  1.0000 0.0166755999
C   C15       1.0  0.33960  0.35390  0.58220  1.0000 -0.0623952656
C   C16       1.0  0.10970  0.47440  0.58890  1.0000 -0.0623952656
C   C17       1.0  0.95390  0.53500  0.53250  1.0000 0.0773421704
C   C18       1.0  0.26910  0.31740  0.11840  1.0000 0.5344196717
C   C19       1.0  0.06340  0.08180  0.08420  1.0000 -0.1231957887
C   C20       1.0  0.17990  0.21390  0.06610  1.0000 0.0124837785
C   C21       1.0  0.21900  0.25360  0.99780  1.0000 -0.1070130159
C   C22       1.0  0.13730  0.15990  0.94880  1.0000 -0.1231957887
C   C23       1.0  0.01750  0.01930  0.96550  1.0000 0.0773421704
C   C24       1.0  0.67770  0.15700  0.51070  1.0000 0.524273024
S   S1        1.0  0.98620  0.44303  0.32869  1.0000 1.1726008217
S   S2        1.0  0.81330  0.78464  0.13611  1.0000 1.2060346762
S   S3        1.0  0.01380  0.55697  0.67131  1.0000 1.1726008217
S   S4        1.0  0.18670  0.21536  0.86389  1.0000 1.2060346762
O   O1        1.0  0.67950  0.23520  0.23230  1.0000 -0.2406874885
O   O2        1.0  0.79340  0.54480  0.28463  1.0000 -0.6007883539
O   O3        1.0  0.01800  0.24590  0.32950  1.0000 -0.405118986
O   O4        1.0  0.21980  0.49100  0.31540  1.0000 -0.5866138776
O   O5        1.0  0.19100  0.88270  0.43850  1.0000 -0.3849083622
O   O6        1.0  0.25360  0.90490  0.54830  1.0000 -0.3921496113
O   O7        1.0  0.05390  0.74460  0.16790  1.0000 -0.6071710428
O   O8        1.0  0.71660  0.62410  0.13400  1.0000 -0.6007883539
O   O9        1.0  0.63670  0.94550  0.16540  1.0000 -0.5060289343
O   O10       1.0  0.79630  0.68690  0.82007  1.0000 -0.4669849118
O   O11       1.0  0.58720  0.58650  0.89830  1.0000 -0.4938798984
O   O12       1.0  0.32050  0.76480  0.76770  1.0000 -0.2406874885
O   O13       1.0  0.20660  0.45520  0.71537  1.0000 -0.6007883539
O   O14       1.0  0.98200  0.75410  0.67050  1.0000 -0.405118986
O   O15       1.0  0.78020  0.50900  0.68460  1.0000 -0.5866138776
O   O16       1.0  0.80900  0.11730  0.56150  1.0000 -0.3849083622
O   O17       1.0  0.74640  0.09510  0.45170  1.0000 -0.3921496113
O   O18       1.0  0.94610  0.25540  0.83210  1.0000 -0.6071710428
O   O19       1.0  0.28340  0.37590  0.86600  1.0000 -0.6007883539
O   O20       1.0  0.36330  0.05450  0.83460  1.0000 -0.5060289343
O   O21       1.0  0.20370  0.31310  0.17993  1.0000 -0.4669849118
O   O22       1.0  0.41280  0.41350  0.10170  1.0000 -0.4938798984
