# DDEC6 charges by PACMAN v1.1 (https://github.com/mtap-research/PACMAN-charge/)
data_2018[Zn][flu]3[FSR]1
_chemical_formula_sum              "Zn8 H44 C72 N12 O28"
_cell_length_a       11.1435
_cell_length_b       11.1435
_cell_length_c       21.01
_cell_angle_alpha    68.8222
_cell_angle_beta     111.178
_cell_angle_gamma    116.093

_symmetry_space_group_name_H-M    "P 1"
_symmetry_Int_Tables_number       1

loop_
  _symmetry_equiv_pos_as_xyz
  'x, y, z'

loop_
  _atom_site_type_symbol
  _atom_site_label
  _atom_site_symmetry_multiplicity
  _atom_site_fract_x
  _atom_site_fract_y
  _atom_site_fract_z
  _atom_site_occupancy
  _atom_site_charge
Zn  Zn1       1.0  0.94730  0.94730  0.75000  1.0000 1.0127771486
Zn  Zn2       1.0  0.05270  0.05270  0.25000  1.0000 1.0127771486
Zn  Zn3       1.0  0.87970  0.82150  0.62210  1.0000 0.8698951591
Zn  Zn4       1.0  0.82150  0.87970  0.87790  1.0000 0.8698951591
Zn  Zn5       1.0  0.12030  0.17850  0.37790  1.0000 0.8698951591
Zn  Zn6       1.0  0.17850  0.12030  0.12210  1.0000 0.8698951591
Zn  Zn7       1.0  0.68650  0.68650  0.75000  1.0000 0.9768853773
Zn  Zn8       1.0  0.31350  0.31350  0.25000  1.0000 0.9768853773
H   H1        1.0  0.90680  0.69520  0.74600  1.0000 0.4094388772
H   H2        1.0  0.69520  0.90680  0.75400  1.0000 0.4094388772
H   H3        1.0  0.09320  0.30480  0.25400  1.0000 0.4094388772
H   H4        1.0  0.30480  0.09320  0.24600  1.0000 0.4094388772
H   H5        1.0  0.80230  0.26190  0.61340  1.0000 0.1488522299
H   H6        1.0  0.26190  0.80230  0.88660  1.0000 0.1488522299
H   H7        1.0  0.19770  0.73810  0.38660  1.0000 0.1488522299
H   H8        1.0  0.73810  0.19770  0.11340  1.0000 0.1488522299
H   H9        1.0  0.64210  0.06430  0.45800  1.0000 0.1290934373
H   H10       1.0  0.06430  0.64210  0.04200  1.0000 0.1290934373
H   H11       1.0  0.35790  0.93570  0.54200  1.0000 0.1290934373
H   H12       1.0  0.93570  0.35790  0.95800  1.0000 0.1290934373
H   H13       1.0  0.60840  0.42940  0.42270  1.0000 0.1350279738
H   H14       1.0  0.42940  0.60840  0.07730  1.0000 0.1350279738
H   H15       1.0  0.39160  0.57060  0.57730  1.0000 0.1350279738
H   H16       1.0  0.57060  0.39160  0.92270  1.0000 0.1350279738
H   H17       1.0  0.52840  0.39460  0.69020  1.0000 0.1350279738
H   H18       1.0  0.39460  0.52840  0.80980  1.0000 0.1350279738
H   H19       1.0  0.47160  0.60540  0.30980  1.0000 0.1350279738
H   H20       1.0  0.60540  0.47160  0.19020  1.0000 0.1350279738
H   H21       1.0  0.32810  0.22570  0.71870  1.0000 0.1290934373
H   H22       1.0  0.22570  0.32810  0.78130  1.0000 0.1290934373
H   H23       1.0  0.67190  0.77430  0.28130  1.0000 0.1290934373
H   H24       1.0  0.77430  0.67190  0.21870  1.0000 0.1290934373
H   H25       1.0  0.25270  0.07970  0.55410  1.0000 0.1290934373
H   H26       1.0  0.07970  0.25270  0.94590  1.0000 0.1290934373
H   H27       1.0  0.74730  0.92030  0.44590  1.0000 0.1290934373
H   H28       1.0  0.92030  0.74730  0.05410  1.0000 0.1290934373
H   H29       1.0  0.44970  0.25110  0.52410  1.0000 0.1210791309
H   H30       1.0  0.25110  0.44970  0.97590  1.0000 0.1210791309
H   H31       1.0  0.55030  0.74890  0.47590  1.0000 0.1210791309
H   H32       1.0  0.74890  0.55030  0.02410  1.0000 0.1210791309
H   H33       1.0  0.99060  0.59140  0.53660  1.0000 0.1639190976
H   H34       1.0  0.59140  0.99060  0.96340  1.0000 0.1639190976
H   H35       1.0  0.00940  0.40860  0.46340  1.0000 0.1639190976
H   H36       1.0  0.40860  0.00940  0.03660  1.0000 0.1639190976
H   H37       1.0  0.90130  0.65310  0.46620  1.0000 0.1639190976
H   H38       1.0  0.65310  0.90130  0.03380  1.0000 0.1639190976
H   H39       1.0  0.09870  0.34690  0.53380  1.0000 0.1639190976
H   H40       1.0  0.34690  0.09870  0.96620  1.0000 0.1639190976
H   H41       1.0  0.99360  0.74080  0.52190  1.0000 0.1773017746
H   H42       1.0  0.74080  0.99360  0.97810  1.0000 0.1773017746
H   H43       1.0  0.00640  0.25920  0.47810  1.0000 0.1773017746
H   H44       1.0  0.25920  0.00640  0.02190  1.0000 0.1773017746
C   C1        1.0  0.63350  0.45710  0.58700  1.0000 0.2242834036
C   C2        1.0  0.45710  0.63350  0.91300  1.0000 0.2242834036
C   C3        1.0  0.36650  0.54290  0.41300  1.0000 0.2242834036
C   C4        1.0  0.54290  0.36650  0.08700  1.0000 0.2242834036
C   C5        1.0  0.82040  0.59360  0.54940  1.0000 0.3610278655
C   C6        1.0  0.59360  0.82040  0.95060  1.0000 0.3610278655
C   C7        1.0  0.17960  0.40640  0.45060  1.0000 0.3610278655
C   C8        1.0  0.40640  0.17960  0.04940  1.0000 0.3610278655
C   C9        1.0  0.70670  0.35950  0.52170  1.0000 0.1488522299
C   C10       1.0  0.35950  0.70670  0.97830  1.0000 0.1488522299
C   C11       1.0  0.29330  0.64050  0.47830  1.0000 0.1488522299
C   C12       1.0  0.64050  0.29330  0.02170  1.0000 0.1488522299
C   C13       1.0  0.75510  0.25730  0.56720  1.0000 -0.1891148474
C   C14       1.0  0.25730  0.75510  0.93280  1.0000 -0.1891148474
C   C15       1.0  0.24490  0.74270  0.43280  1.0000 -0.1891148474
C   C16       1.0  0.74270  0.24490  0.06720  1.0000 -0.1891148474
C   C17       1.0  0.73220  0.14640  0.54280  1.0000 0.0097464135
C   C18       1.0  0.14640  0.73220  0.95720  1.0000 0.0097464135
C   C19       1.0  0.26780  0.85360  0.45720  1.0000 0.0097464135
C   C20       1.0  0.85360  0.26780  0.04280  1.0000 0.0097464135
C   C21       1.0  0.65940  0.13960  0.47390  1.0000 -0.1198045275
C   C22       1.0  0.13960  0.65940  0.02610  1.0000 -0.1198045275
C   C23       1.0  0.34060  0.86040  0.52610  1.0000 -0.1198045275
C   C24       1.0  0.86040  0.34060  0.97390  1.0000 -0.1198045275
C   C25       1.0  0.61240  0.24520  0.42860  1.0000 0.0097464135
C   C26       1.0  0.24520  0.61240  0.07140  1.0000 0.0097464135
C   C27       1.0  0.38760  0.75480  0.57140  1.0000 0.0097464135
C   C28       1.0  0.75480  0.38760  0.92860  1.0000 0.0097464135
C   C29       1.0  0.63760  0.35720  0.45270  1.0000 -0.1891148474
C   C30       1.0  0.35720  0.63760  0.04730  1.0000 -0.1891148474
C   C31       1.0  0.36240  0.64280  0.54730  1.0000 -0.1891148474
C   C32       1.0  0.64280  0.36240  0.95270  1.0000 -0.1891148474
C   C33       1.0  0.78700  0.03500  0.59250  1.0000 0.5836773504
C   C34       1.0  0.03500  0.78700  0.90750  1.0000 0.5836773504
C   C35       1.0  0.21300  0.96500  0.40750  1.0000 0.5836773504
C   C36       1.0  0.96500  0.21300  0.09250  1.0000 0.5836773504
C   C37       1.0  0.52250  0.23250  0.35570  1.0000 0.5642036785
C   C38       1.0  0.23250  0.52250  0.14430  1.0000 0.5642036785
C   C39       1.0  0.47750  0.76750  0.64430  1.0000 0.5642036785
C   C40       1.0  0.76750  0.47750  0.85570  1.0000 0.5642036785
C   C41       1.0  0.50900  0.34060  0.60390  1.0000 0.020833765
C   C42       1.0  0.34060  0.50900  0.89610  1.0000 0.020833765
C   C43       1.0  0.49100  0.65940  0.39610  1.0000 0.020833765
C   C44       1.0  0.65940  0.49100  0.10390  1.0000 0.020833765
C   C45       1.0  0.47250  0.33170  0.66260  1.0000 -0.1097793143
C   C46       1.0  0.33170  0.47250  0.83740  1.0000 -0.1097793143
C   C47       1.0  0.52750  0.66830  0.33740  1.0000 -0.1097793143
C   C48       1.0  0.66830  0.52750  0.16260  1.0000 -0.1097793143
C   C49       1.0  0.35340  0.22940  0.68020  1.0000 -0.0952636163
C   C50       1.0  0.22940  0.35340  0.81980  1.0000 -0.0952636163
C   C51       1.0  0.64660  0.77060  0.31980  1.0000 -0.0952636163
C   C52       1.0  0.77060  0.64660  0.18020  1.0000 -0.0952636163
C   C53       1.0  0.27160  0.13300  0.64060  1.0000 -0.0202611137
C   C54       1.0  0.13300  0.27160  0.85940  1.0000 -0.0202611137
C   C55       1.0  0.72840  0.86700  0.35940  1.0000 -0.0202611137
C   C56       1.0  0.86700  0.72840  0.14060  1.0000 -0.0202611137
C   C57       1.0  0.30830  0.14290  0.58150  1.0000 -0.0876298148
C   C58       1.0  0.14290  0.30830  0.91850  1.0000 -0.0876298148
C   C59       1.0  0.69170  0.85710  0.41850  1.0000 -0.0876298148
C   C60       1.0  0.85710  0.69170  0.08150  1.0000 -0.0876298148
C   C61       1.0  0.42600  0.24560  0.56350  1.0000 -0.1198045275
C   C62       1.0  0.24560  0.42600  0.93650  1.0000 -0.1198045275
C   C63       1.0  0.57400  0.75440  0.43650  1.0000 -0.1198045275
C   C64       1.0  0.75440  0.57400  0.06350  1.0000 -0.1198045275
C   C65       1.0  0.14160  0.02320  0.65890  1.0000 0.5889695872
C   C66       1.0  0.02320  0.14160  0.84110  1.0000 0.5889695872
C   C67       1.0  0.85840  0.97680  0.34110  1.0000 0.5889695872
C   C68       1.0  0.97680  0.85840  0.15890  1.0000 0.5889695872
C   C69       1.0  0.93680  0.64960  0.51550  1.0000 -0.5283596328
C   C70       1.0  0.64960  0.93680  0.98450  1.0000 -0.5283596328
C   C71       1.0  0.06320  0.35040  0.48450  1.0000 -0.5283596328
C   C72       1.0  0.35040  0.06320  0.01550  1.0000 -0.5283596328
N   N1        1.0  0.71840  0.46780  0.54920  1.0000 -0.1198045275
N   N2        1.0  0.46780  0.71840  0.95080  1.0000 -0.1198045275
N   N3        1.0  0.28160  0.53220  0.45080  1.0000 -0.1198045275
N   N4        1.0  0.53220  0.28160  0.04920  1.0000 -0.1198045275
N   N5        1.0  0.68040  0.57020  0.60820  1.0000 -0.2382867943
N   N6        1.0  0.57020  0.68040  0.89180  1.0000 -0.2382867943
N   N7        1.0  0.31960  0.42980  0.39180  1.0000 -0.2382867943
N   N8        1.0  0.42980  0.31960  0.10820  1.0000 -0.2382867943
N   N9        1.0  0.79820  0.65580  0.58440  1.0000 -0.2823041242
N   N10       1.0  0.65580  0.79820  0.91560  1.0000 -0.2823041242
N   N11       1.0  0.20180  0.34420  0.41560  1.0000 -0.2823041242
N   N12       1.0  0.34420  0.20180  0.08440  1.0000 -0.2823041242
O   O1        1.0  0.85280  0.05000  0.65250  1.0000 -0.5408353817
O   O2        1.0  0.05000  0.85280  0.84750  1.0000 -0.5408353817
O   O3        1.0  0.14720  0.95000  0.34750  1.0000 -0.5408353817
O   O4        1.0  0.95000  0.14720  0.15250  1.0000 -0.5408353817
O   O5        1.0  0.76310  0.93490  0.56860  1.0000 -0.5505769264
O   O6        1.0  0.93490  0.76310  0.93140  1.0000 -0.5505769264
O   O7        1.0  0.23690  0.06510  0.43140  1.0000 -0.5505769264
O   O8        1.0  0.06510  0.23690  0.06860  1.0000 -0.5505769264
O   O9        1.0  0.48290  0.33310  0.31990  1.0000 -0.5672997843
O   O10       1.0  0.33310  0.48290  0.18010  1.0000 -0.5672997843
O   O11       1.0  0.51710  0.66690  0.68010  1.0000 -0.5672997843
O   O12       1.0  0.66690  0.51710  0.81990  1.0000 -0.5672997843
O   O13       1.0  0.49000  0.12760  0.33670  1.0000 -0.5283596328
O   O14       1.0  0.12760  0.49000  0.16330  1.0000 -0.5283596328
O   O15       1.0  0.51000  0.87240  0.66330  1.0000 -0.5283596328
O   O16       1.0  0.87240  0.51000  0.83670  1.0000 -0.5283596328
O   O17       1.0  0.12000  0.01420  0.71480  1.0000 -0.5283596328
O   O18       1.0  0.01420  0.12000  0.78520  1.0000 -0.5283596328
O   O19       1.0  0.88000  0.98580  0.28520  1.0000 -0.5283596328
O   O20       1.0  0.98580  0.88000  0.21480  1.0000 -0.5283596328
O   O21       1.0  0.06390  0.94970  0.61510  1.0000 -0.5505769264
O   O22       1.0  0.94970  0.06390  0.88490  1.0000 -0.5505769264
O   O23       1.0  0.93610  0.05030  0.38490  1.0000 -0.5505769264
O   O24       1.0  0.05030  0.93610  0.11510  1.0000 -0.5505769264
O   O25       1.0  0.85980  0.75840  0.71850  1.0000 -0.8523776244
O   O26       1.0  0.75840  0.85980  0.78150  1.0000 -0.8523776244
O   O27       1.0  0.14020  0.24160  0.28150  1.0000 -0.8523776244
O   O28       1.0  0.24160  0.14020  0.21850  1.0000 -0.8523776244
