# DDEC6 charges by PACMAN v1.1 (https://github.com/mtap-research/PACMAN-charge/)
data_2018[Zn][nan]2[FSR]2
_chemical_formula_sum              "Zn4 H72 C104 N16 O28"
_cell_length_a       13.3643
_cell_length_b       13.3643
_cell_length_c       16.8844
_cell_angle_alpha    66.7673
_cell_angle_beta     113.233
_cell_angle_gamma    105.818

_symmetry_space_group_name_H-M    "P 1"
_symmetry_Int_Tables_number       1

loop_
  _symmetry_equiv_pos_as_xyz
  'x, y, z'

loop_
  _atom_site_type_symbol
  _atom_site_label
  _atom_site_symmetry_multiplicity
  _atom_site_fract_x
  _atom_site_fract_y
  _atom_site_fract_z
  _atom_site_occupancy
  _atom_site_charge
Zn  Zn1       1.0  0.61067  0.19755  0.04440  1.0000 0.7271828265
Zn  Zn2       1.0  0.19755  0.61067  0.45560  1.0000 0.7271828265
Zn  Zn3       1.0  0.38933  0.80245  0.95560  1.0000 0.7271828265
Zn  Zn4       1.0  0.80245  0.38933  0.54440  1.0000 0.7271828265
H   H1        1.0  0.50230  0.48190  0.12790  1.0000 0.3442024798
H   H2        1.0  0.02430  0.27710  0.12960  1.0000 0.2807717235
H   H3        1.0  0.37900  0.08460  0.10720  1.0000 0.2880059169
H   H4        1.0  0.53470  0.84210  0.18900  1.0000 0.1099872493
H   H5        1.0  0.54700  0.66160  0.28210  1.0000 0.1099872493
H   H6        1.0  0.84490  0.75530  0.43800  1.0000 0.1099872493
H   H7        1.0  0.83320  0.93360  0.34300  1.0000 0.1388636888
H   H8        1.0  0.84130  0.23410  0.08860  1.0000 0.1208681029
H   H9        1.0  0.65750  0.42770  0.07290  1.0000 0.1099872493
H   H10       1.0  0.80740  0.55740  0.09930  1.0000 0.1208681029
H   H11       1.0  0.98150  0.52510  0.12510  1.0000 0.1388636888
H   H12       1.0  0.33040  0.47880  0.13490  1.0000 0.1315830895
H   H13       1.0  0.44140  0.22000  0.14910  1.0000 0.1315830895
H   H14       1.0  0.12880  0.19840  0.12870  1.0000 0.1208681029
H   H15       1.0  0.24540  0.84460  0.21900  1.0000 0.1315830895
H   H16       1.0  0.23960  0.67380  0.21120  1.0000 0.1388636888
H   H17       1.0  0.30180  0.66100  0.10770  1.0000 0.1099872493
H   H18       1.0  0.37570  0.98070  0.01680  1.0000 0.1315830895
H   H19       1.0  0.48190  0.50230  0.37210  1.0000 0.3442024798
H   H20       1.0  0.27710  0.02430  0.37040  1.0000 0.2807717235
H   H21       1.0  0.08460  0.37900  0.39280  1.0000 0.2880059169
H   H22       1.0  0.84210  0.53470  0.31100  1.0000 0.1099872493
H   H23       1.0  0.66160  0.54700  0.21790  1.0000 0.1099872493
H   H24       1.0  0.75530  0.84490  0.06200  1.0000 0.1099872493
H   H25       1.0  0.93360  0.83320  0.15700  1.0000 0.1388636888
H   H26       1.0  0.23410  0.84130  0.41140  1.0000 0.1208681029
H   H27       1.0  0.42770  0.65750  0.42710  1.0000 0.1099872493
H   H28       1.0  0.55740  0.80740  0.40070  1.0000 0.1208681029
H   H29       1.0  0.52510  0.98150  0.37490  1.0000 0.1388636888
H   H30       1.0  0.47880  0.33040  0.36510  1.0000 0.1315830895
H   H31       1.0  0.22000  0.44140  0.35090  1.0000 0.1315830895
H   H32       1.0  0.19840  0.12880  0.37130  1.0000 0.1208681029
H   H33       1.0  0.84460  0.24540  0.28100  1.0000 0.1315830895
H   H34       1.0  0.67380  0.23960  0.28880  1.0000 0.1388636888
H   H35       1.0  0.66100  0.30180  0.39230  1.0000 0.1099872493
H   H36       1.0  0.98070  0.37570  0.48320  1.0000 0.1315830895
H   H37       1.0  0.49770  0.51810  0.87210  1.0000 0.3442024798
H   H38       1.0  0.97570  0.72290  0.87040  1.0000 0.2807717235
H   H39       1.0  0.62100  0.91540  0.89280  1.0000 0.2880059169
H   H40       1.0  0.46530  0.15790  0.81100  1.0000 0.1099872493
H   H41       1.0  0.45300  0.33840  0.71790  1.0000 0.1099872493
H   H42       1.0  0.15510  0.24470  0.56200  1.0000 0.1099872493
H   H43       1.0  0.16680  0.06640  0.65700  1.0000 0.1388636888
H   H44       1.0  0.15870  0.76590  0.91140  1.0000 0.1208681029
H   H45       1.0  0.34250  0.57230  0.92710  1.0000 0.1099872493
H   H46       1.0  0.19260  0.44260  0.90070  1.0000 0.1208681029
H   H47       1.0  0.01850  0.47490  0.87490  1.0000 0.1388636888
H   H48       1.0  0.66960  0.52120  0.86510  1.0000 0.1315830895
H   H49       1.0  0.55860  0.78000  0.85090  1.0000 0.1315830895
H   H50       1.0  0.87120  0.80160  0.87130  1.0000 0.1208681029
H   H51       1.0  0.75460  0.15540  0.78100  1.0000 0.1315830895
H   H52       1.0  0.76040  0.32620  0.78880  1.0000 0.1388636888
H   H53       1.0  0.69820  0.33900  0.89230  1.0000 0.1099872493
H   H54       1.0  0.62430  0.01930  0.98320  1.0000 0.1315830895
H   H55       1.0  0.51810  0.49770  0.62790  1.0000 0.3442024798
H   H56       1.0  0.72290  0.97570  0.62960  1.0000 0.2807717235
H   H57       1.0  0.91540  0.62100  0.60720  1.0000 0.2880059169
H   H58       1.0  0.15790  0.46530  0.68900  1.0000 0.1099872493
H   H59       1.0  0.33840  0.45300  0.78210  1.0000 0.1099872493
H   H60       1.0  0.24470  0.15510  0.93800  1.0000 0.1099872493
H   H61       1.0  0.06640  0.16680  0.84300  1.0000 0.1388636888
H   H62       1.0  0.76590  0.15870  0.58860  1.0000 0.1208681029
H   H63       1.0  0.57230  0.34250  0.57290  1.0000 0.1099872493
H   H64       1.0  0.44260  0.19260  0.59930  1.0000 0.1208681029
H   H65       1.0  0.47490  0.01850  0.62510  1.0000 0.1388636888
H   H66       1.0  0.52120  0.66960  0.63490  1.0000 0.1315830895
H   H67       1.0  0.78000  0.55860  0.64910  1.0000 0.1315830895
H   H68       1.0  0.80160  0.87120  0.62870  1.0000 0.1208681029
H   H69       1.0  0.15540  0.75460  0.71900  1.0000 0.1315830895
H   H70       1.0  0.32620  0.76040  0.71120  1.0000 0.1388636888
H   H71       1.0  0.33900  0.69820  0.60770  1.0000 0.1099872493
H   H72       1.0  0.01930  0.62430  0.51680  1.0000 0.1315830895
C   C1        1.0  0.67910  0.02170  0.19180  1.0000 0.5304838629
C   C2        1.0  0.68291  0.90609  0.25570  1.0000 -0.0138214943
C   C3        1.0  0.59779  0.82465  0.23870  1.0000 -0.1190786757
C   C4        1.0  0.60490  0.71634  0.29500  1.0000 -0.1190786757
C   C5        1.0  0.69745  0.68905  0.37011  1.0000 -0.0281213452
C   C6        1.0  0.78230  0.77190  0.38750  1.0000 -0.1023544534
C   C7        1.0  0.77500  0.87880  0.33070  1.0000 -0.1023544534
C   C8        1.0  0.70625  0.57109  0.42763  1.0000 0.5554539175
C   C9        1.0  0.83497  0.30015  0.09140  1.0000 -0.0183026539
C   C10       1.0  0.72619  0.41381  0.08170  1.0000 0.0485806535
C   C11       1.0  0.81635  0.49145  0.09820  1.0000 -0.1190786757
C   C12       1.0  0.92019  0.47321  0.11300  1.0000 -0.125524865
C   C13       1.0  0.92965  0.37413  0.10920  1.0000 0.1917452575
C   C14       1.0  0.12670  0.40382  0.12330  1.0000 0.4569620302
C   C15       1.0  0.21421  0.34615  0.13077  1.0000 -0.0183026539
C   C16       1.0  0.31755  0.40659  0.13540  1.0000 -0.2388978875
C   C17       1.0  0.40219  0.35993  0.14100  1.0000 0.3041776032
C   C18       1.0  0.38435  0.25181  0.14390  1.0000 -0.2388978875
C   C19       1.0  0.28083  0.19073  0.13910  1.0000 -0.0183026539
C   C20       1.0  0.19581  0.23787  0.13220  1.0000 -0.1862529269
C   C21       1.0  0.25482  0.07410  0.14160  1.0000 0.4548015208
C   C22       1.0  0.31315  0.93161  0.11878  1.0000 0.1972957165
C   C23       1.0  0.27072  0.83848  0.17740  1.0000 -0.1190786757
C   C24       1.0  0.26710  0.73730  0.17240  1.0000 -0.1118058651
C   C25       1.0  0.30422  0.73018  0.11000  1.0000 0.0485806535
C   C26       1.0  0.34819  0.91861  0.05667  1.0000 -0.0281213452
C   C27       1.0  0.02170  0.67910  0.30820  1.0000 0.5304838629
C   C28       1.0  0.90609  0.68291  0.24430  1.0000 -0.0138214943
C   C29       1.0  0.82465  0.59779  0.26130  1.0000 -0.1190786757
C   C30       1.0  0.71634  0.60490  0.20500  1.0000 -0.1190786757
C   C31       1.0  0.68905  0.69745  0.12989  1.0000 -0.0281213452
C   C32       1.0  0.77190  0.78230  0.11250  1.0000 -0.1023544534
C   C33       1.0  0.87880  0.77500  0.16930  1.0000 -0.1023544534
C   C34       1.0  0.57109  0.70625  0.07237  1.0000 0.5554539175
C   C35       1.0  0.30015  0.83497  0.40860  1.0000 -0.0183026539
C   C36       1.0  0.41381  0.72619  0.41830  1.0000 0.0485806535
C   C37       1.0  0.49145  0.81635  0.40180  1.0000 -0.1190786757
C   C38       1.0  0.47321  0.92019  0.38700  1.0000 -0.125524865
C   C39       1.0  0.37413  0.92965  0.39080  1.0000 0.1917452575
C   C40       1.0  0.40382  0.12670  0.37670  1.0000 0.4569620302
C   C41       1.0  0.34615  0.21421  0.36923  1.0000 -0.0183026539
C   C42       1.0  0.40659  0.31755  0.36460  1.0000 -0.2388978875
C   C43       1.0  0.35993  0.40219  0.35900  1.0000 0.3041776032
C   C44       1.0  0.25181  0.38435  0.35610  1.0000 -0.2388978875
C   C45       1.0  0.19073  0.28083  0.36090  1.0000 -0.0183026539
C   C46       1.0  0.23787  0.19581  0.36780  1.0000 -0.1862529269
C   C47       1.0  0.07410  0.25482  0.35840  1.0000 0.4569620302
C   C48       1.0  0.93161  0.31315  0.38122  1.0000 0.1972957165
C   C49       1.0  0.83848  0.27072  0.32260  1.0000 -0.1190786757
C   C50       1.0  0.73730  0.26710  0.32760  1.0000 -0.1118058651
C   C51       1.0  0.73018  0.30422  0.39000  1.0000 0.0485806535
C   C52       1.0  0.91861  0.34819  0.44333  1.0000 -0.0281213452
C   C53       1.0  0.32090  0.97830  0.80820  1.0000 0.5304838629
C   C54       1.0  0.31709  0.09391  0.74430  1.0000 -0.0138214943
C   C55       1.0  0.40221  0.17535  0.76130  1.0000 -0.1190786757
C   C56       1.0  0.39510  0.28366  0.70500  1.0000 -0.1190786757
C   C57       1.0  0.30255  0.31095  0.62989  1.0000 -0.0281213452
C   C58       1.0  0.21770  0.22810  0.61250  1.0000 -0.1023544534
C   C59       1.0  0.22500  0.12120  0.66930  1.0000 -0.1023544534
C   C60       1.0  0.29375  0.42891  0.57237  1.0000 0.5554539175
C   C61       1.0  0.16503  0.69985  0.90860  1.0000 -0.0183026539
C   C62       1.0  0.27381  0.58619  0.91830  1.0000 0.0485806535
C   C63       1.0  0.18365  0.50855  0.90180  1.0000 -0.1190786757
C   C64       1.0  0.07981  0.52679  0.88700  1.0000 -0.125524865
C   C65       1.0  0.07035  0.62587  0.89080  1.0000 0.1917452575
C   C66       1.0  0.87330  0.59618  0.87670  1.0000 0.4569620302
C   C67       1.0  0.78579  0.65385  0.86923  1.0000 -0.0183026539
C   C68       1.0  0.68245  0.59341  0.86460  1.0000 -0.2388978875
C   C69       1.0  0.59781  0.64007  0.85900  1.0000 0.3041776032
C   C70       1.0  0.61565  0.74819  0.85610  1.0000 -0.2388978875
C   C71       1.0  0.71917  0.80927  0.86090  1.0000 -0.0183026539
C   C72       1.0  0.80419  0.76213  0.86780  1.0000 -0.1862529269
C   C73       1.0  0.74518  0.92590  0.85840  1.0000 0.4569620302
C   C74       1.0  0.68685  0.06839  0.88122  1.0000 0.1972957165
C   C75       1.0  0.72928  0.16152  0.82260  1.0000 -0.1190786757
C   C76       1.0  0.73290  0.26270  0.82760  1.0000 -0.1118058651
C   C77       1.0  0.69578  0.26982  0.89000  1.0000 0.0485806535
C   C78       1.0  0.65181  0.08139  0.94333  1.0000 -0.0281213452
C   C79       1.0  0.97830  0.32090  0.69180  1.0000 0.5304838629
C   C80       1.0  0.09391  0.31709  0.75570  1.0000 -0.0138214943
C   C81       1.0  0.17535  0.40221  0.73870  1.0000 -0.1190786757
C   C82       1.0  0.28366  0.39510  0.79500  1.0000 -0.1190786757
C   C83       1.0  0.31095  0.30255  0.87011  1.0000 -0.0281213452
C   C84       1.0  0.22810  0.21770  0.88750  1.0000 -0.1023544534
C   C85       1.0  0.12120  0.22500  0.83070  1.0000 -0.1023544534
C   C86       1.0  0.42891  0.29375  0.92763  1.0000 0.5554539175
C   C87       1.0  0.69985  0.16503  0.59140  1.0000 -0.0183026539
C   C88       1.0  0.58619  0.27381  0.58170  1.0000 0.0485806535
C   C89       1.0  0.50855  0.18365  0.59820  1.0000 -0.1190786757
C   C90       1.0  0.52679  0.07981  0.61300  1.0000 -0.125524865
C   C91       1.0  0.62587  0.07035  0.60920  1.0000 0.1917452575
C   C92       1.0  0.59618  0.87330  0.62330  1.0000 0.4569620302
C   C93       1.0  0.65385  0.78579  0.63077  1.0000 -0.0183026539
C   C94       1.0  0.59341  0.68245  0.63540  1.0000 -0.2388978875
C   C95       1.0  0.64007  0.59781  0.64100  1.0000 0.3041776032
C   C96       1.0  0.74819  0.61565  0.64390  1.0000 -0.2388978875
C   C97       1.0  0.80927  0.71917  0.63910  1.0000 -0.0183026539
C   C98       1.0  0.76213  0.80419  0.63220  1.0000 -0.1862529269
C   C99       1.0  0.92590  0.74518  0.64160  1.0000 0.4548015208
C   C100      1.0  0.06839  0.68685  0.61878  1.0000 0.1972957165
C   C101      1.0  0.16152  0.72928  0.67740  1.0000 -0.1190786757
C   C102      1.0  0.26270  0.73290  0.67240  1.0000 -0.1118058651
C   C103      1.0  0.26982  0.69578  0.61000  1.0000 0.0485806535
C   C104      1.0  0.08139  0.65181  0.55667  1.0000 -0.0281213452
N   N1        1.0  0.73518  0.31836  0.07786  1.0000 -0.2239636718
N   N2        1.0  0.02728  0.34064  0.12210  1.0000 -0.3514662771
N   N3        1.0  0.32433  0.03843  0.12048  1.0000 -0.3754544644
N   N4        1.0  0.34373  0.81925  0.05209  1.0000 -0.2289191349
N   N5        1.0  0.31836  0.73518  0.42214  1.0000 -0.2239636718
N   N6        1.0  0.34064  0.02728  0.37790  1.0000 -0.3514662771
N   N7        1.0  0.03843  0.32433  0.37952  1.0000 -0.3745516031
N   N8        1.0  0.81925  0.34373  0.44791  1.0000 -0.2289191349
N   N9        1.0  0.26482  0.68164  0.92214  1.0000 -0.2239636718
N   N10       1.0  0.97272  0.65936  0.87790  1.0000 -0.3514662771
N   N11       1.0  0.67567  0.96157  0.87952  1.0000 -0.3754544644
N   N12       1.0  0.65627  0.18075  0.94791  1.0000 -0.2289191349
N   N13       1.0  0.68164  0.26482  0.57786  1.0000 -0.2239636718
N   N14       1.0  0.65936  0.97272  0.62210  1.0000 -0.3514662771
N   N15       1.0  0.96157  0.67567  0.62048  1.0000 -0.3754544644
N   N16       1.0  0.18075  0.65627  0.55209  1.0000 -0.2289191349
O   O1        1.0  0.59542  0.05160  0.13428  1.0000 -0.4621697752
O   O2        1.0  0.77000  0.07880  0.18530  1.0000 -0.5231204866
O   O3        1.0  0.63183  0.49761  0.41023  1.0000 -0.5401037721
O   O4        1.0  0.79626  0.54956  0.49399  1.0000 -0.5401037721
O   O5        1.0  0.14369  0.49899  0.11820  1.0000 -0.4431031658
O   O6        1.0  0.50479  0.41575  0.14610  1.0000 -0.4431031658
O   O7        1.0  0.17604  0.01380  0.16170  1.0000 -0.4461312382
O   O8        1.0  0.05160  0.59542  0.36572  1.0000 -0.4621697752
O   O9        1.0  0.07880  0.77000  0.31470  1.0000 -0.5231204866
O   O10       1.0  0.49761  0.63183  0.08977  1.0000 -0.5401037721
O   O11       1.0  0.54956  0.79626  0.00601  1.0000 -0.5401037721
O   O12       1.0  0.49899  0.14369  0.38180  1.0000 -0.4431031658
O   O13       1.0  0.41575  0.50479  0.35390  1.0000 -0.4431031658
O   O14       1.0  0.01380  0.17604  0.33830  1.0000 -0.4461312382
O   O15       1.0  0.40458  0.94840  0.86572  1.0000 -0.4621697752
O   O16       1.0  0.23000  0.92120  0.81470  1.0000 -0.5231204866
O   O17       1.0  0.36817  0.50239  0.58977  1.0000 -0.5401037721
O   O18       1.0  0.20374  0.45044  0.50601  1.0000 -0.5401037721
O   O19       1.0  0.85631  0.50101  0.88180  1.0000 -0.4431031658
O   O20       1.0  0.49521  0.58425  0.85390  1.0000 -0.4431031658
O   O21       1.0  0.82396  0.98620  0.83830  1.0000 -0.4461312382
O   O22       1.0  0.94840  0.40458  0.63428  1.0000 -0.4621697752
O   O23       1.0  0.92120  0.23000  0.68530  1.0000 -0.5231204866
O   O24       1.0  0.50239  0.36817  0.91023  1.0000 -0.5401037721
O   O25       1.0  0.45044  0.20374  0.99399  1.0000 -0.5401037721
O   O26       1.0  0.50101  0.85631  0.61820  1.0000 -0.4431031658
O   O27       1.0  0.58425  0.49521  0.64610  1.0000 -0.4431031658
O   O28       1.0  0.98620  0.82396  0.66170  1.0000 -0.4461312382
