# DDEC6 charges by PACMAN v1.1 (https://github.com/mtap-research/PACMAN-charge/)
data_2018[Zn][sql]2[FSR]11
_chemical_formula_sum              "Zn4 H72 C116 N24 O16 F24"
_cell_length_a       13.832
_cell_length_b       18.829
_cell_length_c       13.97
_cell_angle_alpha    90
_cell_angle_beta     97.37
_cell_angle_gamma    90

_symmetry_space_group_name_H-M    "P 1"
_symmetry_Int_Tables_number       1

loop_
  _symmetry_equiv_pos_as_xyz
  'x, y, z'

loop_
  _atom_site_type_symbol
  _atom_site_label
  _atom_site_symmetry_multiplicity
  _atom_site_fract_x
  _atom_site_fract_y
  _atom_site_fract_z
  _atom_site_occupancy
  _atom_site_charge
Zn  Zn1       1.0  0.43236  0.73685  0.35379  1.0000 0.7417539882
Zn  Zn2       1.0  0.56764  0.23685  0.14621  1.0000 0.7417539882
Zn  Zn3       1.0  0.56764  0.26315  0.64621  1.0000 0.7417539882
Zn  Zn4       1.0  0.43236  0.76315  0.85379  1.0000 0.7417539882
H   H1        1.0  0.60936  0.48516  0.76962  1.0000 0.2619171219
H   H2        1.0  0.55338  0.42588  0.72794  1.0000 0.273197897
H   H3        1.0  0.39770  0.33962  0.09657  1.0000 0.109254854
H   H4        1.0  0.34632  0.42438  0.98321  1.0000 0.1289575773
H   H5        1.0  0.54475  0.60908  0.45369  1.0000 0.1196772861
H   H6        1.0  0.74178  0.62824  0.23639  1.0000 0.1196772861
H   H7        1.0  0.54380  0.54276  0.59176  1.0000 0.1289575773
H   H8        1.0  0.86660  0.65106  0.14519  1.0000 0.1196772861
H   H9        1.0  0.11440  0.78535  0.28343  1.0000 0.1196772861
H   H10       1.0  0.72792  0.82642  0.03758  1.0000 0.1196772861
H   H11       1.0  0.65594  0.33191  0.00863  1.0000 0.109254854
H   H12       1.0  0.60973  0.41704  0.89071  1.0000 0.1289575773
H   H13       1.0  0.96088  0.79554  0.19246  1.0000 0.1196772861
H   H14       1.0  0.60757  0.80763  0.13749  1.0000 0.109254854
H   H15       1.0  0.20063  0.65555  0.07999  1.0000 0.1196772861
H   H16       1.0  0.30111  0.70363  0.49587  1.0000 0.109254854
H   H17       1.0  0.29384  0.64014  0.63454  1.0000 0.1436278338
H   H18       1.0  0.05299  0.67289  0.98506  1.0000 0.1196772861
H   H19       1.0  0.39064  0.98516  0.73038  1.0000 0.2619171219
H   H20       1.0  0.44662  0.92588  0.77206  1.0000 0.273197897
H   H21       1.0  0.60230  0.83962  0.40343  1.0000 0.109254854
H   H22       1.0  0.65368  0.92438  0.51679  1.0000 0.1289575773
H   H23       1.0  0.45525  0.10908  0.04631  1.0000 0.1196772861
H   H24       1.0  0.25822  0.12824  0.26361  1.0000 0.1196772861
H   H25       1.0  0.45620  0.04276  0.90824  1.0000 0.1289575773
H   H26       1.0  0.13340  0.15106  0.35481  1.0000 0.1196772861
H   H27       1.0  0.88560  0.28535  0.21657  1.0000 0.1196772861
H   H28       1.0  0.27208  0.32642  0.46242  1.0000 0.1196772861
H   H29       1.0  0.34406  0.83191  0.49137  1.0000 0.109254854
H   H30       1.0  0.39027  0.91704  0.60929  1.0000 0.1289575773
H   H31       1.0  0.03912  0.29554  0.30754  1.0000 0.1196772861
H   H32       1.0  0.39243  0.30763  0.36251  1.0000 0.109254854
H   H33       1.0  0.79937  0.15555  0.42001  1.0000 0.1196772861
H   H34       1.0  0.69889  0.20363  0.00413  1.0000 0.109254854
H   H35       1.0  0.70616  0.14014  0.86546  1.0000 0.1436278338
H   H36       1.0  0.94701  0.17289  0.51494  1.0000 0.1196772861
H   H37       1.0  0.39064  0.51484  0.23038  1.0000 0.2619171219
H   H38       1.0  0.44662  0.57412  0.27206  1.0000 0.273197897
H   H39       1.0  0.60230  0.66038  0.90343  1.0000 0.109254854
H   H40       1.0  0.65368  0.57562  0.01679  1.0000 0.1289575773
H   H41       1.0  0.45525  0.39092  0.54631  1.0000 0.1196772861
H   H42       1.0  0.25822  0.37176  0.76361  1.0000 0.1196772861
H   H43       1.0  0.45620  0.45724  0.40824  1.0000 0.1289575773
H   H44       1.0  0.13340  0.34894  0.85481  1.0000 0.1196772861
H   H45       1.0  0.88560  0.21465  0.71657  1.0000 0.1196772861
H   H46       1.0  0.27208  0.17358  0.96242  1.0000 0.1196772861
H   H47       1.0  0.34406  0.66809  0.99137  1.0000 0.109254854
H   H48       1.0  0.39027  0.58296  0.10929  1.0000 0.1289575773
H   H49       1.0  0.03912  0.20446  0.80754  1.0000 0.1196772861
H   H50       1.0  0.39243  0.19237  0.86251  1.0000 0.109254854
H   H51       1.0  0.79937  0.34445  0.92001  1.0000 0.1196772861
H   H52       1.0  0.69889  0.29637  0.50413  1.0000 0.109254854
H   H53       1.0  0.70616  0.35986  0.36546  1.0000 0.1436278338
H   H54       1.0  0.94701  0.32711  0.01494  1.0000 0.1196772861
H   H55       1.0  0.60936  0.01484  0.26962  1.0000 0.2619171219
H   H56       1.0  0.55338  0.07412  0.22794  1.0000 0.273197897
H   H57       1.0  0.39770  0.16038  0.59657  1.0000 0.109254854
H   H58       1.0  0.34632  0.07562  0.48321  1.0000 0.1289575773
H   H59       1.0  0.54475  0.89092  0.95369  1.0000 0.1196772861
H   H60       1.0  0.74178  0.87176  0.73639  1.0000 0.1196772861
H   H61       1.0  0.54380  0.95724  0.09176  1.0000 0.1289575773
H   H62       1.0  0.86660  0.84894  0.64519  1.0000 0.1196772861
H   H63       1.0  0.11440  0.71465  0.78343  1.0000 0.1196772861
H   H64       1.0  0.72792  0.67358  0.53758  1.0000 0.1196772861
H   H65       1.0  0.65594  0.16809  0.50863  1.0000 0.109254854
H   H66       1.0  0.60973  0.08296  0.39071  1.0000 0.1289575773
H   H67       1.0  0.96088  0.70446  0.69246  1.0000 0.1196772861
H   H68       1.0  0.60757  0.69237  0.63749  1.0000 0.109254854
H   H69       1.0  0.20063  0.84445  0.57999  1.0000 0.1196772861
H   H70       1.0  0.30111  0.79637  0.99587  1.0000 0.109254854
H   H71       1.0  0.29384  0.85986  0.13454  1.0000 0.1436278338
H   H72       1.0  0.05299  0.82711  0.48506  1.0000 0.1196772861
C   C1        1.0  0.44120  0.35480  0.05330  1.0000 0.0854154753
C   C2        1.0  0.43480  0.48100  0.84820  1.0000 0.1692352968
C   C3        1.0  0.41210  0.54820  0.72180  1.0000 0.1787657367
C   C4        1.0  0.47250  0.42870  0.92260  1.0000 0.0792697254
C   C5        1.0  0.41940  0.58540  0.63010  1.0000 0.0976801144
C   C6        1.0  0.41020  0.40530  0.98620  1.0000 -0.1670667452
C   C7        1.0  0.58630  0.70310  0.26110  1.0000 0.5554519521
C   C8        1.0  0.49360  0.61630  0.49200  1.0000 0.0792697254
C   C9        1.0  0.73980  0.66980  0.19760  1.0000 -0.0947079824
C   C10       1.0  0.49350  0.57630  0.57390  1.0000 -0.1824794037
C   C11       1.0  0.27100  0.71260  0.24920  1.0000 0.5417425709
C   C12       1.0  0.17310  0.71920  0.19100  1.0000 -0.020225357
C   C13       1.0  0.81310  0.68290  0.14250  1.0000 -0.138564782
C   C14       1.0  0.10140  0.76130  0.22340  1.0000 -0.0947079824
C   C15       1.0  0.66380  0.71650  0.19680  1.0000 -0.0148918114
C   C16       1.0  0.81040  0.74200  0.08290  1.0000 0.0727008968
C   C17       1.0  0.73260  0.78680  0.08000  1.0000 -0.15937433
C   C18       1.0  0.59140  0.35020  0.00210  1.0000 0.0976801144
C   C19       1.0  0.56450  0.40130  0.93180  1.0000 -0.1670667452
C   C20       1.0  0.01040  0.76840  0.16830  1.0000 -0.138564782
C   C21       1.0  0.89230  0.75030  0.01890  1.0000 -0.2799822015
C   C22       1.0  0.66000  0.77500  0.13830  1.0000 -0.0947079824
C   C23       1.0  0.15290  0.68550  0.10230  1.0000 -0.1029883844
C   C24       1.0  0.99180  0.73630  0.07890  1.0000 0.0727008968
C   C25       1.0  0.35210  0.67120  0.51660  1.0000 0.0727008968
C   C26       1.0  0.34710  0.63340  0.59880  1.0000 -0.1477591915
C   C27       1.0  0.86980  0.69950  0.93550  1.0000 0.6566810834
C   C28       1.0  0.89870  0.82690  0.98000  1.0000 0.6566810834
C   C29       1.0  0.06460  0.69490  0.04660  1.0000 -0.1477591915
C   C30       1.0  0.55880  0.85480  0.44670  1.0000 0.0854154753
C   C31       1.0  0.56520  0.98100  0.65180  1.0000 0.1692352968
C   C32       1.0  0.58790  0.04820  0.77820  1.0000 0.1787657367
C   C33       1.0  0.52750  0.92870  0.57740  1.0000 0.0792697254
C   C34       1.0  0.58060  0.08540  0.86990  1.0000 0.0976801144
C   C35       1.0  0.58980  0.90530  0.51380  1.0000 -0.1670667452
C   C36       1.0  0.41370  0.20310  0.23890  1.0000 0.5554519521
C   C37       1.0  0.50640  0.11630  0.00800  1.0000 0.0792697254
C   C38       1.0  0.26020  0.16980  0.30240  1.0000 -0.0947079824
C   C39       1.0  0.50650  0.07630  0.92610  1.0000 -0.1824794037
C   C40       1.0  0.72900  0.21260  0.25080  1.0000 0.5417425709
C   C41       1.0  0.82690  0.21920  0.30900  1.0000 -0.020225357
C   C42       1.0  0.18690  0.18290  0.35750  1.0000 -0.138564782
C   C43       1.0  0.89860  0.26130  0.27660  1.0000 -0.0947079824
C   C44       1.0  0.33620  0.21650  0.30320  1.0000 -0.0148918114
C   C45       1.0  0.18960  0.24200  0.41710  1.0000 0.0727008968
C   C46       1.0  0.26740  0.28680  0.42000  1.0000 -0.15937433
C   C47       1.0  0.40860  0.85020  0.49790  1.0000 0.0976801144
C   C48       1.0  0.43550  0.90130  0.56820  1.0000 -0.1670667452
C   C49       1.0  0.98960  0.26840  0.33170  1.0000 -0.138564782
C   C50       1.0  0.10770  0.25030  0.48110  1.0000 -0.2799822015
C   C51       1.0  0.34000  0.27500  0.36170  1.0000 -0.0947079824
C   C52       1.0  0.84710  0.18550  0.39770  1.0000 -0.1029883844
C   C53       1.0  0.00820  0.23630  0.42110  1.0000 0.0727008968
C   C54       1.0  0.64790  0.17120  0.98340  1.0000 0.0727008968
C   C55       1.0  0.65290  0.13340  0.90120  1.0000 -0.1477591915
C   C56       1.0  0.13020  0.19950  0.56450  1.0000 0.6566810834
C   C57       1.0  0.10130  0.32690  0.52000  1.0000 0.6566810834
C   C58       1.0  0.93540  0.19490  0.45340  1.0000 -0.1477591915
C   C59       1.0  0.55880  0.64520  0.94670  1.0000 0.0854154753
C   C60       1.0  0.56520  0.51900  0.15180  1.0000 0.1692352968
C   C61       1.0  0.58790  0.45180  0.27820  1.0000 0.1787657367
C   C62       1.0  0.52750  0.57130  0.07740  1.0000 0.0792697254
C   C63       1.0  0.58060  0.41460  0.36990  1.0000 0.0976801144
C   C64       1.0  0.58980  0.59470  0.01380  1.0000 -0.1670667452
C   C65       1.0  0.41370  0.29690  0.73890  1.0000 0.5554519521
C   C66       1.0  0.50640  0.38370  0.50800  1.0000 0.0792697254
C   C67       1.0  0.26020  0.33020  0.80240  1.0000 -0.0947079824
C   C68       1.0  0.50650  0.42370  0.42610  1.0000 -0.1824794037
C   C69       1.0  0.72900  0.28740  0.75080  1.0000 0.5417425709
C   C70       1.0  0.82690  0.28080  0.80900  1.0000 -0.020225357
C   C71       1.0  0.18690  0.31710  0.85750  1.0000 -0.138564782
C   C72       1.0  0.89860  0.23870  0.77660  1.0000 -0.0947079824
C   C73       1.0  0.33620  0.28350  0.80320  1.0000 -0.0148918114
C   C74       1.0  0.18960  0.25800  0.91710  1.0000 0.0727008968
C   C75       1.0  0.26740  0.21320  0.92000  1.0000 -0.15937433
C   C76       1.0  0.40860  0.64980  0.99790  1.0000 0.0976801144
C   C77       1.0  0.43550  0.59870  0.06820  1.0000 -0.1670667452
C   C78       1.0  0.98960  0.23160  0.83170  1.0000 -0.138564782
C   C79       1.0  0.10770  0.24970  0.98110  1.0000 -0.2799822015
C   C80       1.0  0.34000  0.22500  0.86170  1.0000 -0.0947079824
C   C81       1.0  0.84710  0.31450  0.89770  1.0000 -0.1029883844
C   C82       1.0  0.00820  0.26370  0.92110  1.0000 0.0727008968
C   C83       1.0  0.64790  0.32880  0.48340  1.0000 0.0727008968
C   C84       1.0  0.65290  0.36660  0.40120  1.0000 -0.1477591915
C   C85       1.0  0.13020  0.30050  0.06450  1.0000 0.6566810834
C   C86       1.0  0.10130  0.17310  0.02000  1.0000 0.6566810834
C   C87       1.0  0.93540  0.30510  0.95340  1.0000 -0.1477591915
C   C88       1.0  0.44120  0.14520  0.55330  1.0000 0.0854154753
C   C89       1.0  0.43480  0.01900  0.34820  1.0000 0.1692352968
C   C90       1.0  0.41210  0.95180  0.22180  1.0000 0.1787657367
C   C91       1.0  0.47250  0.07130  0.42260  1.0000 0.0792697254
C   C92       1.0  0.41940  0.91460  0.13010  1.0000 0.0976801144
C   C93       1.0  0.41020  0.09470  0.48620  1.0000 -0.1670667452
C   C94       1.0  0.58630  0.79690  0.76110  1.0000 0.5554519521
C   C95       1.0  0.49360  0.88370  0.99200  1.0000 0.0792697254
C   C96       1.0  0.73980  0.83020  0.69760  1.0000 -0.0947079824
C   C97       1.0  0.49350  0.92370  0.07390  1.0000 -0.1824794037
C   C98       1.0  0.27100  0.78740  0.74920  1.0000 0.5417425709
C   C99       1.0  0.17310  0.78080  0.69100  1.0000 -0.020225357
C   C100      1.0  0.81310  0.81710  0.64250  1.0000 -0.138564782
C   C101      1.0  0.10140  0.73870  0.72340  1.0000 -0.0947079824
C   C102      1.0  0.66380  0.78350  0.69680  1.0000 -0.0148918114
C   C103      1.0  0.81040  0.75800  0.58290  1.0000 0.0727008968
C   C104      1.0  0.73260  0.71320  0.58000  1.0000 -0.15937433
C   C105      1.0  0.59140  0.14980  0.50210  1.0000 0.0976801144
C   C106      1.0  0.56450  0.09870  0.43180  1.0000 -0.1670667452
C   C107      1.0  0.01040  0.73160  0.66830  1.0000 -0.138564782
C   C108      1.0  0.89230  0.74970  0.51890  1.0000 -0.2799822015
C   C109      1.0  0.66000  0.72500  0.63830  1.0000 -0.0947079824
C   C110      1.0  0.15290  0.81450  0.60230  1.0000 -0.1029883844
C   C111      1.0  0.99180  0.76370  0.57890  1.0000 0.0727008968
C   C112      1.0  0.35210  0.82880  0.01660  1.0000 0.0727008968
C   C113      1.0  0.34710  0.86660  0.09880  1.0000 -0.1477591915
C   C114      1.0  0.86980  0.80050  0.43550  1.0000 0.6566810834
C   C115      1.0  0.89870  0.67310  0.48000  1.0000 0.6566810834
C   C116      1.0  0.06460  0.80510  0.54660  1.0000 -0.1477591915
N   N1        1.0  0.52970  0.32573  0.06060  1.0000 -0.2299229774
N   N2        1.0  0.47440  0.49987  0.76750  1.0000 0.0792697254
N   N3        1.0  0.42590  0.66456  0.46330  1.0000 -0.2299229774
N   N4        1.0  0.35400  0.51603  0.85080  1.0000 -0.2424765749
N   N5        1.0  0.55680  0.47270  0.73060  1.0000 -0.4821957273
N   N6        1.0  0.33900  0.55840  0.77100  1.0000 -0.2299229774
N   N7        1.0  0.47030  0.82573  0.43940  1.0000 -0.2299229774
N   N8        1.0  0.52560  0.99987  0.73250  1.0000 0.0792697254
N   N9        1.0  0.57410  0.16456  0.03670  1.0000 -0.2299229774
N   N10       1.0  0.64600  0.01603  0.64920  1.0000 -0.2424765749
N   N11       1.0  0.44320  0.97270  0.76940  1.0000 -0.4821957273
N   N12       1.0  0.66100  0.05840  0.72900  1.0000 -0.2299229774
N   N13       1.0  0.47030  0.67427  0.93940  1.0000 -0.2299229774
N   N14       1.0  0.52560  0.50013  0.23250  1.0000 0.0792697254
N   N15       1.0  0.57410  0.33544  0.53670  1.0000 -0.2299229774
N   N16       1.0  0.64600  0.48397  0.14920  1.0000 -0.2424765749
N   N17       1.0  0.44320  0.52730  0.26940  1.0000 -0.4821957273
N   N18       1.0  0.66100  0.44160  0.22900  1.0000 -0.2299229774
N   N19       1.0  0.52970  0.17427  0.56060  1.0000 -0.2299229774
N   N20       1.0  0.47440  0.00013  0.26750  1.0000 0.0792697254
N   N21       1.0  0.42590  0.83544  0.96330  1.0000 -0.2299229774
N   N22       1.0  0.35400  0.98397  0.35080  1.0000 -0.2424765749
N   N23       1.0  0.55680  0.02730  0.23060  1.0000 -0.4821957273
N   N24       1.0  0.33900  0.94160  0.27100  1.0000 -0.2299229774
O   O1        1.0  0.29170  0.75793  0.31690  1.0000 -0.5329117102
O   O2        1.0  0.58150  0.64566  0.30230  1.0000 -0.5485413743
O   O3        1.0  0.52820  0.75472  0.26770  1.0000 -0.5403761861
O   O4        1.0  0.32970  0.66757  0.22970  1.0000 -0.5403761861
O   O5        1.0  0.70830  0.25793  0.18310  1.0000 -0.5329117102
O   O6        1.0  0.41850  0.14566  0.19770  1.0000 -0.5485413743
O   O7        1.0  0.47180  0.25472  0.23230  1.0000 -0.5403761861
O   O8        1.0  0.67030  0.16757  0.27030  1.0000 -0.5403761861
O   O9        1.0  0.70830  0.24207  0.68310  1.0000 -0.5329117102
O   O10       1.0  0.41850  0.35434  0.69770  1.0000 -0.5485413743
O   O11       1.0  0.47180  0.24528  0.73230  1.0000 -0.5403761861
O   O12       1.0  0.67030  0.33243  0.77030  1.0000 -0.5403761861
O   O13       1.0  0.29170  0.74207  0.81690  1.0000 -0.5329117102
O   O14       1.0  0.58150  0.85434  0.80230  1.0000 -0.5485413743
O   O15       1.0  0.52820  0.74528  0.76770  1.0000 -0.5403761861
O   O16       1.0  0.32970  0.83243  0.72970  1.0000 -0.5403761861
F   F1        1.0  0.77685  0.70582  0.89282  1.0000 -0.2014272608
F   F2        1.0  0.88030  0.63200  0.96302  1.0000 -0.191398911
F   F3        1.0  0.90070  0.87517  0.04820  1.0000 -0.1824794037
F   F4        1.0  0.82290  0.84310  0.91345  1.0000 -0.2014272608
F   F5        1.0  0.92540  0.70900  0.86494  1.0000 -0.2014272608
F   F6        1.0  0.97830  0.83570  0.93630  1.0000 -0.191398911
F   F7        1.0  0.22315  0.20582  0.60718  1.0000 -0.2014272608
F   F8        1.0  0.11970  0.13200  0.53698  1.0000 -0.191398911
F   F9        1.0  0.09930  0.37517  0.45180  1.0000 -0.1824794037
F   F10       1.0  0.17710  0.34310  0.58655  1.0000 -0.2014272608
F   F11       1.0  0.07460  0.20900  0.63506  1.0000 -0.2014272608
F   F12       1.0  0.02170  0.33570  0.56370  1.0000 -0.191398911
F   F13       1.0  0.22315  0.29418  0.10718  1.0000 -0.2014272608
F   F14       1.0  0.11970  0.36800  0.03698  1.0000 -0.191398911
F   F15       1.0  0.09930  0.12483  0.95180  1.0000 -0.1824794037
F   F16       1.0  0.17710  0.15690  0.08655  1.0000 -0.2014272608
F   F17       1.0  0.07460  0.29100  0.13506  1.0000 -0.2014272608
F   F18       1.0  0.02170  0.16430  0.06370  1.0000 -0.191398911
F   F19       1.0  0.77685  0.79418  0.39282  1.0000 -0.2014272608
F   F20       1.0  0.88030  0.86800  0.46302  1.0000 -0.191398911
F   F21       1.0  0.90070  0.62483  0.54820  1.0000 -0.1824794037
F   F22       1.0  0.82290  0.65690  0.41345  1.0000 -0.2014272608
F   F23       1.0  0.92540  0.79100  0.36494  1.0000 -0.2014272608
F   F24       1.0  0.97830  0.66430  0.43630  1.0000 -0.191398911
