# DDEC6 charges by PACMAN v1.1 (https://github.com/mtap-research/PACMAN-charge/)
data_2018[Eu][nan]3[FSR]6
_chemical_formula_sum              "Eu2 H38 C68 N8 O12"
_cell_length_a       9.617
_cell_length_b       11.2343
_cell_length_c       14.6852
_cell_angle_alpha    82.526
_cell_angle_beta     84.202
_cell_angle_gamma    83.67

_symmetry_space_group_name_H-M    "P 1"
_symmetry_Int_Tables_number       1

loop_
  _symmetry_equiv_pos_as_xyz
  'x, y, z'

loop_
  _atom_site_type_symbol
  _atom_site_label
  _atom_site_symmetry_multiplicity
  _atom_site_fract_x
  _atom_site_fract_y
  _atom_site_fract_z
  _atom_site_occupancy
  _atom_site_charge
Eu  Eu1       1.0  0.06317  0.40485  0.83865  1.0000 1.9075986458
Eu  Eu2       1.0  0.93683  0.59515  0.16135  1.0000 1.9075986458
H   H1        1.0  0.06010  0.28280  0.06420  1.0000 0.1115916496
H   H2        1.0  0.97580  0.13750  0.17540  1.0000 0.1285187807
H   H3        1.0  0.82810  0.00540  0.13780  1.0000 0.120571717
H   H4        1.0  0.93260  0.33230  0.65290  1.0000 0.120571717
H   H5        1.0  0.79690  0.20770  0.59470  1.0000 0.1285187807
H   H6        1.0  0.69120  0.05860  0.69570  1.0000 0.120571717
H   H7        1.0  0.49180  0.74960  0.83280  1.0000 0.120571717
H   H8        1.0  0.34200  0.59940  0.85920  1.0000 0.1285187807
H   H9        1.0  0.35120  0.59590  0.13050  1.0000 0.1285187807
H   H10       1.0  0.51030  0.73770  0.10500  1.0000 0.120571717
H   H11       1.0  0.85010  0.70240  0.59920  1.0000 0.1285187807
H   H12       1.0  0.83710  0.87680  0.49900  1.0000 0.1115916496
H   H13       1.0  0.18080  0.96640  0.58500  1.0000 0.1115916496
H   H14       1.0  0.19630  0.79120  0.68170  1.0000 0.120571717
H   H15       1.0  0.36090  0.31810  0.56210  1.0000 0.1285187807
H   H16       1.0  0.46290  0.19380  0.45300  1.0000 0.120571717
H   H17       1.0  0.47280  0.91110  0.64540  1.0000 0.120571717
H   H18       1.0  0.37470  0.03240  0.75520  1.0000 0.120571717
H   H19       1.0  0.67120  0.87530  0.07000  1.0000 0.3035986884
H   H20       1.0  0.93990  0.71720  0.93580  1.0000 0.1115916496
H   H21       1.0  0.02420  0.86250  0.82460  1.0000 0.1285187807
H   H22       1.0  0.17190  0.99460  0.86220  1.0000 0.1285187807
H   H23       1.0  0.06740  0.66770  0.34710  1.0000 0.120571717
H   H24       1.0  0.20310  0.79230  0.40530  1.0000 0.1285187807
H   H25       1.0  0.30880  0.94140  0.30430  1.0000 0.120571717
H   H26       1.0  0.50820  0.25040  0.16720  1.0000 0.120571717
H   H27       1.0  0.65800  0.40060  0.14080  1.0000 0.1285187807
H   H28       1.0  0.64880  0.40410  0.86950  1.0000 0.1285187807
H   H29       1.0  0.48970  0.26230  0.89500  1.0000 0.120571717
H   H30       1.0  0.14990  0.29760  0.40080  1.0000 0.1285187807
H   H31       1.0  0.16290  0.12320  0.50100  1.0000 0.1115916496
H   H32       1.0  0.81920  0.03360  0.41500  1.0000 0.1115916496
H   H33       1.0  0.80370  0.20880  0.31830  1.0000 0.120571717
H   H34       1.0  0.63910  0.68190  0.43790  1.0000 0.1285187807
H   H35       1.0  0.53710  0.80620  0.54700  1.0000 0.120571717
H   H36       1.0  0.52720  0.08890  0.35460  1.0000 0.120571717
H   H37       1.0  0.62530  0.96760  0.24480  1.0000 0.120571717
H   H38       1.0  0.32880  0.12470  0.93000  1.0000 0.3035986884
C   C1        1.0  0.00320  0.22890  0.04740  1.0000 0.1115916496
C   C2        1.0  0.95130  0.14200  0.11530  1.0000 -0.1302034954
C   C3        1.0  0.86410  0.06330  0.09320  1.0000 -0.0908847297
C   C4        1.0  0.83060  0.07210  0.00220  1.0000 -0.0114577637
C   C5        1.0  0.88860  0.16150  0.93610  1.0000 0.120571717
C   C6        1.0  0.85910  0.17320  0.83990  1.0000 0.120571717
C   C7        1.0  0.89260  0.27190  0.69310  1.0000 0.1021464629
C   C8        1.0  0.81010  0.19780  0.65720  1.0000 -0.1406990128
C   C9        1.0  0.74800  0.10870  0.71720  1.0000 -0.0737772869
C   C10       1.0  0.77230  0.09520  0.81120  1.0000 -0.0114577637
C   C11       1.0  0.71360  0.00600  0.87720  1.0000 0.0775570174
C   C12       1.0  0.74330  0.99610  0.96830  1.0000 0.0698129995
C   C13       1.0  0.60650  0.85950  0.94720  1.0000 0.2893232418
C   C14       1.0  0.51610  0.76100  0.96590  1.0000 0.0252680624
C   C15       1.0  0.46450  0.71850  0.89300  1.0000 -0.1228302965
C   C16       1.0  0.37230  0.62980  0.90890  1.0000 -0.0908847297
C   C17       1.0  0.32550  0.58660  0.99630  1.0000 -0.0396159558
C   C18       1.0  0.37940  0.62690  0.07050  1.0000 -0.1001934992
C   C19       1.0  0.47410  0.71230  0.05520  1.0000 -0.1302034954
C   C20       1.0  0.21220  0.50330  0.01190  1.0000 0.658295275
C   C21       1.0  0.03350  0.61570  0.71790  1.0000 0.5825075818
C   C22       1.0  0.02240  0.72960  0.65270  1.0000 -0.0114577637
C   C23       1.0  0.91790  0.75590  0.59730  1.0000 -0.0908847297
C   C24       1.0  0.90970  0.86090  0.53750  1.0000 -0.1585653784
C   C25       1.0  0.00630  0.94220  0.53400  1.0000 0.0775570174
C   C26       1.0  0.11190  0.91380  0.58750  1.0000 -0.1488262253
C   C27       1.0  0.12070  0.80890  0.64570  1.0000 -0.1101464095
C   C28       1.0  0.38000  0.23580  0.57940  1.0000 -0.0908847297
C   C29       1.0  0.44200  0.16030  0.51340  1.0000 -0.1674701372
C   C30       1.0  0.47160  0.03980  0.53660  1.0000 0.0775570174
C   C31       1.0  0.44810  0.99270  0.62790  1.0000 -0.1674701372
C   C32       1.0  0.38830  0.06540  0.69390  1.0000 -0.0908847297
C   C33       1.0  0.34810  0.18770  0.66900  1.0000 -0.0495543952
C   C34       1.0  0.26930  0.26390  0.73480  1.0000 0.560866089
C   C35       1.0  0.99680  0.77110  0.95260  1.0000 0.1115916496
C   C36       1.0  0.04870  0.85800  0.88470  1.0000 -0.1302034954
C   C37       1.0  0.13590  0.93670  0.90680  1.0000 -0.0908847297
C   C38       1.0  0.16940  0.92790  0.99780  1.0000 -0.0114577637
C   C39       1.0  0.11140  0.83850  0.06390  1.0000 0.1285187807
C   C40       1.0  0.14090  0.82680  0.16010  1.0000 0.120571717
C   C41       1.0  0.10740  0.72810  0.30690  1.0000 0.1021464629
C   C42       1.0  0.18990  0.80220  0.34280  1.0000 -0.1406990128
C   C43       1.0  0.25200  0.89130  0.28280  1.0000 -0.0737772869
C   C44       1.0  0.22770  0.90480  0.18880  1.0000 -0.0114577637
C   C45       1.0  0.28640  0.99400  0.12280  1.0000 0.0775570174
C   C46       1.0  0.25670  0.00390  0.03170  1.0000 0.0698129995
C   C47       1.0  0.39350  0.14050  0.05280  1.0000 0.2893232418
C   C48       1.0  0.48390  0.23900  0.03410  1.0000 0.0252680624
C   C49       1.0  0.53550  0.28150  0.10700  1.0000 -0.1228302965
C   C50       1.0  0.62770  0.37020  0.09110  1.0000 -0.0908847297
C   C51       1.0  0.67450  0.41340  0.00370  1.0000 -0.0396159558
C   C52       1.0  0.62060  0.37310  0.92950  1.0000 -0.1001934992
C   C53       1.0  0.52590  0.28770  0.94480  1.0000 -0.1302034954
C   C54       1.0  0.78780  0.49670  0.98810  1.0000 0.658295275
C   C55       1.0  0.96650  0.38430  0.28210  1.0000 0.5825075818
C   C56       1.0  0.97760  0.27040  0.34730  1.0000 -0.0114577637
C   C57       1.0  0.08210  0.24410  0.40270  1.0000 -0.0908847297
C   C58       1.0  0.09030  0.13910  0.46250  1.0000 -0.1585653784
C   C59       1.0  0.99370  0.05780  0.46600  1.0000 0.0775570174
C   C60       1.0  0.88810  0.08620  0.41250  1.0000 -0.1488262253
C   C61       1.0  0.87930  0.19110  0.35430  1.0000 -0.1101464095
C   C62       1.0  0.62000  0.76420  0.42060  1.0000 -0.0908847297
C   C63       1.0  0.55800  0.83970  0.48660  1.0000 -0.1674701372
C   C64       1.0  0.52840  0.96020  0.46340  1.0000 0.0775570174
C   C65       1.0  0.55190  0.00730  0.37210  1.0000 -0.1674701372
C   C66       1.0  0.61170  0.93460  0.30610  1.0000 -0.0908847297
C   C67       1.0  0.65190  0.81230  0.33100  1.0000 -0.0495543952
C   C68       1.0  0.73070  0.73610  0.26520  1.0000 0.560866089
N   N1        1.0  0.97520  0.23830  0.96020  1.0000 -0.3897841337
N   N2        1.0  0.91740  0.26120  0.78160  1.0000 -0.3897841337
N   N3        1.0  0.67300  0.90220  0.01230  1.0000 -0.2807071494
N   N4        1.0  0.62810  0.92170  0.86370  1.0000 -0.4039885687
N   N5        1.0  0.02480  0.76170  0.03980  1.0000 -0.3897841337
N   N6        1.0  0.08260  0.73880  0.21840  1.0000 -0.3897841337
N   N7        1.0  0.32700  0.09780  0.98770  1.0000 -0.2807071494
N   N8        1.0  0.37190  0.07830  0.13630  1.0000 -0.4039885687
O   O1        1.0  0.13540  0.50090  0.08670  1.0000 -0.668347864
O   O2        1.0  0.19760  0.44010  0.94920  1.0000 -0.6758615064
O   O3        1.0  0.95540  0.53370  0.71270  1.0000 -0.6146194326
O   O4        1.0  0.12030  0.60400  0.77690  1.0000 -0.601912527
O   O5        1.0  0.22200  0.36950  0.70490  1.0000 -0.601912527
O   O6        1.0  0.24240  0.22500  0.81830  1.0000 -0.6285328256
O   O7        1.0  0.86460  0.49910  0.91330  1.0000 -0.668347864
O   O8        1.0  0.80240  0.55990  0.05080  1.0000 -0.6758615064
O   O9        1.0  0.04460  0.46630  0.28730  1.0000 -0.6146194326
O   O10       1.0  0.87970  0.39600  0.22310  1.0000 -0.601912527
O   O11       1.0  0.77800  0.63050  0.29510  1.0000 -0.601912527
O   O12       1.0  0.75760  0.77500  0.18170  1.0000 -0.6285328256
