# DDEC6 charges by PACMAN v1.1 (https://github.com/mtap-research/PACMAN-charge/)
data_2018[Zn][nan]2[FSR]6
_chemical_formula_sum              "Zn6 H64 C112 O20"
_cell_length_a       19.2834
_cell_length_b       19.2834
_cell_length_c       26.564
_cell_angle_alpha    90
_cell_angle_beta     90
_cell_angle_gamma    161.661

_symmetry_space_group_name_H-M    "P 1"
_symmetry_Int_Tables_number       1

loop_
  _symmetry_equiv_pos_as_xyz
  'x, y, z'

loop_
  _atom_site_type_symbol
  _atom_site_label
  _atom_site_symmetry_multiplicity
  _atom_site_fract_x
  _atom_site_fract_y
  _atom_site_fract_z
  _atom_site_occupancy
  _atom_site_charge
Zn  Zn1       1.0  0.00000  0.00000  0.50000  1.0000 1.130824434
Zn  Zn2       1.0  0.00000  0.00000  0.00000  1.0000 1.1354431979
Zn  Zn3       1.0  0.46182  0.53818  0.50000  1.0000 0.9613262288
Zn  Zn4       1.0  0.53818  0.46182  0.00000  1.0000 0.9613262288
Zn  Zn5       1.0  0.53818  0.46182  0.50000  1.0000 0.9613262288
Zn  Zn6       1.0  0.46182  0.53818  0.00000  1.0000 0.9613262288
H   H1        1.0  0.29470  0.50930  0.62510  1.0000 0.1227549304
H   H2        1.0  0.17080  0.44620  0.69600  1.0000 0.1227549304
H   H3        1.0  0.63700  0.81900  0.69450  1.0000 0.1254875831
H   H4        1.0  0.76240  0.88340  0.62380  1.0000 0.1386236868
H   H5        1.0  0.04100  0.51040  0.80040  1.0000 0.1227549304
H   H6        1.0  0.12550  0.58190  0.88450  1.0000 0.1227549304
H   H7        1.0  0.43290  0.82750  0.91100  1.0000 0.1227549304
H   H8        1.0  0.68030  0.01070  0.85680  1.0000 0.1227549304
H   H9        1.0  0.70530  0.49070  0.12510  1.0000 0.1227549304
H   H10       1.0  0.82920  0.55380  0.19600  1.0000 0.1227549304
H   H11       1.0  0.36300  0.18100  0.19450  1.0000 0.1227549304
H   H12       1.0  0.23760  0.11660  0.12380  1.0000 0.1386236868
H   H13       1.0  0.95900  0.48960  0.30040  1.0000 0.1227549304
H   H14       1.0  0.87450  0.41810  0.38450  1.0000 0.1227549304
H   H15       1.0  0.56710  0.17250  0.41100  1.0000 0.1227549304
H   H16       1.0  0.31970  0.98930  0.35680  1.0000 0.1227549304
H   H17       1.0  0.50930  0.29470  0.87490  1.0000 0.1227549304
H   H18       1.0  0.44620  0.17080  0.80400  1.0000 0.1227549304
H   H19       1.0  0.81900  0.63700  0.80550  1.0000 0.1227549304
H   H20       1.0  0.88340  0.76240  0.87620  1.0000 0.1386236868
H   H21       1.0  0.51040  0.04100  0.69960  1.0000 0.1227549304
H   H22       1.0  0.58190  0.12550  0.61550  1.0000 0.1227549304
H   H23       1.0  0.82750  0.43290  0.58900  1.0000 0.1227549304
H   H24       1.0  0.01070  0.68030  0.64320  1.0000 0.1227549304
H   H25       1.0  0.49070  0.70530  0.37490  1.0000 0.1227549304
H   H26       1.0  0.55380  0.82920  0.30400  1.0000 0.1227549304
H   H27       1.0  0.18100  0.36300  0.30550  1.0000 0.1227549304
H   H28       1.0  0.11660  0.23760  0.37620  1.0000 0.1386236868
H   H29       1.0  0.48960  0.95900  0.19960  1.0000 0.1227549304
H   H30       1.0  0.41810  0.87450  0.11550  1.0000 0.1227549304
H   H31       1.0  0.17250  0.56710  0.08900  1.0000 0.1227549304
H   H32       1.0  0.98930  0.31970  0.14320  1.0000 0.1227549304
H   H33       1.0  0.70530  0.49070  0.37490  1.0000 0.1227549304
H   H34       1.0  0.82920  0.55380  0.30400  1.0000 0.1227549304
H   H35       1.0  0.36300  0.18100  0.30550  1.0000 0.1227549304
H   H36       1.0  0.23760  0.11660  0.37620  1.0000 0.1386236868
H   H37       1.0  0.95900  0.48960  0.19960  1.0000 0.1227549304
H   H38       1.0  0.87450  0.41810  0.11550  1.0000 0.1227549304
H   H39       1.0  0.56710  0.17250  0.08900  1.0000 0.1227549304
H   H40       1.0  0.31970  0.98930  0.14320  1.0000 0.1227549304
H   H41       1.0  0.29470  0.50930  0.87490  1.0000 0.1227549304
H   H42       1.0  0.17080  0.44620  0.80400  1.0000 0.1227549304
H   H43       1.0  0.63700  0.81900  0.80550  1.0000 0.1254875831
H   H44       1.0  0.76240  0.88340  0.87620  1.0000 0.1386236868
H   H45       1.0  0.04100  0.51040  0.69960  1.0000 0.1227549304
H   H46       1.0  0.12550  0.58190  0.61550  1.0000 0.1227549304
H   H47       1.0  0.43290  0.82750  0.58900  1.0000 0.1227549304
H   H48       1.0  0.68030  0.01070  0.64320  1.0000 0.1227549304
H   H49       1.0  0.49070  0.70530  0.12510  1.0000 0.1227549304
H   H50       1.0  0.55380  0.82920  0.19600  1.0000 0.1227549304
H   H51       1.0  0.18100  0.36300  0.19450  1.0000 0.1254875831
H   H52       1.0  0.11660  0.23760  0.12380  1.0000 0.1386236868
H   H53       1.0  0.48960  0.95900  0.30040  1.0000 0.1227549304
H   H54       1.0  0.41810  0.87450  0.38450  1.0000 0.1227549304
H   H55       1.0  0.17250  0.56710  0.41100  1.0000 0.1227549304
H   H56       1.0  0.98930  0.31970  0.35680  1.0000 0.1227549304
H   H57       1.0  0.50930  0.29470  0.62510  1.0000 0.1227549304
H   H58       1.0  0.44620  0.17080  0.69600  1.0000 0.1227549304
H   H59       1.0  0.81900  0.63700  0.69450  1.0000 0.1227549304
H   H60       1.0  0.88340  0.76240  0.62380  1.0000 0.1386236868
H   H61       1.0  0.51040  0.04100  0.80040  1.0000 0.1227549304
H   H62       1.0  0.58190  0.12550  0.88450  1.0000 0.1227549304
H   H63       1.0  0.82750  0.43290  0.91100  1.0000 0.1227549304
H   H64       1.0  0.01070  0.68030  0.85680  1.0000 0.1227549304
C   C1        1.0  0.13782  0.25458  0.57260  1.0000 0.5853230081
C   C2        1.0  0.04896  0.20724  0.61800  1.0000 -0.0212005709
C   C3        1.0  0.16279  0.36981  0.63960  1.0000 -0.1043206655
C   C4        1.0  0.08742  0.33178  0.68170  1.0000 -0.1607387379
C   C5        1.0  0.88571  0.12169  0.70310  1.0000 0.0836769756
C   C6        1.0  0.77100  0.95980  0.68070  1.0000 -0.1482266985
C   C7        1.0  0.84720  0.99860  0.63860  1.0000 -0.0786082611
C   C8        1.0  0.51373  0.87607  0.79480  1.0000 0.0310279972
C   C9        1.0  0.32340  0.72860  0.77710  1.0000 0.0063559757
C   C10       1.0  0.17040  0.61200  0.81120  1.0000 -0.1482266985
C   C11       1.0  0.22310  0.65690  0.86090  1.0000 -0.108231275
C   C12       1.0  0.40390  0.80010  0.87670  1.0000 -0.108231275
C   C13       1.0  0.55400  0.91220  0.84440  1.0000 -0.1368645594
C   C14       1.0  0.86218  0.74542  0.07260  1.0000 0.5853230081
C   C15       1.0  0.95104  0.79276  0.11800  1.0000 -0.0212005709
C   C16       1.0  0.83721  0.63019  0.13960  1.0000 -0.1043206655
C   C17       1.0  0.91258  0.66822  0.18170  1.0000 -0.1607387379
C   C18       1.0  0.11429  0.87831  0.20310  1.0000 0.0836769756
C   C19       1.0  0.22900  0.04020  0.18070  1.0000 -0.1482266985
C   C20       1.0  0.15280  0.00140  0.13860  1.0000 -0.0786082611
C   C21       1.0  0.48627  0.12393  0.29480  1.0000 0.0310279972
C   C22       1.0  0.67660  0.27140  0.27710  1.0000 0.0063559757
C   C23       1.0  0.82960  0.38800  0.31120  1.0000 -0.1482266985
C   C24       1.0  0.77690  0.34310  0.36090  1.0000 -0.108231275
C   C25       1.0  0.59610  0.19990  0.37670  1.0000 -0.108231275
C   C26       1.0  0.44600  0.08780  0.34440  1.0000 -0.1368645594
C   C27       1.0  0.25458  0.13782  0.92740  1.0000 0.5853230081
C   C28       1.0  0.20724  0.04896  0.88200  1.0000 -0.0212005709
C   C29       1.0  0.36981  0.16279  0.86040  1.0000 -0.1043206655
C   C30       1.0  0.33178  0.08742  0.81830  1.0000 -0.1607387379
C   C31       1.0  0.12169  0.88571  0.79690  1.0000 0.0836769756
C   C32       1.0  0.95980  0.77100  0.81930  1.0000 -0.1482266985
C   C33       1.0  0.99860  0.84720  0.86140  1.0000 -0.0786082611
C   C34       1.0  0.87607  0.51373  0.70520  1.0000 0.0310279972
C   C35       1.0  0.72860  0.32340  0.72290  1.0000 0.0063559757
C   C36       1.0  0.61200  0.17040  0.68880  1.0000 -0.1482266985
C   C37       1.0  0.65690  0.22310  0.63910  1.0000 -0.108231275
C   C38       1.0  0.80010  0.40390  0.62330  1.0000 -0.108231275
C   C39       1.0  0.91220  0.55400  0.65560  1.0000 -0.1368645594
C   C40       1.0  0.74542  0.86218  0.42740  1.0000 0.5853230081
C   C41       1.0  0.79276  0.95104  0.38200  1.0000 -0.0212005709
C   C42       1.0  0.63019  0.83721  0.36040  1.0000 -0.1043206655
C   C43       1.0  0.66822  0.91258  0.31830  1.0000 -0.1607387379
C   C44       1.0  0.87831  0.11429  0.29690  1.0000 0.0836769756
C   C45       1.0  0.04020  0.22900  0.31930  1.0000 -0.1482266985
C   C46       1.0  0.00140  0.15280  0.36140  1.0000 -0.0786082611
C   C47       1.0  0.12393  0.48627  0.20520  1.0000 0.0310279972
C   C48       1.0  0.27140  0.67660  0.22290  1.0000 0.0063559757
C   C49       1.0  0.38800  0.82960  0.18880  1.0000 -0.1482266985
C   C50       1.0  0.34310  0.77690  0.13910  1.0000 -0.108231275
C   C51       1.0  0.19990  0.59610  0.12330  1.0000 -0.108231275
C   C52       1.0  0.08780  0.44600  0.15560  1.0000 -0.1368645594
C   C53       1.0  0.86218  0.74542  0.42740  1.0000 0.5853230081
C   C54       1.0  0.95104  0.79276  0.38200  1.0000 -0.0212005709
C   C55       1.0  0.83721  0.63019  0.36040  1.0000 -0.1043206655
C   C56       1.0  0.91258  0.66822  0.31830  1.0000 -0.1607387379
C   C57       1.0  0.11429  0.87831  0.29690  1.0000 0.0836769756
C   C58       1.0  0.22900  0.04020  0.31930  1.0000 -0.1482266985
C   C59       1.0  0.15280  0.00140  0.36140  1.0000 -0.0786082611
C   C60       1.0  0.48627  0.12393  0.20520  1.0000 0.0310279972
C   C61       1.0  0.67660  0.27140  0.22290  1.0000 0.0063559757
C   C62       1.0  0.82960  0.38800  0.18880  1.0000 -0.1482266985
C   C63       1.0  0.77690  0.34310  0.13910  1.0000 -0.108231275
C   C64       1.0  0.59610  0.19990  0.12330  1.0000 -0.108231275
C   C65       1.0  0.44600  0.08780  0.15560  1.0000 -0.1368645594
C   C66       1.0  0.13782  0.25458  0.92740  1.0000 0.5853230081
C   C67       1.0  0.04896  0.20724  0.88200  1.0000 -0.0212005709
C   C68       1.0  0.16279  0.36981  0.86040  1.0000 -0.1043206655
C   C69       1.0  0.08742  0.33178  0.81830  1.0000 -0.1607387379
C   C70       1.0  0.88571  0.12169  0.79690  1.0000 0.0836769756
C   C71       1.0  0.77100  0.95980  0.81930  1.0000 -0.1482266985
C   C72       1.0  0.84720  0.99860  0.86140  1.0000 -0.0786082611
C   C73       1.0  0.51373  0.87607  0.70520  1.0000 0.0310279972
C   C74       1.0  0.32340  0.72860  0.72290  1.0000 0.0063559757
C   C75       1.0  0.17040  0.61200  0.68880  1.0000 -0.1482266985
C   C76       1.0  0.22310  0.65690  0.63910  1.0000 -0.108231275
C   C77       1.0  0.40390  0.80010  0.62330  1.0000 -0.108231275
C   C78       1.0  0.55400  0.91220  0.65560  1.0000 -0.1368645594
C   C79       1.0  0.74542  0.86218  0.07260  1.0000 0.5853230081
C   C80       1.0  0.79276  0.95104  0.11800  1.0000 -0.0212005709
C   C81       1.0  0.63019  0.83721  0.13960  1.0000 -0.1043206655
C   C82       1.0  0.66822  0.91258  0.18170  1.0000 -0.1607387379
C   C83       1.0  0.87831  0.11429  0.20310  1.0000 0.0836769756
C   C84       1.0  0.04020  0.22900  0.18070  1.0000 -0.1482266985
C   C85       1.0  0.00140  0.15280  0.13860  1.0000 -0.0786082611
C   C86       1.0  0.12393  0.48627  0.29480  1.0000 0.0310279972
C   C87       1.0  0.27140  0.67660  0.27710  1.0000 0.0063559757
C   C88       1.0  0.38800  0.82960  0.31120  1.0000 -0.1482266985
C   C89       1.0  0.34310  0.77690  0.36090  1.0000 -0.108231275
C   C90       1.0  0.19990  0.59610  0.37670  1.0000 -0.108231275
C   C91       1.0  0.08780  0.44600  0.34440  1.0000 -0.1368645594
C   C92       1.0  0.25458  0.13782  0.57260  1.0000 0.5853230081
C   C93       1.0  0.20724  0.04896  0.61800  1.0000 -0.0212005709
C   C94       1.0  0.36981  0.16279  0.63960  1.0000 -0.1043206655
C   C95       1.0  0.33178  0.08742  0.68170  1.0000 -0.1607387379
C   C96       1.0  0.12169  0.88571  0.70310  1.0000 0.0836769756
C   C97       1.0  0.95980  0.77100  0.68070  1.0000 -0.1482266985
C   C98       1.0  0.99860  0.84720  0.63860  1.0000 -0.0786082611
C   C99       1.0  0.87607  0.51373  0.79480  1.0000 0.0310279972
C   C100      1.0  0.72860  0.32340  0.77710  1.0000 0.0063559757
C   C101      1.0  0.61200  0.17040  0.81120  1.0000 -0.1482266985
C   C102      1.0  0.65690  0.22310  0.86090  1.0000 -0.108231275
C   C103      1.0  0.80010  0.40390  0.87670  1.0000 -0.108231275
C   C104      1.0  0.91220  0.55400  0.84440  1.0000 -0.1368645594
C   C105      1.0  0.79750  0.06950  0.75000  1.0000 -0.0212005709
C   C106      1.0  0.63430  0.96210  0.75000  1.0000 -0.0103215479
C   C107      1.0  0.20250  0.93050  0.25000  1.0000 -0.0212005709
C   C108      1.0  0.36570  0.03790  0.25000  1.0000 -0.0103215479
C   C109      1.0  0.06950  0.79750  0.75000  1.0000 -0.0212005709
C   C110      1.0  0.96210  0.63430  0.75000  1.0000 -0.0103215479
C   C111      1.0  0.93050  0.20250  0.25000  1.0000 -0.0212005709
C   C112      1.0  0.03790  0.36570  0.25000  1.0000 -0.0103215479
O   O1        1.0  0.02324  0.09916  0.55510  1.0000 -0.4928816982
O   O2        1.0  0.31872  0.44628  0.55510  1.0000 -0.5129684933
O   O3        1.0  0.97676  0.90084  0.05510  1.0000 -0.4928816982
O   O4        1.0  0.68128  0.55372  0.05510  1.0000 -0.5129684933
O   O5        1.0  0.09916  0.02324  0.94490  1.0000 -0.4928816982
O   O6        1.0  0.44628  0.31872  0.94490  1.0000 -0.5129684933
O   O7        1.0  0.90084  0.97676  0.44490  1.0000 -0.4928816982
O   O8        1.0  0.55372  0.68128  0.44490  1.0000 -0.5129684933
O   O9        1.0  0.97676  0.90084  0.44490  1.0000 -0.4928816982
O   O10       1.0  0.68128  0.55372  0.44490  1.0000 -0.5129684933
O   O11       1.0  0.02324  0.09916  0.94490  1.0000 -0.4928816982
O   O12       1.0  0.31872  0.44628  0.94490  1.0000 -0.5129684933
O   O13       1.0  0.90084  0.97676  0.05510  1.0000 -0.4928816982
O   O14       1.0  0.55372  0.68128  0.05510  1.0000 -0.5129684933
O   O15       1.0  0.09916  0.02324  0.55510  1.0000 -0.4928816982
O   O16       1.0  0.44628  0.31872  0.55510  1.0000 -0.5129684933
O   O17       1.0  0.31220  0.31220  0.47210  1.0000 -0.8660069533
O   O18       1.0  0.68780  0.68780  0.97210  1.0000 -0.8660069533
O   O19       1.0  0.31220  0.31220  0.02790  1.0000 -0.8660069533
O   O20       1.0  0.68780  0.68780  0.52790  1.0000 -0.8660069533
