# DDEC6 charges by PACMAN v1.1 (https://github.com/mtap-research/PACMAN-charge/)
data_2018[Zn][sql]2[FSR]21
_chemical_formula_sum              "Zn4 H92 C128 N20 O16"
_cell_length_a       10.5243
_cell_length_b       14.4457
_cell_length_c       22.5759
_cell_angle_alpha    96.93
_cell_angle_beta     92.886
_cell_angle_gamma    107.652

_symmetry_space_group_name_H-M    "P 1"
_symmetry_Int_Tables_number       1

loop_
  _symmetry_equiv_pos_as_xyz
  'x, y, z'

loop_
  _atom_site_type_symbol
  _atom_site_label
  _atom_site_symmetry_multiplicity
  _atom_site_fract_x
  _atom_site_fract_y
  _atom_site_fract_z
  _atom_site_occupancy
  _atom_site_charge
Zn  Zn1       1.0  0.95969  0.61572  0.17854  1.0000 0.7694102796
Zn  Zn2       1.0  0.51288  0.49872  0.69847  1.0000 0.7694102796
Zn  Zn3       1.0  0.04031  0.38428  0.82146  1.0000 0.7694102796
Zn  Zn4       1.0  0.48712  0.50128  0.30153  1.0000 0.7694102796
H   H1        1.0  0.25330  0.88300  0.60340  1.0000 0.1290010033
H   H2        1.0  0.11020  0.75870  0.74430  1.0000 0.1199698153
H   H3        1.0  0.22620  0.64840  0.72690  1.0000 0.1199698153
H   H4        1.0  0.36680  0.77130  0.58490  1.0000 0.1199698153
H   H5        1.0  0.03440  0.98720  0.78860  1.0000 0.1199698153
H   H6        1.0  0.82450  0.94540  0.82460  1.0000 0.1109936981
H   H7        1.0  0.89210  0.76870  0.65200  1.0000 0.1199698153
H   H8        1.0  0.68780  0.72730  0.69230  1.0000 0.1109936981
H   H9        1.0  0.65590  0.81370  0.77700  1.0000 0.1199698153
H   H10       1.0  0.04040  0.06040  0.67140  1.0000 0.1199698153
H   H11       1.0  0.16940  0.22000  0.67330  1.0000 0.1109936981
H   H12       1.0  0.49280  0.15430  0.72560  1.0000 0.1199698153
H   H13       1.0  0.36540  0.99290  0.72250  1.0000 0.1199698153
H   H14       1.0  0.77680  0.59020  0.79980  1.0000 0.1290010033
H   H15       1.0  0.75520  0.63030  0.90560  1.0000 0.1290010033
H   H16       1.0  0.39420  0.52510  0.81940  1.0000 0.1290010033
H   H17       1.0  0.62510  0.71990  0.97230  1.0000 0.1199698153
H   H18       1.0  0.52390  0.73870  0.06010  1.0000 0.1290010033
H   H19       1.0  0.23290  0.48660  0.00420  1.0000 0.1290010033
H   H20       1.0  0.33620  0.46440  0.91810  1.0000 0.1380345794
H   H21       1.0  0.45060  0.66580  0.16380  1.0000 0.1290010033
H   H22       1.0  0.27060  0.66990  0.22720  1.0000 0.1290010033
H   H23       1.0  0.11060  0.60230  0.06130  1.0000 0.1290010033
H   H24       1.0  0.81670  0.49120  0.70750  1.0000 0.1290010033
H   H25       1.0  0.96860  0.53100  0.63080  1.0000 0.1290010033
H   H26       1.0  0.62440  0.56760  0.57790  1.0000 0.1290010033
H   H27       1.0  0.68320  0.52620  0.48000  1.0000 0.1380345794
H   H28       1.0  0.75430  0.57790  0.39090  1.0000 0.1380345794
H   H29       1.0  0.05440  0.65160  0.55900  1.0000 0.1290010033
H   H30       1.0  0.12850  0.69620  0.46840  1.0000 0.1290010033
H   H31       1.0  0.13950  0.80160  0.38500  1.0000 0.1290010033
H   H32       1.0  0.14460  0.79680  0.27630  1.0000 0.1290010033
H   H33       1.0  0.87330  0.55670  0.30370  1.0000 0.1199698153
H   H34       1.0  0.86840  0.92510  0.96300  1.0000 0.1199698153
H   H35       1.0  0.72870  0.97840  0.12110  1.0000 0.1199698153
H   H36       1.0  0.91460  0.79150  0.99340  1.0000 0.1109936981
H   H37       1.0  0.77870  0.84560  0.15230  1.0000 0.1199698153
H   H38       1.0  0.01730  0.27070  0.16810  1.0000 0.1109936981
H   H39       1.0  0.95730  0.12190  0.10820  1.0000 0.1199698153
H   H40       1.0  0.72110  0.33780  0.08330  1.0000 0.1109936981
H   H41       1.0  0.66250  0.19010  0.02380  1.0000 0.1199698153
H   H42       1.0  0.83930  0.16770  0.94000  1.0000 0.1290010033
H   H43       1.0  0.73790  0.15400  0.84450  1.0000 0.1109936981
H   H44       1.0  0.55630  0.02060  0.80750  1.0000 0.1109936981
H   H45       1.0  0.47070  0.90230  0.86600  1.0000 0.1199698153
H   H46       1.0  0.56630  0.91260  0.96100  1.0000 0.1199698153
H   H47       1.0  0.74670  0.11700  0.39660  1.0000 0.1290010033
H   H48       1.0  0.88980  0.24130  0.25570  1.0000 0.1199698153
H   H49       1.0  0.77380  0.35160  0.27310  1.0000 0.1199698153
H   H50       1.0  0.63320  0.22870  0.41510  1.0000 0.1199698153
H   H51       1.0  0.96560  0.01280  0.21140  1.0000 0.1199698153
H   H52       1.0  0.17550  0.05460  0.17540  1.0000 0.1109936981
H   H53       1.0  0.10790  0.23130  0.34800  1.0000 0.1199698153
H   H54       1.0  0.31220  0.27270  0.30770  1.0000 0.1109936981
H   H55       1.0  0.34410  0.18630  0.22300  1.0000 0.1199698153
H   H56       1.0  0.95960  0.93960  0.32860  1.0000 0.1199698153
H   H57       1.0  0.83060  0.78000  0.32670  1.0000 0.1109936981
H   H58       1.0  0.50720  0.84570  0.27440  1.0000 0.1199698153
H   H59       1.0  0.63460  0.00710  0.27750  1.0000 0.1199698153
H   H60       1.0  0.22320  0.40980  0.20020  1.0000 0.1290010033
H   H61       1.0  0.24480  0.36970  0.09440  1.0000 0.1290010033
H   H62       1.0  0.60580  0.47490  0.18060  1.0000 0.1290010033
H   H63       1.0  0.37490  0.28010  0.02770  1.0000 0.1199698153
H   H64       1.0  0.47610  0.26130  0.93990  1.0000 0.1290010033
H   H65       1.0  0.76710  0.51340  0.99580  1.0000 0.1290010033
H   H66       1.0  0.66380  0.53560  0.08190  1.0000 0.1380345794
H   H67       1.0  0.54940  0.33420  0.83620  1.0000 0.1290010033
H   H68       1.0  0.72940  0.33010  0.77280  1.0000 0.1290010033
H   H69       1.0  0.88940  0.39770  0.93870  1.0000 0.1290010033
H   H70       1.0  0.18330  0.50880  0.29250  1.0000 0.1290010033
H   H71       1.0  0.03140  0.46900  0.36920  1.0000 0.1290010033
H   H72       1.0  0.37560  0.43240  0.42210  1.0000 0.1290010033
H   H73       1.0  0.31680  0.47380  0.52000  1.0000 0.1380345794
H   H74       1.0  0.24570  0.42210  0.60910  1.0000 0.1380345794
H   H75       1.0  0.94560  0.34840  0.44100  1.0000 0.1290010033
H   H76       1.0  0.87150  0.30380  0.53160  1.0000 0.1290010033
H   H77       1.0  0.86050  0.19840  0.61500  1.0000 0.1290010033
H   H78       1.0  0.85540  0.20320  0.72370  1.0000 0.1290010033
H   H79       1.0  0.12670  0.44330  0.69630  1.0000 0.1199698153
H   H80       1.0  0.13160  0.07490  0.03700  1.0000 0.1199698153
H   H81       1.0  0.27130  0.02160  0.87890  1.0000 0.1199698153
H   H82       1.0  0.08540  0.20850  0.00660  1.0000 0.1109936981
H   H83       1.0  0.22130  0.15440  0.84770  1.0000 0.1199698153
H   H84       1.0  0.98270  0.72930  0.83190  1.0000 0.1109936981
H   H85       1.0  0.04270  0.87810  0.89180  1.0000 0.1199698153
H   H86       1.0  0.27890  0.66220  0.91670  1.0000 0.1109936981
H   H87       1.0  0.33750  0.80990  0.97620  1.0000 0.1199698153
H   H88       1.0  0.16070  0.83230  0.06000  1.0000 0.1290010033
H   H89       1.0  0.26210  0.84600  0.15550  1.0000 0.1109936981
H   H90       1.0  0.44370  0.97940  0.19250  1.0000 0.1199698153
H   H91       1.0  0.52930  0.09770  0.13400  1.0000 0.1199698153
H   H92       1.0  0.43370  0.08740  0.03900  1.0000 0.1199698153
C   C1        1.0  0.39610  0.63240  0.64660  1.0000 0.5500360253
C   C2        1.0  0.31310  0.70000  0.65570  1.0000 -0.0485674059
C   C3        1.0  0.24910  0.83660  0.62900  1.0000 -0.1908352999
C   C4        1.0  0.17470  0.83590  0.67750  1.0000 0.1811881746
C   C5        1.0  0.16450  0.76300  0.71290  1.0000 -0.1908352999
C   C6        1.0  0.23360  0.69650  0.70220  1.0000 -0.1001463672
C   C7        1.0  0.31730  0.76980  0.61800  1.0000 -0.1001463672
C   C8        1.0  0.98450  0.88360  0.71530  1.0000 0.1811881746
C   C9        1.0  0.96450  0.93540  0.76810  1.0000 -0.1908352999
C   C10       1.0  0.83920  0.90930  0.79010  1.0000 -0.0883531181
C   C11       1.0  0.88050  0.80500  0.68710  1.0000 -0.1823406098
C   C12       1.0  0.75800  0.78050  0.71140  1.0000 -0.0755904121
C   C13       1.0  0.73880  0.83160  0.76160  1.0000 -0.1081797489
C   C14       1.0  0.19090  0.00910  0.69520  1.0000 0.1811881746
C   C15       1.0  0.13220  0.07850  0.68160  1.0000 -0.1823406098
C   C16       1.0  0.20980  0.17430  0.68320  1.0000 -0.0883531181
C   C17       1.0  0.34450  0.20440  0.69890  1.0000 -0.0328095555
C   C18       1.0  0.40150  0.13540  0.71400  1.0000 -0.1001463672
C   C19       1.0  0.32510  0.03840  0.71210  1.0000 -0.1908352999
C   C20       1.0  0.42920  0.30830  0.69870  1.0000 0.5422863585
C   C21       1.0  0.69660  0.58240  0.81720  1.0000 -0.0386200848
C   C22       1.0  0.68530  0.60390  0.87550  1.0000 -0.1001463672
C   C23       1.0  0.48680  0.54610  0.82742  1.0000 0.1109936981
C   C24       1.0  0.48990  0.59060  0.93715  1.0000 0.1480976489
C   C25       1.0  0.54660  0.67280  0.97896  1.0000 -0.1693484625
C   C26       1.0  0.48550  0.68430  0.03113  1.0000 -0.1612006304
C   C27       1.0  0.36840  0.61550  0.03978  1.0000 0.1380345794
C   C28       1.0  0.31210  0.53310  0.99775  1.0000 -0.1612006304
C   C29       1.0  0.37310  0.52010  0.94635  1.0000 -0.1496647794
C   C30       1.0  0.36090  0.65350  0.15106  1.0000 -0.1001463672
C   C31       1.0  0.26100  0.65580  0.18561  1.0000 -0.0328095555
C   C32       1.0  0.17260  0.61860  0.09472  1.0000 0.1199698153
C   C33       1.0  0.79700  0.51120  0.67150  1.0000 -0.0328095555
C   C34       1.0  0.88110  0.53320  0.62960  1.0000 -0.1081797489
C   C35       1.0  0.69020  0.55300  0.60057  1.0000 0.1040022942
C   C36       1.0  0.86150  0.58670  0.52839  1.0000 0.1480976489
C   C37       1.0  0.77220  0.56230  0.47800  1.0000 -0.1496647794
C   C38       1.0  0.81540  0.59160  0.42450  1.0000 -0.1496647794
C   C39       1.0  0.99420  0.63620  0.52500  1.0000 -0.1612006304
C   C40       1.0  0.03850  0.66320  0.47090  1.0000 -0.1693484625
C   C41       1.0  0.94760  0.64080  0.42061  1.0000 0.1480976489
C   C42       1.0  0.08640  0.75230  0.35570  1.0000 -0.1081797489
C   C43       1.0  0.08900  0.74890  0.29560  1.0000 -0.0386200848
C   C44       1.0  0.93980  0.61730  0.31018  1.0000 0.1199698153
C   C45       1.0  0.79510  0.96630  0.03930  1.0000 0.1811881746
C   C46       1.0  0.85020  0.90930  0.00110  1.0000 -0.1979601709
C   C47       1.0  0.76720  0.94130  0.09550  1.0000 -0.1979601709
C   C48       1.0  0.87790  0.82940  0.01940  1.0000 -0.1081797489
C   C49       1.0  0.79640  0.86130  0.11410  1.0000 -0.1001463672
C   C50       1.0  0.85200  0.80480  0.07590  1.0000 -0.0328095555
C   C51       1.0  0.88640  0.71810  0.09520  1.0000 0.5422863585
C   C52       1.0  0.91730  0.41970  0.17097  1.0000 0.5422863585
C   C53       1.0  0.87550  0.32140  0.13263  1.0000 -0.0386200848
C   C54       1.0  0.94550  0.25470  0.13901  1.0000 -0.1081797489
C   C55       1.0  0.90970  0.16550  0.10285  1.0000 -0.1908352999
C   C56       1.0  0.76930  0.29470  0.08850  1.0000 -0.0883531181
C   C57       1.0  0.73460  0.20620  0.05280  1.0000 -0.1979601709
C   C58       1.0  0.80410  0.13930  0.05860  1.0000 0.1865513297
C   C59       1.0  0.71090  0.04200  0.96120  1.0000 0.1865513297
C   C60       1.0  0.76440  0.11440  0.92550  1.0000 -0.1823406098
C   C61       1.0  0.70420  0.10550  0.86830  1.0000 -0.0883531181
C   C62       1.0  0.59530  0.02610  0.84620  1.0000 -0.1081797489
C   C63       1.0  0.54490  0.95570  0.88100  1.0000 -0.0883531181
C   C64       1.0  0.60130  0.96190  0.93800  1.0000 -0.1908352999
C   C65       1.0  0.60390  0.36760  0.35340  1.0000 0.5500360253
C   C66       1.0  0.68690  0.30000  0.34430  1.0000 -0.0485674059
C   C67       1.0  0.75090  0.16340  0.37100  1.0000 -0.1908352999
C   C68       1.0  0.82530  0.16410  0.32250  1.0000 0.1811881746
C   C69       1.0  0.83550  0.23700  0.28710  1.0000 -0.1908352999
C   C70       1.0  0.76640  0.30350  0.29780  1.0000 -0.1001463672
C   C71       1.0  0.68270  0.23020  0.38200  1.0000 -0.1001463672
C   C72       1.0  0.01550  0.11640  0.28470  1.0000 0.1811881746
C   C73       1.0  0.03550  0.06460  0.23190  1.0000 -0.1823406098
C   C74       1.0  0.16080  0.09070  0.20990  1.0000 -0.0883531181
C   C75       1.0  0.11950  0.19500  0.31290  1.0000 -0.1823406098
C   C76       1.0  0.24200  0.21950  0.28860  1.0000 -0.0755904121
C   C77       1.0  0.26120  0.16840  0.23840  1.0000 -0.1081797489
C   C78       1.0  0.80910  0.99090  0.30480  1.0000 0.1811881746
C   C79       1.0  0.86780  0.92150  0.31840  1.0000 -0.1823406098
C   C80       1.0  0.79020  0.82570  0.31680  1.0000 -0.0883531181
C   C81       1.0  0.65550  0.79560  0.30110  1.0000 -0.0328095555
C   C82       1.0  0.59850  0.86460  0.28600  1.0000 -0.1001463672
C   C83       1.0  0.67490  0.96160  0.28790  1.0000 -0.1908352999
C   C84       1.0  0.57080  0.69170  0.30130  1.0000 0.5422863585
C   C85       1.0  0.30340  0.41760  0.18280  1.0000 -0.0386200848
C   C86       1.0  0.31470  0.39610  0.12450  1.0000 -0.1001463672
C   C87       1.0  0.51320  0.45390  0.17258  1.0000 0.1109936981
C   C88       1.0  0.51010  0.40940  0.06285  1.0000 0.1480976489
C   C89       1.0  0.45340  0.32720  0.02104  1.0000 -0.1693484625
C   C90       1.0  0.51450  0.31570  0.96887  1.0000 -0.1612006304
C   C91       1.0  0.63160  0.38450  0.96022  1.0000 0.1380345794
C   C92       1.0  0.68790  0.46690  0.00225  1.0000 -0.1496647794
C   C93       1.0  0.62690  0.47990  0.05365  1.0000 -0.1496647794
C   C94       1.0  0.63910  0.34650  0.84894  1.0000 -0.1001463672
C   C95       1.0  0.73900  0.34420  0.81439  1.0000 -0.0328095555
C   C96       1.0  0.82740  0.38140  0.90528  1.0000 0.1199698153
C   C97       1.0  0.20300  0.48880  0.32850  1.0000 -0.0328095555
C   C98       1.0  0.11890  0.46680  0.37040  1.0000 -0.1081797489
C   C99       1.0  0.30980  0.44700  0.39943  1.0000 0.1040022942
C   C100      1.0  0.13850  0.41330  0.47161  1.0000 0.1480976489
C   C101      1.0  0.22780  0.43770  0.52200  1.0000 -0.1496647794
C   C102      1.0  0.18460  0.40840  0.57550  1.0000 -0.1496647794
C   C103      1.0  0.00580  0.36380  0.47500  1.0000 -0.1612006304
C   C104      1.0  0.96150  0.33680  0.52910  1.0000 -0.1693484625
C   C105      1.0  0.05240  0.35920  0.57939  1.0000 0.1480976489
C   C106      1.0  0.91360  0.24770  0.64430  1.0000 -0.1081797489
C   C107      1.0  0.91100  0.25110  0.70440  1.0000 -0.0386200848
C   C108      1.0  0.06020  0.38270  0.68982  1.0000 0.1199698153
C   C109      1.0  0.20490  0.03370  0.96070  1.0000 0.1811881746
C   C110      1.0  0.14980  0.09070  0.99890  1.0000 -0.1979601709
C   C111      1.0  0.23280  0.05870  0.90450  1.0000 -0.1979601709
C   C112      1.0  0.12210  0.17060  0.98060  1.0000 -0.1081797489
C   C113      1.0  0.20360  0.13870  0.88590  1.0000 -0.1001463672
C   C114      1.0  0.14800  0.19520  0.92410  1.0000 -0.0328095555
C   C115      1.0  0.11360  0.28190  0.90480  1.0000 0.5422863585
C   C116      1.0  0.08270  0.58030  0.82903  1.0000 0.5422863585
C   C117      1.0  0.12450  0.67860  0.86737  1.0000 -0.0386200848
C   C118      1.0  0.05450  0.74530  0.86099  1.0000 -0.1081797489
C   C119      1.0  0.09030  0.83450  0.89715  1.0000 -0.1979601709
C   C120      1.0  0.23070  0.70530  0.91150  1.0000 -0.0883531181
C   C121      1.0  0.26540  0.79380  0.94720  1.0000 -0.1979601709
C   C122      1.0  0.19590  0.86070  0.94140  1.0000 0.1865513297
C   C123      1.0  0.28910  0.95800  0.03880  1.0000 0.1865513297
C   C124      1.0  0.23560  0.88560  0.07450  1.0000 -0.1823406098
C   C125      1.0  0.29580  0.89450  0.13170  1.0000 -0.0883531181
C   C126      1.0  0.40470  0.97390  0.15380  1.0000 -0.1081797489
C   C127      1.0  0.45510  0.04430  0.11900  1.0000 -0.0883531181
C   C128      1.0  0.39870  0.03810  0.06200  1.0000 -0.1908352999
N   N1        1.0  0.76920  0.04960  0.02030  1.0000 -0.1823406098
N   N2        1.0  0.99710  0.66430  0.26783  1.0000 -0.2699404237
N   N3        1.0  0.99020  0.66860  0.36457  1.0000 0.0051746723
N   N4        1.0  0.81340  0.55990  0.58390  1.0000 0.0037960751
N   N5        1.0  0.67560  0.52270  0.65334  1.0000 -0.279232542
N   N6        1.0  0.57050  0.54670  0.78678  1.0000 -0.279232542
N   N7        1.0  0.55130  0.57990  0.88264  1.0000 0.0037960751
N   N8        1.0  0.11170  0.90880  0.69130  1.0000 -0.1979601709
N   N9        1.0  0.30270  0.62910  0.09253  1.0000 -0.0011667178
N   N10       1.0  0.14320  0.63430  0.15038  1.0000 -0.2874287245
N   N11       1.0  0.23080  0.95040  0.97970  1.0000 -0.1823406098
N   N12       1.0  0.00290  0.33570  0.73217  1.0000 -0.2699404237
N   N13       1.0  0.00980  0.33140  0.63543  1.0000 0.0051746723
N   N14       1.0  0.18660  0.44010  0.41610  1.0000 0.0037960751
N   N15       1.0  0.32440  0.47730  0.34666  1.0000 -0.279232542
N   N16       1.0  0.42950  0.45330  0.21322  1.0000 -0.279232542
N   N17       1.0  0.44870  0.42010  0.11736  1.0000 0.0037960751
N   N18       1.0  0.88830  0.09120  0.30870  1.0000 -0.1979601709
N   N19       1.0  0.69730  0.37090  0.90747  1.0000 -0.0011667178
N   N20       1.0  0.85680  0.36570  0.84962  1.0000 -0.2874287245
O   O1        1.0  0.92370  0.66450  0.05784  1.0000 -0.5658901511
O   O2        1.0  0.87470  0.70680  0.15002  1.0000 -0.5519207892
O   O3        1.0  0.55170  0.33000  0.70700  1.0000 -0.5389900483
O   O4        1.0  0.37200  0.37090  0.68957  1.0000 -0.5389900483
O   O5        1.0  0.45750  0.63050  0.60159  1.0000 -0.5624397276
O   O6        1.0  0.39470  0.57820  0.68679  1.0000 -0.5519207892
O   O7        1.0  0.85200  0.47880  0.15843  1.0000 -0.5624397276
O   O8        1.0  0.01000  0.44110  0.20999  1.0000 -0.5389900483
O   O9        1.0  0.07630  0.33550  0.94216  1.0000 -0.5658901511
O   O10       1.0  0.12530  0.29320  0.84998  1.0000 -0.5519207892
O   O11       1.0  0.44830  0.67000  0.29300  1.0000 -0.5389900483
O   O12       1.0  0.62800  0.62910  0.31043  1.0000 -0.5389900483
O   O13       1.0  0.54250  0.36950  0.39841  1.0000 -0.5624397276
O   O14       1.0  0.60530  0.42180  0.31321  1.0000 -0.5519207892
O   O15       1.0  0.14800  0.52120  0.84157  1.0000 -0.5624397276
O   O16       1.0  0.99000  0.55890  0.79001  1.0000 -0.5389900483
