# DDEC6 charges by PACMAN v1.1 (https://github.com/mtap-research/PACMAN-charge/)
data_2018[Zn][nan]3[FSR]6
_chemical_formula_sum              "Zn8 H32 C36 O40"
_cell_length_a       10.3108
_cell_length_b       14.5934
_cell_length_c       14.5241
_cell_angle_alpha    90
_cell_angle_beta     107.038
_cell_angle_gamma    90

_symmetry_space_group_name_H-M    "P 1"
_symmetry_Int_Tables_number       1

loop_
  _symmetry_equiv_pos_as_xyz
  'x, y, z'

loop_
  _atom_site_type_symbol
  _atom_site_label
  _atom_site_symmetry_multiplicity
  _atom_site_fract_x
  _atom_site_fract_y
  _atom_site_fract_z
  _atom_site_occupancy
  _atom_site_charge
Zn  Zn1       1.0  0.37285  0.02558  0.03797  1.0000 0.922536269
Zn  Zn2       1.0  0.95768  0.39464  0.41478  1.0000 0.8946888597
Zn  Zn3       1.0  0.62715  0.52558  0.46203  1.0000 0.922536269
Zn  Zn4       1.0  0.04232  0.89464  0.08522  1.0000 0.8946888597
Zn  Zn5       1.0  0.62715  0.97442  0.96203  1.0000 0.922536269
Zn  Zn6       1.0  0.04232  0.60536  0.58522  1.0000 0.8946888597
Zn  Zn7       1.0  0.37285  0.47442  0.53797  1.0000 0.922536269
Zn  Zn8       1.0  0.95768  0.10536  0.91478  1.0000 0.8946888597
H   H1        1.0  0.20290  0.23480  0.26210  1.0000 0.1139990763
H   H2        1.0  0.58480  0.22220  0.27080  1.0000 0.124530092
H   H3        1.0  0.95600  0.26580  0.53040  1.0000 0.3559238315
H   H4        1.0  0.02420  0.33840  0.58540  1.0000 0.3313469918
H   H5        1.0  0.91350  0.46090  0.55000  1.0000 0.2512979285
H   H6        1.0  0.85980  0.51700  0.47410  1.0000 0.3228801242
H   H7        1.0  0.86700  0.53620  0.31190  1.0000 0.3356146963
H   H8        1.0  0.97030  0.50390  0.27900  1.0000 0.3313469918
H   H9        1.0  0.79710  0.73480  0.23790  1.0000 0.1139990763
H   H10       1.0  0.41520  0.72220  0.22920  1.0000 0.124530092
H   H11       1.0  0.04400  0.76580  0.96960  1.0000 0.3559238315
H   H12       1.0  0.97580  0.83840  0.91460  1.0000 0.3313469918
H   H13       1.0  0.08650  0.96090  0.95000  1.0000 0.2512979285
H   H14       1.0  0.14020  0.01700  0.02590  1.0000 0.3228801242
H   H15       1.0  0.13300  0.03620  0.18810  1.0000 0.3313469918
H   H16       1.0  0.02970  0.00390  0.22100  1.0000 0.3313469918
H   H17       1.0  0.79710  0.76520  0.73790  1.0000 0.1139990763
H   H18       1.0  0.41520  0.77780  0.72920  1.0000 0.124530092
H   H19       1.0  0.04400  0.73420  0.46960  1.0000 0.3559238315
H   H20       1.0  0.97580  0.66160  0.41460  1.0000 0.3313469918
H   H21       1.0  0.08650  0.53910  0.45000  1.0000 0.2512979285
H   H22       1.0  0.14020  0.48300  0.52590  1.0000 0.3228801242
H   H23       1.0  0.13300  0.46380  0.68810  1.0000 0.3356146963
H   H24       1.0  0.02970  0.49610  0.72100  1.0000 0.3313469918
H   H25       1.0  0.20290  0.26520  0.76210  1.0000 0.1139990763
H   H26       1.0  0.58480  0.27780  0.77080  1.0000 0.124530092
H   H27       1.0  0.95600  0.23420  0.03040  1.0000 0.3559238315
H   H28       1.0  0.02420  0.16160  0.08540  1.0000 0.3313469918
H   H29       1.0  0.91350  0.03910  0.05000  1.0000 0.2512979285
H   H30       1.0  0.85980  0.98300  0.97410  1.0000 0.3313469918
H   H31       1.0  0.86700  0.96380  0.81190  1.0000 0.3356146963
H   H32       1.0  0.97030  0.99610  0.77900  1.0000 0.3313469918
C   C1        1.0  0.35280  0.14370  0.17670  1.0000 0.5654961617
C   C2        1.0  0.38630  0.21940  0.25150  1.0000 -0.0634117964
C   C3        1.0  0.29070  0.25780  0.28460  1.0000 -0.1095457392
C   C4        1.0  0.51650  0.25000  0.29070  1.0000 -0.0955168529
C   C5        1.0  0.31400  0.33050  0.35130  1.0000 -0.1754927261
C   C6        1.0  0.55150  0.31710  0.35530  1.0000 -0.157038167
C   C7        1.0  0.44910  0.36140  0.38370  1.0000 0.3037471475
C   C8        1.0  0.19770  0.36690  0.38220  1.0000 0.5783412309
C   C9        1.0  0.69810  0.34680  0.38570  1.0000 0.5783412309
C   C10       1.0  0.64720  0.64370  0.32330  1.0000 0.5654961617
C   C11       1.0  0.61370  0.71940  0.24850  1.0000 -0.0634117964
C   C12       1.0  0.70930  0.75780  0.21540  1.0000 -0.1095457392
C   C13       1.0  0.48350  0.75000  0.20930  1.0000 -0.0948066338
C   C14       1.0  0.68600  0.83050  0.14870  1.0000 -0.1754927261
C   C15       1.0  0.44850  0.81710  0.14470  1.0000 -0.157038167
C   C16       1.0  0.55090  0.86140  0.11630  1.0000 0.3037471475
C   C17       1.0  0.80230  0.86690  0.11780  1.0000 0.5783412309
C   C18       1.0  0.30190  0.84680  0.11430  1.0000 0.5783412309
C   C19       1.0  0.64720  0.85630  0.82330  1.0000 0.5654961617
C   C20       1.0  0.61370  0.78060  0.74850  1.0000 -0.0634117964
C   C21       1.0  0.70930  0.74220  0.71540  1.0000 -0.1095457392
C   C22       1.0  0.48350  0.75000  0.70930  1.0000 -0.0955168529
C   C23       1.0  0.68600  0.66950  0.64870  1.0000 -0.1754927261
C   C24       1.0  0.44850  0.68290  0.64470  1.0000 -0.157038167
C   C25       1.0  0.55090  0.63860  0.61630  1.0000 0.3037471475
C   C26       1.0  0.80230  0.63310  0.61780  1.0000 0.5783412309
C   C27       1.0  0.30190  0.65320  0.61430  1.0000 0.5783412309
C   C28       1.0  0.35280  0.35630  0.67670  1.0000 0.5649953635
C   C29       1.0  0.38630  0.28060  0.75150  1.0000 -0.0634117964
C   C30       1.0  0.29070  0.24220  0.78460  1.0000 -0.1095457392
C   C31       1.0  0.51650  0.25000  0.79070  1.0000 -0.0955168529
C   C32       1.0  0.31400  0.16950  0.85130  1.0000 -0.1754927261
C   C33       1.0  0.55150  0.18290  0.85530  1.0000 -0.157038167
C   C34       1.0  0.44910  0.13860  0.88370  1.0000 0.3037471475
C   C35       1.0  0.19770  0.13310  0.88220  1.0000 0.5783412309
C   C36       1.0  0.69810  0.15320  0.88570  1.0000 0.5783412309
O   O1        1.0  0.44490  0.10990  0.14780  1.0000 -0.5162170975
O   O2        1.0  0.47920  0.43110  0.44350  1.0000 -0.5757876485
O   O3        1.0  0.20930  0.42860  0.43820  1.0000 -0.5267015098
O   O4        1.0  0.73690  0.42140  0.43460  1.0000 -0.5953789799
O   O5        1.0  0.23600  0.11500  0.15090  1.0000 -0.5641515403
O   O6        1.0  0.08300  0.33180  0.34190  1.0000 -0.5020820796
O   O7        1.0  0.78780  0.30020  0.37070  1.0000 -0.4778586625
O   O8        1.0  0.01570  0.30710  0.53460  1.0000 -0.6519563793
O   O9        1.0  0.93340  0.49190  0.50650  1.0000 -0.34809722
O   O10       1.0  0.90100  0.48800  0.29560  1.0000 -0.6519563793
O   O11       1.0  0.55510  0.60990  0.35220  1.0000 -0.5162170975
O   O12       1.0  0.52080  0.93110  0.05650  1.0000 -0.5757876485
O   O13       1.0  0.79070  0.92860  0.06180  1.0000 -0.5267015098
O   O14       1.0  0.26310  0.92140  0.06540  1.0000 -0.5953789799
O   O15       1.0  0.76400  0.61500  0.34910  1.0000 -0.5641515403
O   O16       1.0  0.91700  0.83180  0.15810  1.0000 -0.5020820796
O   O17       1.0  0.21220  0.80020  0.12930  1.0000 -0.4778586625
O   O18       1.0  0.98430  0.80710  0.96540  1.0000 -0.6519563793
O   O19       1.0  0.06660  0.99190  0.99350  1.0000 -0.34809722
O   O20       1.0  0.09900  0.98800  0.20440  1.0000 -0.6519563793
O   O21       1.0  0.55510  0.89010  0.85220  1.0000 -0.5162170975
O   O22       1.0  0.52080  0.56890  0.55650  1.0000 -0.5757876485
O   O23       1.0  0.79070  0.57140  0.56180  1.0000 -0.5267015098
O   O24       1.0  0.26310  0.57860  0.56540  1.0000 -0.5953789799
O   O25       1.0  0.76400  0.88500  0.84910  1.0000 -0.5641515403
O   O26       1.0  0.91700  0.66820  0.65810  1.0000 -0.5020820796
O   O27       1.0  0.21220  0.69980  0.62930  1.0000 -0.4778586625
O   O28       1.0  0.98430  0.69290  0.46540  1.0000 -0.6519563793
O   O29       1.0  0.06660  0.50810  0.49350  1.0000 -0.34809722
O   O30       1.0  0.09900  0.51200  0.70440  1.0000 -0.6519563793
O   O31       1.0  0.44490  0.39010  0.64780  1.0000 -0.5162170975
O   O32       1.0  0.47920  0.06890  0.94350  1.0000 -0.5757876485
O   O33       1.0  0.20930  0.07140  0.93820  1.0000 -0.5267015098
O   O34       1.0  0.73690  0.07860  0.93460  1.0000 -0.5953789799
O   O35       1.0  0.23600  0.38500  0.65090  1.0000 -0.5641515403
O   O36       1.0  0.08300  0.16820  0.84190  1.0000 -0.5020820796
O   O37       1.0  0.78780  0.19980  0.87070  1.0000 -0.4778586625
O   O38       1.0  0.01570  0.19290  0.03460  1.0000 -0.6519563793
O   O39       1.0  0.93340  0.00810  0.00650  1.0000 -0.34809722
O   O40       1.0  0.90100  0.01200  0.79560  1.0000 -0.6519563793
