# DDEC6 charges by PACMAN v1.1 (https://github.com/mtap-research/PACMAN-charge/)
data_2018[Cd][pts]3[FSR]1
_chemical_formula_sum              "Cd4 H72 C136 O32"
_cell_length_a       10.8783
_cell_length_b       15.788
_cell_length_c       28.744
_cell_angle_alpha    90
_cell_angle_beta     90
_cell_angle_gamma    90

_symmetry_space_group_name_H-M    "P 1"
_symmetry_Int_Tables_number       1

loop_
  _symmetry_equiv_pos_as_xyz
  'x, y, z'

loop_
  _atom_site_type_symbol
  _atom_site_label
  _atom_site_symmetry_multiplicity
  _atom_site_fract_x
  _atom_site_fract_y
  _atom_site_fract_z
  _atom_site_occupancy
  _atom_site_charge
Cd  Cd1       1.0  0.50000  0.50000  0.70994  1.0000 0.9841710722
Cd  Cd2       1.0  0.50000  0.50000  0.29006  1.0000 0.9841710722
Cd  Cd3       1.0  0.50000  0.00000  0.79006  1.0000 0.9841710722
Cd  Cd4       1.0  0.50000  0.00000  0.20994  1.0000 0.9841710722
H   H1        1.0  0.34490  0.33020  0.57280  1.0000 0.1207982608
H   H2        1.0  0.35530  0.21550  0.52150  1.0000 0.1207982608
H   H3        1.0  0.64400  0.12430  0.59310  1.0000 0.1129829755
H   H4        1.0  0.63160  0.24180  0.64200  1.0000 0.1287375443
H   H5        1.0  0.66250  0.40670  0.85450  1.0000 0.1287375443
H   H6        1.0  0.76570  0.40170  0.92280  1.0000 0.1207982608
H   H7        1.0  0.94190  0.61400  0.88900  1.0000 0.1207982608
H   H8        1.0  0.83790  0.61640  0.81810  1.0000 0.1287375443
H   H9        1.0  0.34490  0.66980  0.42720  1.0000 0.1207982608
H   H10       1.0  0.35530  0.78450  0.47850  1.0000 0.1207982608
H   H11       1.0  0.64400  0.87570  0.40690  1.0000 0.1129829755
H   H12       1.0  0.63160  0.75820  0.35800  1.0000 0.1287375443
H   H13       1.0  0.66250  0.59330  0.14550  1.0000 0.1287375443
H   H14       1.0  0.76570  0.59830  0.07720  1.0000 0.1207982608
H   H15       1.0  0.94190  0.38600  0.11100  1.0000 0.1207982608
H   H16       1.0  0.83790  0.38360  0.18190  1.0000 0.1287375443
H   H17       1.0  0.65510  0.66980  0.57280  1.0000 0.1207982608
H   H18       1.0  0.64470  0.78450  0.52150  1.0000 0.1207982608
H   H19       1.0  0.35600  0.87570  0.59310  1.0000 0.1129829755
H   H20       1.0  0.36840  0.75820  0.64200  1.0000 0.1287375443
H   H21       1.0  0.33750  0.59330  0.85450  1.0000 0.1287375443
H   H22       1.0  0.23430  0.59830  0.92280  1.0000 0.1207982608
H   H23       1.0  0.05810  0.38600  0.88900  1.0000 0.1207982608
H   H24       1.0  0.16210  0.38360  0.81810  1.0000 0.1287375443
H   H25       1.0  0.65510  0.33020  0.42720  1.0000 0.1207982608
H   H26       1.0  0.64470  0.21550  0.47850  1.0000 0.1207982608
H   H27       1.0  0.35600  0.12430  0.40690  1.0000 0.1129829755
H   H28       1.0  0.36840  0.24180  0.35800  1.0000 0.1287375443
H   H29       1.0  0.33750  0.40670  0.14550  1.0000 0.1287375443
H   H30       1.0  0.23430  0.40170  0.07720  1.0000 0.1207982608
H   H31       1.0  0.05810  0.61400  0.11100  1.0000 0.1207982608
H   H32       1.0  0.16210  0.61640  0.18190  1.0000 0.1287375443
H   H33       1.0  0.50000  0.00000  0.58000  1.0000 0.1207982608
H   H34       1.0  0.50000  0.00000  0.42000  1.0000 0.1207982608
H   H35       1.0  0.79000  0.50000  0.00000  1.0000 0.1287375443
H   H36       1.0  0.21000  0.50000  0.00000  1.0000 0.1287375443
H   H37       1.0  0.65510  0.16980  0.92720  1.0000 0.1207982608
H   H38       1.0  0.64470  0.28450  0.97850  1.0000 0.1207982608
H   H39       1.0  0.35600  0.37570  0.90690  1.0000 0.1129829755
H   H40       1.0  0.36840  0.25820  0.85800  1.0000 0.1287375443
H   H41       1.0  0.33750  0.09330  0.64550  1.0000 0.1287375443
H   H42       1.0  0.23430  0.09830  0.57720  1.0000 0.1207982608
H   H43       1.0  0.05810  0.88600  0.61100  1.0000 0.1207982608
H   H44       1.0  0.16210  0.88360  0.68190  1.0000 0.1287375443
H   H45       1.0  0.65510  0.83020  0.07280  1.0000 0.1207982608
H   H46       1.0  0.64470  0.71550  0.02150  1.0000 0.1207982608
H   H47       1.0  0.35600  0.62430  0.09310  1.0000 0.1129829755
H   H48       1.0  0.36840  0.74180  0.14200  1.0000 0.1287375443
H   H49       1.0  0.33750  0.90670  0.35450  1.0000 0.1287375443
H   H50       1.0  0.23430  0.90170  0.42280  1.0000 0.1207982608
H   H51       1.0  0.05810  0.11400  0.38900  1.0000 0.1207982608
H   H52       1.0  0.16210  0.11640  0.31810  1.0000 0.1287375443
H   H53       1.0  0.34490  0.83020  0.92720  1.0000 0.1207982608
H   H54       1.0  0.35530  0.71550  0.97850  1.0000 0.1207982608
H   H55       1.0  0.64400  0.62430  0.90690  1.0000 0.1129829755
H   H56       1.0  0.63160  0.74180  0.85800  1.0000 0.1287375443
H   H57       1.0  0.66250  0.90670  0.64550  1.0000 0.1287375443
H   H58       1.0  0.76570  0.90170  0.57720  1.0000 0.1207982608
H   H59       1.0  0.94190  0.11400  0.61100  1.0000 0.1207982608
H   H60       1.0  0.83790  0.11640  0.68190  1.0000 0.1287375443
H   H61       1.0  0.34490  0.16980  0.07280  1.0000 0.1207982608
H   H62       1.0  0.35530  0.28450  0.02150  1.0000 0.1207982608
H   H63       1.0  0.64400  0.37570  0.09310  1.0000 0.1129829755
H   H64       1.0  0.63160  0.25820  0.14200  1.0000 0.1287375443
H   H65       1.0  0.66250  0.09330  0.35450  1.0000 0.1287375443
H   H66       1.0  0.76570  0.09830  0.42280  1.0000 0.1207982608
H   H67       1.0  0.94190  0.88600  0.38900  1.0000 0.1207982608
H   H68       1.0  0.83790  0.88360  0.31810  1.0000 0.1287375443
H   H69       1.0  0.50000  0.50000  0.92000  1.0000 0.1207982608
H   H70       1.0  0.50000  0.50000  0.08000  1.0000 0.1207982608
H   H71       1.0  0.21000  0.00000  0.50000  1.0000 0.1287375443
H   H72       1.0  0.79000  0.00000  0.50000  1.0000 0.1287375443
C   C1        1.0  0.48530  0.37000  0.64600  1.0000 0.526052559
C   C2        1.0  0.48830  0.29610  0.61260  1.0000 0.0036605374
C   C3        1.0  0.40490  0.28890  0.57680  1.0000 -0.0864994198
C   C4        1.0  0.41020  0.21930  0.54620  1.0000 -0.1602686474
C   C5        1.0  0.49710  0.15660  0.55300  1.0000 0.0685192567
C   C6        1.0  0.58300  0.16480  0.58870  1.0000 -0.1430122832
C   C7        1.0  0.57480  0.23600  0.61800  1.0000 -0.0828055449
C   C8        1.0  0.49990  0.07760  0.52420  1.0000 0.0298467769
C   C9        1.0  0.67450  0.51410  0.78430  1.0000 0.5006245321
C   C10       1.0  0.73990  0.50990  0.82730  1.0000 -0.0593239803
C   C11       1.0  0.72040  0.44850  0.86070  1.0000 -0.0828055449
C   C12       1.0  0.78120  0.44570  0.90210  1.0000 -0.1430122832
C   C13       1.0  0.86520  0.50730  0.91350  1.0000 0.0685192567
C   C14       1.0  0.88600  0.57130  0.88200  1.0000 -0.1504334507
C   C15       1.0  0.82300  0.57260  0.83890  1.0000 -0.0828055449
C   C16       1.0  0.93520  0.50200  0.95760  1.0000 0.0298467769
C   C17       1.0  0.48530  0.63000  0.35400  1.0000 0.526052559
C   C18       1.0  0.48830  0.70390  0.38740  1.0000 0.0036605374
C   C19       1.0  0.40490  0.71110  0.42320  1.0000 -0.0864994198
C   C20       1.0  0.41020  0.78070  0.45380  1.0000 -0.1602686474
C   C21       1.0  0.49710  0.84340  0.44700  1.0000 0.0685192567
C   C22       1.0  0.58300  0.83520  0.41130  1.0000 -0.1430122832
C   C23       1.0  0.57480  0.76400  0.38200  1.0000 -0.0828055449
C   C24       1.0  0.49990  0.92240  0.47580  1.0000 0.0298467769
C   C25       1.0  0.67450  0.48590  0.21570  1.0000 0.5006245321
C   C26       1.0  0.73990  0.49010  0.17270  1.0000 -0.0593239803
C   C27       1.0  0.72040  0.55150  0.13930  1.0000 -0.0828055449
C   C28       1.0  0.78120  0.55430  0.09790  1.0000 -0.1430122832
C   C29       1.0  0.86520  0.49270  0.08650  1.0000 0.0685192567
C   C30       1.0  0.88600  0.42870  0.11800  1.0000 -0.1504334507
C   C31       1.0  0.82300  0.42740  0.16110  1.0000 -0.0828055449
C   C32       1.0  0.93520  0.49800  0.04240  1.0000 0.0298467769
C   C33       1.0  0.51470  0.63000  0.64600  1.0000 0.526052559
C   C34       1.0  0.51170  0.70390  0.61260  1.0000 0.0036605374
C   C35       1.0  0.59510  0.71110  0.57680  1.0000 -0.0864994198
C   C36       1.0  0.58980  0.78070  0.54620  1.0000 -0.1602686474
C   C37       1.0  0.50290  0.84340  0.55300  1.0000 0.0685192567
C   C38       1.0  0.41700  0.83520  0.58870  1.0000 -0.1430122832
C   C39       1.0  0.42520  0.76400  0.61800  1.0000 -0.0828055449
C   C40       1.0  0.50010  0.92240  0.52420  1.0000 0.0298467769
C   C41       1.0  0.32550  0.48590  0.78430  1.0000 0.5006245321
C   C42       1.0  0.26010  0.49010  0.82730  1.0000 -0.0593239803
C   C43       1.0  0.27960  0.55150  0.86070  1.0000 -0.0828055449
C   C44       1.0  0.21880  0.55430  0.90210  1.0000 -0.1430122832
C   C45       1.0  0.13480  0.49270  0.91350  1.0000 0.0685192567
C   C46       1.0  0.11400  0.42870  0.88200  1.0000 -0.1504334507
C   C47       1.0  0.17700  0.42740  0.83890  1.0000 -0.0828055449
C   C48       1.0  0.06480  0.49800  0.95760  1.0000 0.0298467769
C   C49       1.0  0.51470  0.37000  0.35400  1.0000 0.526052559
C   C50       1.0  0.51170  0.29610  0.38740  1.0000 0.0036605374
C   C51       1.0  0.59510  0.28890  0.42320  1.0000 -0.0864994198
C   C52       1.0  0.58980  0.21930  0.45380  1.0000 -0.1602686474
C   C53       1.0  0.50290  0.15660  0.44700  1.0000 0.0685192567
C   C54       1.0  0.41700  0.16480  0.41130  1.0000 -0.1430122832
C   C55       1.0  0.42520  0.23600  0.38200  1.0000 -0.0828055449
C   C56       1.0  0.50010  0.07760  0.47580  1.0000 0.0298467769
C   C57       1.0  0.32550  0.51410  0.21570  1.0000 0.5006245321
C   C58       1.0  0.26010  0.50990  0.17270  1.0000 -0.0593239803
C   C59       1.0  0.27960  0.44850  0.13930  1.0000 -0.0828055449
C   C60       1.0  0.21880  0.44570  0.09790  1.0000 -0.1430122832
C   C61       1.0  0.13480  0.50730  0.08650  1.0000 0.0685192567
C   C62       1.0  0.11400  0.57130  0.11800  1.0000 -0.1504334507
C   C63       1.0  0.17700  0.57260  0.16110  1.0000 -0.0828055449
C   C64       1.0  0.06480  0.50200  0.04240  1.0000 0.0298467769
C   C65       1.0  0.50000  0.00000  0.54760  1.0000 -0.1833782697
C   C66       1.0  0.50000  0.00000  0.45240  1.0000 -0.1833782697
C   C67       1.0  0.87550  0.50000  0.00000  1.0000 -0.1833782697
C   C68       1.0  0.12450  0.50000  0.00000  1.0000 -0.1833782697
C   C69       1.0  0.51470  0.13000  0.85400  1.0000 0.526052559
C   C70       1.0  0.51170  0.20390  0.88740  1.0000 0.0036605374
C   C71       1.0  0.59510  0.21110  0.92320  1.0000 -0.0864994198
C   C72       1.0  0.58980  0.28070  0.95380  1.0000 -0.1602686474
C   C73       1.0  0.50290  0.34340  0.94700  1.0000 0.0685192567
C   C74       1.0  0.41700  0.33520  0.91130  1.0000 -0.1430122832
C   C75       1.0  0.42520  0.26400  0.88200  1.0000 -0.0828055449
C   C76       1.0  0.50010  0.42240  0.97580  1.0000 0.0298467769
C   C77       1.0  0.32550  0.98590  0.71570  1.0000 0.5006245321
C   C78       1.0  0.26010  0.99010  0.67270  1.0000 -0.0593239803
C   C79       1.0  0.27960  0.05150  0.63930  1.0000 -0.0828055449
C   C80       1.0  0.21880  0.05430  0.59790  1.0000 -0.1430122832
C   C81       1.0  0.13480  0.99270  0.58650  1.0000 0.0685192567
C   C82       1.0  0.11400  0.92870  0.61800  1.0000 -0.1504334507
C   C83       1.0  0.17700  0.92740  0.66110  1.0000 -0.0828055449
C   C84       1.0  0.06480  0.99800  0.54240  1.0000 0.0298467769
C   C85       1.0  0.51470  0.87000  0.14600  1.0000 0.526052559
C   C86       1.0  0.51170  0.79610  0.11260  1.0000 0.0036605374
C   C87       1.0  0.59510  0.78890  0.07680  1.0000 -0.0864994198
C   C88       1.0  0.58980  0.71930  0.04620  1.0000 -0.1602686474
C   C89       1.0  0.50290  0.65660  0.05300  1.0000 0.0685192567
C   C90       1.0  0.41700  0.66480  0.08870  1.0000 -0.1430122832
C   C91       1.0  0.42520  0.73600  0.11800  1.0000 -0.0828055449
C   C92       1.0  0.50010  0.57760  0.02420  1.0000 0.0298467769
C   C93       1.0  0.32550  0.01410  0.28430  1.0000 0.5006245321
C   C94       1.0  0.26010  0.00990  0.32730  1.0000 -0.0593239803
C   C95       1.0  0.27960  0.94850  0.36070  1.0000 -0.0828055449
C   C96       1.0  0.21880  0.94570  0.40210  1.0000 -0.1430122832
C   C97       1.0  0.13480  0.00730  0.41350  1.0000 0.0685192567
C   C98       1.0  0.11400  0.07130  0.38200  1.0000 -0.1504334507
C   C99       1.0  0.17700  0.07260  0.33890  1.0000 -0.0828055449
C   C100      1.0  0.06480  0.00200  0.45760  1.0000 0.0298467769
C   C101      1.0  0.48530  0.87000  0.85400  1.0000 0.526052559
C   C102      1.0  0.48830  0.79610  0.88740  1.0000 0.0036605374
C   C103      1.0  0.40490  0.78890  0.92320  1.0000 -0.0864994198
C   C104      1.0  0.41020  0.71930  0.95380  1.0000 -0.1602686474
C   C105      1.0  0.49710  0.65660  0.94700  1.0000 0.0685192567
C   C106      1.0  0.58300  0.66480  0.91130  1.0000 -0.1430122832
C   C107      1.0  0.57480  0.73600  0.88200  1.0000 -0.0828055449
C   C108      1.0  0.49990  0.57760  0.97580  1.0000 0.0298467769
C   C109      1.0  0.67450  0.01410  0.71570  1.0000 0.5006245321
C   C110      1.0  0.73990  0.00990  0.67270  1.0000 -0.0593239803
C   C111      1.0  0.72040  0.94850  0.63930  1.0000 -0.0828055449
C   C112      1.0  0.78120  0.94570  0.59790  1.0000 -0.1430122832
C   C113      1.0  0.86520  0.00730  0.58650  1.0000 0.0685192567
C   C114      1.0  0.88600  0.07130  0.61800  1.0000 -0.1504334507
C   C115      1.0  0.82300  0.07260  0.66110  1.0000 -0.0828055449
C   C116      1.0  0.93520  0.00200  0.54240  1.0000 0.0298467769
C   C117      1.0  0.48530  0.13000  0.14600  1.0000 0.526052559
C   C118      1.0  0.48830  0.20390  0.11260  1.0000 0.0036605374
C   C119      1.0  0.40490  0.21110  0.07680  1.0000 -0.0864994198
C   C120      1.0  0.41020  0.28070  0.04620  1.0000 -0.1602686474
C   C121      1.0  0.49710  0.34340  0.05300  1.0000 0.0685192567
C   C122      1.0  0.58300  0.33520  0.08870  1.0000 -0.1430122832
C   C123      1.0  0.57480  0.26400  0.11800  1.0000 -0.0828055449
C   C124      1.0  0.49990  0.42240  0.02420  1.0000 0.0298467769
C   C125      1.0  0.67450  0.98590  0.28430  1.0000 0.5006245321
C   C126      1.0  0.73990  0.99010  0.32730  1.0000 -0.0593239803
C   C127      1.0  0.72040  0.05150  0.36070  1.0000 -0.0828055449
C   C128      1.0  0.78120  0.05430  0.40210  1.0000 -0.1430122832
C   C129      1.0  0.86520  0.99270  0.41350  1.0000 0.0685192567
C   C130      1.0  0.88600  0.92870  0.38200  1.0000 -0.1504334507
C   C131      1.0  0.82300  0.92740  0.33890  1.0000 -0.0828055449
C   C132      1.0  0.93520  0.99800  0.45760  1.0000 0.0298467769
C   C133      1.0  0.50000  0.50000  0.95240  1.0000 -0.1833782697
C   C134      1.0  0.50000  0.50000  0.04760  1.0000 -0.1833782697
C   C135      1.0  0.12450  0.00000  0.50000  1.0000 -0.1833782697
C   C136      1.0  0.87550  0.00000  0.50000  1.0000 -0.1833782697
O   O1        1.0  0.39970  0.41820  0.64510  1.0000 -0.4100284879
O   O2        1.0  0.56880  0.37970  0.67300  1.0000 -0.4218813533
O   O3        1.0  0.61930  0.45340  0.77130  1.0000 -0.4100284879
O   O4        1.0  0.67530  0.57580  0.76040  1.0000 -0.4100284879
O   O5        1.0  0.39970  0.58180  0.35490  1.0000 -0.4100284879
O   O6        1.0  0.56880  0.62030  0.32700  1.0000 -0.4218813533
O   O7        1.0  0.61930  0.54660  0.22870  1.0000 -0.4100284879
O   O8        1.0  0.67530  0.42420  0.23960  1.0000 -0.4100284879
O   O9        1.0  0.60030  0.58180  0.64510  1.0000 -0.4100284879
O   O10       1.0  0.43120  0.62030  0.67300  1.0000 -0.4218813533
O   O11       1.0  0.38070  0.54660  0.77130  1.0000 -0.4100284879
O   O12       1.0  0.32470  0.42420  0.76040  1.0000 -0.4100284879
O   O13       1.0  0.60030  0.41820  0.35490  1.0000 -0.4100284879
O   O14       1.0  0.43120  0.37970  0.32700  1.0000 -0.4218813533
O   O15       1.0  0.38070  0.45340  0.22870  1.0000 -0.4100284879
O   O16       1.0  0.32470  0.57580  0.23960  1.0000 -0.4100284879
O   O17       1.0  0.60030  0.08180  0.85490  1.0000 -0.4100284879
O   O18       1.0  0.43120  0.12030  0.82700  1.0000 -0.4218813533
O   O19       1.0  0.38070  0.04660  0.72870  1.0000 -0.4100284879
O   O20       1.0  0.32470  0.92420  0.73960  1.0000 -0.4100284879
O   O21       1.0  0.60030  0.91820  0.14510  1.0000 -0.4100284879
O   O22       1.0  0.43120  0.87970  0.17300  1.0000 -0.4218813533
O   O23       1.0  0.38070  0.95340  0.27130  1.0000 -0.4100284879
O   O24       1.0  0.32470  0.07580  0.26040  1.0000 -0.4100284879
O   O25       1.0  0.39970  0.91820  0.85490  1.0000 -0.4100284879
O   O26       1.0  0.56880  0.87970  0.82700  1.0000 -0.4218813533
O   O27       1.0  0.61930  0.95340  0.72870  1.0000 -0.4100284879
O   O28       1.0  0.67530  0.07580  0.73960  1.0000 -0.4100284879
O   O29       1.0  0.39970  0.08180  0.14510  1.0000 -0.4100284879
O   O30       1.0  0.56880  0.12030  0.17300  1.0000 -0.4218813533
O   O31       1.0  0.61930  0.04660  0.27130  1.0000 -0.4100284879
O   O32       1.0  0.67530  0.92420  0.26040  1.0000 -0.4100284879
