# DDEC6 charges by PACMAN v1.1 (https://github.com/mtap-research/PACMAN-charge/)
data_2018[Cd][unj]3[FSR]1
_chemical_formula_sum              "Cd6 H120 C84 N12 O24"
_cell_length_a       16.3968
_cell_length_b       16.3968
_cell_length_c       14.4171
_cell_angle_alpha    90
_cell_angle_beta     90
_cell_angle_gamma    120

_symmetry_space_group_name_H-M    "P 1"
_symmetry_Int_Tables_number       1

loop_
  _symmetry_equiv_pos_as_xyz
  'x, y, z'

loop_
  _atom_site_type_symbol
  _atom_site_label
  _atom_site_symmetry_multiplicity
  _atom_site_fract_x
  _atom_site_fract_y
  _atom_site_fract_z
  _atom_site_occupancy
  _atom_site_charge
Cd  Cd1       1.0  0.61593  0.34824  0.56437  1.0000 0.8304653231
Cd  Cd2       1.0  0.73231  0.38407  0.23104  1.0000 0.8304653231
Cd  Cd3       1.0  0.65176  0.26769  0.89770  1.0000 0.8304653231
Cd  Cd4       1.0  0.38407  0.65176  0.06437  1.0000 0.8304653231
Cd  Cd5       1.0  0.26769  0.61593  0.73104  1.0000 0.8304653231
Cd  Cd6       1.0  0.34824  0.73231  0.39770  1.0000 0.8304653231
H   H1        1.0  0.63460  0.06042  0.65451  1.0000 0.1197412607
H   H2        1.0  0.71615  0.03810  0.63958  1.0000 0.127358663
H   H3        1.0  0.66205  0.04672  0.55391  1.0000 0.127358663
H   H4        1.0  0.74843  0.20356  0.66519  1.0000 0.0746969494
H   H5        1.0  0.87140  0.19376  0.54308  1.0000 0.1197412607
H   H6        1.0  0.85777  0.14584  0.64033  1.0000 0.127358663
H   H7        1.0  0.89361  0.25400  0.63376  1.0000 0.1197412607
H   H8        1.0  0.73619  0.18655  0.46943  1.0000 0.1197412607
H   H9        1.0  0.66504  0.19952  0.53116  1.0000 0.1116068799
H   H10       1.0  0.85751  0.34264  0.51400  1.0000 0.1021518472
H   H11       1.0  0.99831  0.59472  0.51326  1.0000 0.1418407366
H   H12       1.0  0.81147  0.49991  0.63570  1.0000 0.127358663
H   H13       1.0  0.83332  0.49557  0.53080  1.0000 0.1197412607
H   H14       1.0  0.15006  0.64153  0.56137  1.0000 0.1197412607
H   H15       1.0  0.06040  0.47527  0.77283  1.0000 0.1197412607
H   H16       1.0  0.90895  0.41102  0.72426  1.0000 0.1586112306
H   H17       1.0  0.30418  0.13016  0.52343  1.0000 0.1586112306
H   H18       1.0  0.32608  0.06800  0.59009  1.0000 0.152806795
H   H19       1.0  0.34526  0.06922  0.48343  1.0000 0.152806795
H   H20       1.0  0.76700  0.34900  0.63900  1.0000 0.2536433104
H   H21       1.0  0.42582  0.36540  0.32118  1.0000 0.1197412607
H   H22       1.0  0.32195  0.28385  0.30625  1.0000 0.127358663
H   H23       1.0  0.38467  0.33795  0.22058  1.0000 0.127358663
H   H24       1.0  0.45513  0.25157  0.33186  1.0000 0.0746969494
H   H25       1.0  0.32236  0.12860  0.20975  1.0000 0.1197412607
H   H26       1.0  0.28807  0.14223  0.30700  1.0000 0.1197412607
H   H27       1.0  0.36039  0.10639  0.30043  1.0000 0.1197412607
H   H28       1.0  0.45036  0.26381  0.13610  1.0000 0.1197412607
H   H29       1.0  0.53448  0.33496  0.19783  1.0000 0.1116068799
H   H30       1.0  0.48513  0.14249  0.18067  1.0000 0.1021518472
H   H31       1.0  0.59641  0.00169  0.17993  1.0000 0.1418407366
H   H32       1.0  0.68844  0.18853  0.30237  1.0000 0.127358663
H   H33       1.0  0.66225  0.16668  0.19747  1.0000 0.1197412607
H   H34       1.0  0.49147  0.84994  0.22804  1.0000 0.1197412607
H   H35       1.0  0.41487  0.93960  0.43950  1.0000 0.1197412607
H   H36       1.0  0.50207  0.09105  0.39093  1.0000 0.1586112306
H   H37       1.0  0.82598  0.69582  0.19010  1.0000 0.1586112306
H   H38       1.0  0.74192  0.67392  0.25676  1.0000 0.152806795
H   H39       1.0  0.72396  0.65474  0.15010  1.0000 0.152806795
H   H40       1.0  0.58200  0.23300  0.30567  1.0000 0.2536433104
H   H41       1.0  0.93958  0.57418  0.98784  1.0000 0.1197412607
H   H42       1.0  0.96190  0.67805  0.97291  1.0000 0.127358663
H   H43       1.0  0.95328  0.61533  0.88724  1.0000 0.127358663
H   H44       1.0  0.79644  0.54487  0.99852  1.0000 0.0746969494
H   H45       1.0  0.80624  0.67764  0.87641  1.0000 0.1197412607
H   H46       1.0  0.85416  0.71193  0.97366  1.0000 0.127358663
H   H47       1.0  0.74600  0.63961  0.96709  1.0000 0.1197412607
H   H48       1.0  0.81345  0.54964  0.80276  1.0000 0.1197412607
H   H49       1.0  0.80048  0.46552  0.86449  1.0000 0.1116068799
H   H50       1.0  0.65736  0.51487  0.84733  1.0000 0.1021518472
H   H51       1.0  0.40528  0.40359  0.84659  1.0000 0.1418407366
H   H52       1.0  0.50009  0.31156  0.96903  1.0000 0.127358663
H   H53       1.0  0.50443  0.33775  0.86413  1.0000 0.1197412607
H   H54       1.0  0.35847  0.50853  0.89470  1.0000 0.1197412607
H   H55       1.0  0.52473  0.58513  0.10616  1.0000 0.1197412607
H   H56       1.0  0.58898  0.49793  0.05759  1.0000 0.1586112306
H   H57       1.0  0.86984  0.17402  0.85676  1.0000 0.1586112306
H   H58       1.0  0.93200  0.25808  0.92342  1.0000 0.152806795
H   H59       1.0  0.93078  0.27604  0.81676  1.0000 0.152806795
H   H60       1.0  0.65100  0.41800  0.97233  1.0000 0.2536433104
H   H61       1.0  0.36540  0.93958  0.15451  1.0000 0.1197412607
H   H62       1.0  0.28385  0.96190  0.13958  1.0000 0.127358663
H   H63       1.0  0.33795  0.95328  0.05391  1.0000 0.127358663
H   H64       1.0  0.25157  0.79644  0.16519  1.0000 0.0746969494
H   H65       1.0  0.12860  0.80624  0.04308  1.0000 0.1197412607
H   H66       1.0  0.14223  0.85416  0.14033  1.0000 0.127358663
H   H67       1.0  0.10639  0.74600  0.13376  1.0000 0.1197412607
H   H68       1.0  0.26381  0.81345  0.96943  1.0000 0.1197412607
H   H69       1.0  0.33496  0.80048  0.03116  1.0000 0.1116068799
H   H70       1.0  0.14249  0.65736  0.01400  1.0000 0.1021518472
H   H71       1.0  0.00169  0.40528  0.01326  1.0000 0.1418407366
H   H72       1.0  0.18853  0.50009  0.13570  1.0000 0.127358663
H   H73       1.0  0.16668  0.50443  0.03080  1.0000 0.1197412607
H   H74       1.0  0.84994  0.35847  0.06137  1.0000 0.1197412607
H   H75       1.0  0.93960  0.52473  0.27283  1.0000 0.1197412607
H   H76       1.0  0.09105  0.58898  0.22426  1.0000 0.1586112306
H   H77       1.0  0.69582  0.86984  0.02343  1.0000 0.1586112306
H   H78       1.0  0.67392  0.93200  0.09009  1.0000 0.152806795
H   H79       1.0  0.65474  0.93078  0.98343  1.0000 0.152806795
H   H80       1.0  0.23300  0.65100  0.13900  1.0000 0.2536433104
H   H81       1.0  0.57418  0.63460  0.82118  1.0000 0.1197412607
H   H82       1.0  0.67805  0.71615  0.80625  1.0000 0.127358663
H   H83       1.0  0.61533  0.66205  0.72058  1.0000 0.127358663
H   H84       1.0  0.54487  0.74843  0.83186  1.0000 0.0746969494
H   H85       1.0  0.67764  0.87140  0.70975  1.0000 0.1197412607
H   H86       1.0  0.71193  0.85777  0.80700  1.0000 0.1197412607
H   H87       1.0  0.63961  0.89361  0.80043  1.0000 0.1197412607
H   H88       1.0  0.54964  0.73619  0.63610  1.0000 0.1197412607
H   H89       1.0  0.46552  0.66504  0.69783  1.0000 0.1116068799
H   H90       1.0  0.51487  0.85751  0.68067  1.0000 0.1021518472
H   H91       1.0  0.40359  0.99831  0.67993  1.0000 0.1418407366
H   H92       1.0  0.31156  0.81147  0.80237  1.0000 0.127358663
H   H93       1.0  0.33775  0.83332  0.69747  1.0000 0.1197412607
H   H94       1.0  0.50853  0.15006  0.72804  1.0000 0.1197412607
H   H95       1.0  0.58513  0.06040  0.93950  1.0000 0.1197412607
H   H96       1.0  0.49793  0.90895  0.89093  1.0000 0.1586112306
H   H97       1.0  0.17402  0.30418  0.69010  1.0000 0.1586112306
H   H98       1.0  0.25808  0.32608  0.75676  1.0000 0.152806795
H   H99       1.0  0.27604  0.34526  0.65010  1.0000 0.152806795
H   H100      1.0  0.41800  0.76700  0.80567  1.0000 0.2536433104
H   H101      1.0  0.06042  0.42582  0.48784  1.0000 0.1197412607
H   H102      1.0  0.03810  0.32195  0.47291  1.0000 0.127358663
H   H103      1.0  0.04672  0.38467  0.38724  1.0000 0.127358663
H   H104      1.0  0.20356  0.45513  0.49852  1.0000 0.0746969494
H   H105      1.0  0.19376  0.32236  0.37641  1.0000 0.1197412607
H   H106      1.0  0.14584  0.28807  0.47366  1.0000 0.127358663
H   H107      1.0  0.25400  0.36039  0.46709  1.0000 0.1197412607
H   H108      1.0  0.18655  0.45036  0.30276  1.0000 0.1197412607
H   H109      1.0  0.19952  0.53448  0.36449  1.0000 0.1116068799
H   H110      1.0  0.34264  0.48513  0.34733  1.0000 0.1021518472
H   H111      1.0  0.59472  0.59641  0.34659  1.0000 0.1418407366
H   H112      1.0  0.49991  0.68844  0.46903  1.0000 0.127358663
H   H113      1.0  0.49557  0.66225  0.36413  1.0000 0.1197412607
H   H114      1.0  0.64153  0.49147  0.39470  1.0000 0.1197412607
H   H115      1.0  0.47527  0.41487  0.60616  1.0000 0.1197412607
H   H116      1.0  0.41102  0.50207  0.55759  1.0000 0.1586112306
H   H117      1.0  0.13016  0.82598  0.35676  1.0000 0.1586112306
H   H118      1.0  0.06800  0.74192  0.42342  1.0000 0.152806795
H   H119      1.0  0.06922  0.72396  0.31676  1.0000 0.152806795
H   H120      1.0  0.34900  0.58200  0.47233  1.0000 0.2536433104
C   C1        1.0  0.68600  0.07100  0.61500  1.0000 -0.4506476459
C   C2        1.0  0.75560  0.17410  0.60900  1.0000 0.1418407366
C   C3        1.0  0.85300  0.19400  0.60600  1.0000 -0.4365074373
C   C4        1.0  0.73050  0.21600  0.52550  1.0000 -0.2777040836
C   C5        1.0  0.79030  0.32250  0.51440  1.0000 -0.0329246812
C   C6        1.0  0.00940  0.56780  0.56500  1.0000 -0.1979880866
C   C7        1.0  0.93680  0.49880  0.61690  1.0000 0.1418407366
C   C8        1.0  0.83330  0.47030  0.59160  1.0000 -0.1464817312
C   C9        1.0  0.09990  0.59470  0.59470  1.0000 0.0853919152
C   C10       1.0  0.04780  0.49580  0.71740  1.0000 0.07617659
C   C11       1.0  0.95710  0.46070  0.69160  1.0000 -0.1944847045
C   C12       1.0  0.44820  0.19060  0.54970  1.0000 0.6279425087
C   C13       1.0  0.34610  0.10610  0.53500  1.0000 -0.5821277933
C   C14       1.0  0.76060  0.34900  0.42220  1.0000 0.5434778992
C   C15       1.0  0.38500  0.31400  0.28167  1.0000 -0.4506476459
C   C16       1.0  0.41850  0.24440  0.27567  1.0000 0.1418407366
C   C17       1.0  0.34100  0.14700  0.27267  1.0000 -0.4365074373
C   C18       1.0  0.48550  0.26950  0.19217  1.0000 -0.2777040836
C   C19       1.0  0.53220  0.20970  0.18107  1.0000 -0.0329246812
C   C20       1.0  0.55840  0.99060  0.23167  1.0000 -0.1979880866
C   C21       1.0  0.56200  0.06320  0.28357  1.0000 0.1418407366
C   C22       1.0  0.63700  0.16670  0.25827  1.0000 -0.1464817312
C   C23       1.0  0.49480  0.90010  0.26137  1.0000 0.0853919152
C   C24       1.0  0.44800  0.95220  0.38407  1.0000 0.07617659
C   C25       1.0  0.50360  0.04290  0.35827  1.0000 -0.1944847045
C   C26       1.0  0.74240  0.55180  0.21637  1.0000 0.6279425087
C   C27       1.0  0.76000  0.65390  0.20167  1.0000 -0.5821277933
C   C28       1.0  0.58840  0.23940  0.08887  1.0000 0.5434778992
C   C29       1.0  0.92900  0.61500  0.94833  1.0000 -0.4506476459
C   C30       1.0  0.82590  0.58150  0.94233  1.0000 0.1418407366
C   C31       1.0  0.80600  0.65900  0.93933  1.0000 -0.4365074373
C   C32       1.0  0.78400  0.51450  0.85883  1.0000 -0.2777040836
C   C33       1.0  0.67750  0.46780  0.84773  1.0000 -0.0329246812
C   C34       1.0  0.43220  0.44160  0.89833  1.0000 -0.1979880866
C   C35       1.0  0.50120  0.43800  0.95023  1.0000 0.1418407366
C   C36       1.0  0.52970  0.36300  0.92493  1.0000 -0.1464817312
C   C37       1.0  0.40530  0.50520  0.92803  1.0000 0.0853919152
C   C38       1.0  0.50420  0.55200  0.05073  1.0000 0.07617659
C   C39       1.0  0.53930  0.49640  0.02493  1.0000 -0.1979880866
C   C40       1.0  0.80940  0.25760  0.88303  1.0000 0.6279425087
C   C41       1.0  0.89390  0.24000  0.86833  1.0000 -0.5821277933
C   C42       1.0  0.65100  0.41160  0.75553  1.0000 0.5434778992
C   C43       1.0  0.31400  0.92900  0.11500  1.0000 -0.4506476459
C   C44       1.0  0.24440  0.82590  0.10900  1.0000 0.1418407366
C   C45       1.0  0.14700  0.80600  0.10600  1.0000 -0.4365074373
C   C46       1.0  0.26950  0.78400  0.02550  1.0000 -0.2777040836
C   C47       1.0  0.20970  0.67750  0.01440  1.0000 -0.0329246812
C   C48       1.0  0.99060  0.43220  0.06500  1.0000 -0.1979880866
C   C49       1.0  0.06320  0.50120  0.11690  1.0000 0.1418407366
C   C50       1.0  0.16670  0.52970  0.09160  1.0000 -0.1464817312
C   C51       1.0  0.90010  0.40530  0.09470  1.0000 0.0853919152
C   C52       1.0  0.95220  0.50420  0.21740  1.0000 0.07617659
C   C53       1.0  0.04290  0.53930  0.19160  1.0000 -0.1979880866
C   C54       1.0  0.55180  0.80940  0.04970  1.0000 0.6279425087
C   C55       1.0  0.65390  0.89390  0.03500  1.0000 -0.5821277933
C   C56       1.0  0.23940  0.65100  0.92220  1.0000 0.5434778992
C   C57       1.0  0.61500  0.68600  0.78167  1.0000 -0.4506476459
C   C58       1.0  0.58150  0.75560  0.77567  1.0000 0.1418407366
C   C59       1.0  0.65900  0.85300  0.77267  1.0000 -0.4365074373
C   C60       1.0  0.51450  0.73050  0.69217  1.0000 -0.2777040836
C   C61       1.0  0.46780  0.79030  0.68107  1.0000 -0.0329246812
C   C62       1.0  0.44160  0.00940  0.73167  1.0000 -0.1979880866
C   C63       1.0  0.43800  0.93680  0.78357  1.0000 0.1418407366
C   C64       1.0  0.36300  0.83330  0.75827  1.0000 -0.1464817312
C   C65       1.0  0.50520  0.09990  0.76137  1.0000 0.0853919152
C   C66       1.0  0.55200  0.04780  0.88407  1.0000 0.07617659
C   C67       1.0  0.49640  0.95710  0.85827  1.0000 -0.1979880866
C   C68       1.0  0.25760  0.44820  0.71637  1.0000 0.6279425087
C   C69       1.0  0.24000  0.34610  0.70167  1.0000 -0.5821277933
C   C70       1.0  0.41160  0.76060  0.58887  1.0000 0.5434778992
C   C71       1.0  0.07100  0.38500  0.44833  1.0000 -0.4506476459
C   C72       1.0  0.17410  0.41850  0.44233  1.0000 0.1418407366
C   C73       1.0  0.19400  0.34100  0.43933  1.0000 -0.4365074373
C   C74       1.0  0.21600  0.48550  0.35883  1.0000 -0.2777040836
C   C75       1.0  0.32250  0.53220  0.34773  1.0000 -0.0329246812
C   C76       1.0  0.56780  0.55840  0.39833  1.0000 -0.1979880866
C   C77       1.0  0.49880  0.56200  0.45023  1.0000 0.1418407366
C   C78       1.0  0.47030  0.63700  0.42493  1.0000 -0.1464817312
C   C79       1.0  0.59470  0.49480  0.42803  1.0000 0.0853919152
C   C80       1.0  0.49580  0.44800  0.55073  1.0000 0.07617659
C   C81       1.0  0.46070  0.50360  0.52493  1.0000 -0.1979880866
C   C82       1.0  0.19060  0.74240  0.38303  1.0000 0.6279425087
C   C83       1.0  0.10610  0.76000  0.36833  1.0000 -0.5821277933
C   C84       1.0  0.34900  0.58840  0.25553  1.0000 0.5434778992
N   N1        1.0  0.76780  0.37170  0.59080  1.0000 -0.3232376314
N   N2        1.0  0.11960  0.55830  0.66710  1.0000 -0.2267622289
N   N3        1.0  0.60390  0.23220  0.25747  1.0000 -0.3232376314
N   N4        1.0  0.43870  0.88040  0.33377  1.0000 -0.2267622289
N   N5        1.0  0.62830  0.39610  0.92413  1.0000 -0.3232376314
N   N6        1.0  0.44170  0.56130  0.00043  1.0000 -0.2267622289
N   N7        1.0  0.23220  0.62830  0.09080  1.0000 -0.3232376314
N   N8        1.0  0.88040  0.44170  0.16710  1.0000 -0.2267622289
N   N9        1.0  0.39610  0.76780  0.75747  1.0000 -0.3232376314
N   N10       1.0  0.56130  0.11960  0.83377  1.0000 -0.2267622289
N   N11       1.0  0.37170  0.60390  0.42413  1.0000 -0.3232376314
N   N12       1.0  0.55830  0.43870  0.50043  1.0000 -0.2267622289
O   O1        1.0  0.69460  0.36580  0.42030  1.0000 -0.5474242803
O   O2        1.0  0.80490  0.34790  0.35150  1.0000 -0.5474242803
O   O3        1.0  0.45980  0.24500  0.61920  1.0000 -0.5966060099
O   O4        1.0  0.50900  0.20470  0.49660  1.0000 -0.5363396443
O   O5        1.0  0.67120  0.30540  0.08697  1.0000 -0.5474242803
O   O6        1.0  0.54300  0.19510  0.01817  1.0000 -0.5474242803
O   O7        1.0  0.78520  0.54020  0.28587  1.0000 -0.5966060099
O   O8        1.0  0.69570  0.49100  0.16327  1.0000 -0.5363396443
O   O9        1.0  0.63420  0.32880  0.75363  1.0000 -0.5474242803
O   O10       1.0  0.65210  0.45700  0.68483  1.0000 -0.5474242803
O   O11       1.0  0.75500  0.21480  0.95253  1.0000 -0.5966060099
O   O12       1.0  0.79530  0.30430  0.82993  1.0000 -0.5363396443
O   O13       1.0  0.30540  0.63420  0.92030  1.0000 -0.5474242803
O   O14       1.0  0.19510  0.65210  0.85150  1.0000 -0.5474242803
O   O15       1.0  0.54020  0.75500  0.11920  1.0000 -0.5966060099
O   O16       1.0  0.49100  0.79530  0.99660  1.0000 -0.5363396443
O   O17       1.0  0.32880  0.69460  0.58697  1.0000 -0.5474242803
O   O18       1.0  0.45700  0.80490  0.51817  1.0000 -0.5474242803
O   O19       1.0  0.21480  0.45980  0.78587  1.0000 -0.5966060099
O   O20       1.0  0.30430  0.50900  0.66327  1.0000 -0.5363396443
O   O21       1.0  0.36580  0.67120  0.25363  1.0000 -0.5474242803
O   O22       1.0  0.34790  0.54300  0.18483  1.0000 -0.5474242803
O   O23       1.0  0.24500  0.78520  0.45253  1.0000 -0.5966060099
O   O24       1.0  0.20470  0.69570  0.32993  1.0000 -0.5363396443
