# DDEC6 charges by PACMAN v1.1 (https://github.com/mtap-research/PACMAN-charge/)
data_2018[Al][nan]3[FSR]4
_chemical_formula_sum              "Al4 H16 C32 O20"
_cell_length_a       12.0241
_cell_length_b       12.0241
_cell_length_c       12.0241
_cell_angle_alpha    103.925
_cell_angle_beta     103.925
_cell_angle_gamma    121.246

_symmetry_space_group_name_H-M    "P 1"
_symmetry_Int_Tables_number       1

loop_
  _symmetry_equiv_pos_as_xyz
  'x, y, z'

loop_
  _atom_site_type_symbol
  _atom_site_label
  _atom_site_symmetry_multiplicity
  _atom_site_fract_x
  _atom_site_fract_y
  _atom_site_fract_z
  _atom_site_occupancy
  _atom_site_charge
Al  Al1       1.0  0.44670  0.94670  0.89340  1.0000 1.6006218947
Al  Al2       1.0  0.05330  0.55330  0.10660  1.0000 1.6006218947
Al  Al3       1.0  0.19670  0.80330  0.00000  1.0000 1.6006218947
Al  Al4       1.0  0.80330  0.19670  0.00000  1.0000 1.6006218947
H   H1        1.0  0.89440  0.45150  0.69590  1.0000 0.1042559899
H   H2        1.0  0.75560  0.19850  0.30410  1.0000 0.1042559899
H   H3        1.0  0.70150  0.50560  0.05710  1.0000 0.1042559899
H   H4        1.0  0.44850  0.64440  0.94290  1.0000 0.1042559899
H   H5        1.0  0.35560  0.55150  0.05710  1.0000 0.1042559899
H   H6        1.0  0.49440  0.29850  0.94290  1.0000 0.1042559899
H   H7        1.0  0.54850  0.10560  0.30410  1.0000 0.1042559899
H   H8        1.0  0.80150  0.24440  0.69590  1.0000 0.1042559899
H   H9        1.0  0.45300  0.87500  0.07800  1.0000 0.3982067711
H   H10       1.0  0.79700  0.37500  0.92200  1.0000 0.3982067711
H   H11       1.0  0.12500  0.54700  0.92200  1.0000 0.3982067711
H   H12       1.0  0.62500  0.20300  0.07800  1.0000 0.3982067711
H   H13       1.0  0.13890  0.63890  0.50000  1.0000 0.1291624315
H   H14       1.0  0.88890  0.88890  0.00000  1.0000 0.1291624315
H   H15       1.0  0.11110  0.11110  0.00000  1.0000 0.1291624315
H   H16       1.0  0.36110  0.86110  0.50000  1.0000 0.1291624315
C   C1        1.0  0.14730  0.69430  0.73620  1.0000 0.6001732059
C   C2        1.0  0.02970  0.56250  0.61260  1.0000 -0.0246089436
C   C3        1.0  0.90940  0.44220  0.61260  1.0000 -0.1619682473
C   C4        1.0  0.95810  0.41110  0.26380  1.0000 0.6001732059
C   C5        1.0  0.94990  0.41710  0.38740  1.0000 -0.0262475801
C   C6        1.0  0.82960  0.29680  0.38740  1.0000 -0.1619682473
C   C7        1.0  0.94430  0.70810  0.04700  1.0000 0.6001732059
C   C8        1.0  0.81250  0.69990  0.03280  1.0000 -0.0262475801
C   C9        1.0  0.69220  0.57960  0.03280  1.0000 -0.1619682473
C   C10       1.0  0.66110  0.89730  0.95300  1.0000 0.6001732059
C   C11       1.0  0.66710  0.77970  0.96720  1.0000 -0.0246089436
C   C12       1.0  0.54680  0.65940  0.96720  1.0000 -0.1619682473
C   C13       1.0  0.10270  0.33890  0.04700  1.0000 0.6001732059
C   C14       1.0  0.22030  0.33290  0.03280  1.0000 -0.0246089436
C   C15       1.0  0.34060  0.45320  0.03280  1.0000 -0.1619682473
C   C16       1.0  0.29190  0.05570  0.95300  1.0000 0.6001732059
C   C17       1.0  0.30010  0.18750  0.96720  1.0000 -0.0246089436
C   C18       1.0  0.42040  0.30780  0.96720  1.0000 -0.1619682473
C   C19       1.0  0.30570  0.85270  0.26380  1.0000 0.6001732059
C   C20       1.0  0.43750  0.97030  0.38740  1.0000 -0.0246089436
C   C21       1.0  0.55780  0.09060  0.38740  1.0000 -0.1619682473
C   C22       1.0  0.58890  0.04190  0.73620  1.0000 0.6001732059
C   C23       1.0  0.58290  0.05010  0.61260  1.0000 -0.0262475801
C   C24       1.0  0.70320  0.17040  0.61260  1.0000 -0.1619682473
C   C25       1.0  0.04990  0.54990  0.50000  1.0000 -0.112830925
C   C26       1.0  0.80930  0.30930  0.50000  1.0000 0.0569608889
C   C27       1.0  0.79990  0.79990  0.00000  1.0000 -0.112830925
C   C28       1.0  0.55930  0.55930  0.00000  1.0000 0.0569608889
C   C29       1.0  0.20010  0.20010  0.00000  1.0000 -0.112830925
C   C30       1.0  0.44070  0.44070  0.00000  1.0000 0.0569608889
C   C31       1.0  0.45010  0.95010  0.50000  1.0000 -0.112830925
C   C32       1.0  0.69070  0.19070  0.50000  1.0000 0.0569608889
O   O1        1.0  0.26640  0.75920  0.74140  1.0000 -0.5102109753
O   O2        1.0  0.10840  0.71950  0.81550  1.0000 -0.5353014462
O   O3        1.0  0.01780  0.52500  0.25860  1.0000 -0.5102109753
O   O4        1.0  0.90400  0.29290  0.18450  1.0000 -0.5353014462
O   O5        1.0  0.00920  0.76780  0.99280  1.0000 -0.5102109753
O   O6        1.0  0.96950  0.65400  0.11110  1.0000 -0.5353014462
O   O7        1.0  0.77500  0.01640  0.00720  1.0000 -0.5102109753
O   O8        1.0  0.54290  0.85840  0.88890  1.0000 -0.5353014462
O   O9        1.0  0.98360  0.22500  0.99280  1.0000 -0.5102109753
O   O10       1.0  0.14160  0.45710  0.11110  1.0000 -0.5353014462
O   O11       1.0  0.23220  0.99080  0.00720  1.0000 -0.5102109753
O   O12       1.0  0.34600  0.03050  0.88890  1.0000 -0.5353014462
O   O13       1.0  0.24080  0.73360  0.25860  1.0000 -0.5102109753
O   O14       1.0  0.28050  0.89160  0.18450  1.0000 -0.5353014462
O   O15       1.0  0.47500  0.98220  0.74140  1.0000 -0.5102109753
O   O16       1.0  0.70710  0.09600  0.81550  1.0000 -0.5353014462
O   O17       1.0  0.38010  0.87500  0.00510  1.0000 -1.0155712508
O   O18       1.0  0.86990  0.37500  0.99490  1.0000 -1.0155712508
O   O19       1.0  0.12500  0.61990  0.99490  1.0000 -1.0155712508
O   O20       1.0  0.62500  0.13010  0.00510  1.0000 -1.0155712508
