# DDEC6 charges by PACMAN v1.1 (https://github.com/mtap-research/PACMAN-charge/)
data_2018[Zn][pcu]3[FSR]9
_chemical_formula_sum              "Zn8 H64 C72 S8 N8 O32"
_cell_length_a       17.5644
_cell_length_b       17.5644
_cell_length_c       17.5644
_cell_angle_alpha    107.184
_cell_angle_beta     107.184
_cell_angle_gamma    114.15

_symmetry_space_group_name_H-M    "P 1"
_symmetry_Int_Tables_number       1

loop_
  _symmetry_equiv_pos_as_xyz
  'x, y, z'

loop_
  _atom_site_type_symbol
  _atom_site_label
  _atom_site_symmetry_multiplicity
  _atom_site_fract_x
  _atom_site_fract_y
  _atom_site_fract_z
  _atom_site_occupancy
  _atom_site_charge
Zn  Zn1       1.0  0.94152  0.41090  0.00000  1.0000 0.8345464879
Zn  Zn2       1.0  0.41090  0.94152  0.00000  1.0000 0.8345464879
Zn  Zn3       1.0  0.41090  0.41090  0.46938  1.0000 0.8345464879
Zn  Zn4       1.0  0.94152  0.94152  0.53062  1.0000 0.8345464879
Zn  Zn5       1.0  0.05848  0.05848  0.46938  1.0000 0.8345464879
Zn  Zn6       1.0  0.58910  0.58910  0.53062  1.0000 0.8345464879
Zn  Zn7       1.0  0.58910  0.05848  0.00000  1.0000 0.8345464879
Zn  Zn8       1.0  0.05848  0.58910  0.00000  1.0000 0.8345464879
H   H1        1.0  0.76570  0.21430  0.86540  1.0000 0.1193746544
H   H2        1.0  0.83830  0.19430  0.91800  1.0000 0.1193746544
H   H3        1.0  0.78930  0.37880  0.05330  1.0000 0.1193746544
H   H4        1.0  0.33000  0.67190  0.22570  1.0000 0.1279638374
H   H5        1.0  0.34890  0.90030  0.13460  1.0000 0.1193746544
H   H6        1.0  0.27630  0.92030  0.08200  1.0000 0.1193746544
H   H7        1.0  0.32550  0.73600  0.94670  1.0000 0.1193746544
H   H8        1.0  0.44620  0.10430  0.77430  1.0000 0.1279638374
H   H9        1.0  0.21430  0.34890  0.44860  1.0000 0.1193746544
H   H10       1.0  0.19430  0.27630  0.35600  1.0000 0.1193746544
H   H11       1.0  0.37880  0.32550  0.58950  1.0000 0.1193746544
H   H12       1.0  0.67190  0.44620  0.34190  1.0000 0.1279638374
H   H13       1.0  0.90030  0.76570  0.55140  1.0000 0.1193746544
H   H14       1.0  0.92030  0.83830  0.64400  1.0000 0.1193746544
H   H15       1.0  0.73600  0.78930  0.41050  1.0000 0.1193746544
H   H16       1.0  0.10430  0.33000  0.65810  1.0000 0.1279638374
H   H17       1.0  0.23430  0.09970  0.44860  1.0000 0.1193746544
H   H18       1.0  0.16170  0.07970  0.35600  1.0000 0.1193746544
H   H19       1.0  0.21070  0.26400  0.58950  1.0000 0.1193746544
H   H20       1.0  0.67000  0.89570  0.34190  1.0000 0.1279638374
H   H21       1.0  0.65110  0.78570  0.55140  1.0000 0.1193746544
H   H22       1.0  0.72370  0.80570  0.64400  1.0000 0.1193746544
H   H23       1.0  0.67450  0.62120  0.41050  1.0000 0.1193746544
H   H24       1.0  0.55380  0.32810  0.65810  1.0000 0.1279638374
H   H25       1.0  0.78570  0.23430  0.13460  1.0000 0.1193746544
H   H26       1.0  0.80570  0.16170  0.08200  1.0000 0.1193746544
H   H27       1.0  0.62120  0.21070  0.94670  1.0000 0.1193746544
H   H28       1.0  0.32810  0.67000  0.77430  1.0000 0.1279638374
H   H29       1.0  0.09970  0.65110  0.86540  1.0000 0.1193746544
H   H30       1.0  0.07970  0.72370  0.91800  1.0000 0.1193746544
H   H31       1.0  0.26400  0.67450  0.05330  1.0000 0.1193746544
H   H32       1.0  0.89570  0.55380  0.22570  1.0000 0.1279638374
H   H33       1.0  0.23430  0.78570  0.13460  1.0000 0.1193746544
H   H34       1.0  0.16170  0.80570  0.08200  1.0000 0.1193746544
H   H35       1.0  0.21070  0.62120  0.94670  1.0000 0.1193746544
H   H36       1.0  0.67000  0.32810  0.77430  1.0000 0.1279638374
H   H37       1.0  0.65110  0.09970  0.86540  1.0000 0.1193746544
H   H38       1.0  0.72370  0.07970  0.91800  1.0000 0.1193746544
H   H39       1.0  0.67450  0.26400  0.05330  1.0000 0.1193746544
H   H40       1.0  0.55380  0.89570  0.22570  1.0000 0.1279638374
H   H41       1.0  0.78570  0.65110  0.55140  1.0000 0.1193746544
H   H42       1.0  0.80570  0.72370  0.64400  1.0000 0.1193746544
H   H43       1.0  0.62120  0.67450  0.41050  1.0000 0.1193746544
H   H44       1.0  0.32810  0.55380  0.65810  1.0000 0.1279638374
H   H45       1.0  0.09970  0.23430  0.44860  1.0000 0.1193746544
H   H46       1.0  0.07970  0.16170  0.35600  1.0000 0.1193746544
H   H47       1.0  0.26400  0.21070  0.58950  1.0000 0.1193746544
H   H48       1.0  0.89570  0.67000  0.34190  1.0000 0.1279638374
H   H49       1.0  0.76570  0.90030  0.55140  1.0000 0.1193746544
H   H50       1.0  0.83830  0.92030  0.64400  1.0000 0.1193746544
H   H51       1.0  0.78930  0.73600  0.41050  1.0000 0.1193746544
H   H52       1.0  0.33000  0.10430  0.65810  1.0000 0.1279638374
H   H53       1.0  0.34890  0.21430  0.44860  1.0000 0.1193746544
H   H54       1.0  0.27630  0.19430  0.35600  1.0000 0.1193746544
H   H55       1.0  0.32550  0.37880  0.58950  1.0000 0.1193746544
H   H56       1.0  0.44620  0.67190  0.34190  1.0000 0.1279638374
H   H57       1.0  0.21430  0.76570  0.86540  1.0000 0.1193746544
H   H58       1.0  0.19430  0.83830  0.91800  1.0000 0.1193746544
H   H59       1.0  0.37880  0.78930  0.05330  1.0000 0.1193746544
H   H60       1.0  0.67190  0.33000  0.22570  1.0000 0.1279638374
H   H61       1.0  0.90030  0.34890  0.13460  1.0000 0.1193746544
H   H62       1.0  0.92030  0.27630  0.08200  1.0000 0.1193746544
H   H63       1.0  0.73600  0.32550  0.94670  1.0000 0.1193746544
H   H64       1.0  0.10430  0.44620  0.77430  1.0000 0.1279638374
C   C1        1.0  0.13950  0.52020  0.12490  1.0000 0.594610449
C   C2        1.0  0.22713  0.54260  0.19773  1.0000 -0.1185726963
C   C3        1.0  0.79110  0.20910  0.91940  1.0000 -0.1185726963
C   C4        1.0  0.31580  0.62260  0.24000  1.0000 -0.1262360102
C   C5        1.0  0.39530  0.01460  0.87510  1.0000 0.594610449
C   C6        1.0  0.34487  0.02940  0.80227  1.0000 -0.1185726963
C   C7        1.0  0.28970  0.87170  0.08060  1.0000 -0.1185726963
C   C8        1.0  0.38260  0.07580  0.76000  1.0000 -0.1262360102
C   C9        1.0  0.52020  0.39530  0.38070  1.0000 0.594610449
C   C10       1.0  0.54260  0.34487  0.31547  1.0000 -0.1185726963
C   C11       1.0  0.20910  0.28970  0.41800  1.0000 -0.1185726963
C   C12       1.0  0.62260  0.38260  0.30680  1.0000 -0.1262360102
C   C13       1.0  0.01460  0.13950  0.61930  1.0000 0.594610449
C   C14       1.0  0.02940  0.22713  0.68453  1.0000 -0.1185726963
C   C15       1.0  0.87170  0.79110  0.58200  1.0000 -0.1185726963
C   C16       1.0  0.07580  0.31580  0.69320  1.0000 -0.1262360102
C   C17       1.0  0.86050  0.98540  0.38070  1.0000 0.594610449
C   C18       1.0  0.77287  0.97060  0.31547  1.0000 -0.1185726963
C   C19       1.0  0.20890  0.12830  0.41800  1.0000 -0.1185726963
C   C20       1.0  0.68420  0.92420  0.30680  1.0000 -0.1262360102
C   C21       1.0  0.60470  0.47980  0.61930  1.0000 0.594610449
C   C22       1.0  0.65513  0.45740  0.68453  1.0000 -0.1185726963
C   C23       1.0  0.71030  0.79090  0.58200  1.0000 -0.1185726963
C   C24       1.0  0.61740  0.37740  0.69320  1.0000 -0.1262360102
C   C25       1.0  0.47980  0.86050  0.87510  1.0000 0.594610449
C   C26       1.0  0.45740  0.77287  0.80227  1.0000 -0.1185726963
C   C27       1.0  0.79090  0.20890  0.08060  1.0000 -0.1185726963
C   C28       1.0  0.37740  0.68420  0.76000  1.0000 -0.1262360102
C   C29       1.0  0.98540  0.60470  0.12490  1.0000 0.594610449
C   C30       1.0  0.97060  0.65513  0.19773  1.0000 -0.1185726963
C   C31       1.0  0.12830  0.71030  0.91940  1.0000 -0.1185726963
C   C32       1.0  0.92420  0.61740  0.24000  1.0000 -0.1262360102
C   C33       1.0  0.86050  0.47980  0.87510  1.0000 0.594610449
C   C34       1.0  0.77287  0.45740  0.80227  1.0000 -0.1185726963
C   C35       1.0  0.20890  0.79090  0.08060  1.0000 -0.1185726963
C   C36       1.0  0.68420  0.37740  0.76000  1.0000 -0.1262360102
C   C37       1.0  0.60470  0.98540  0.12490  1.0000 0.594610449
C   C38       1.0  0.65513  0.97060  0.19773  1.0000 -0.1185726963
C   C39       1.0  0.71030  0.12830  0.91940  1.0000 -0.1185726963
C   C40       1.0  0.61740  0.92420  0.24000  1.0000 -0.1262360102
C   C41       1.0  0.47980  0.60470  0.61930  1.0000 0.594610449
C   C42       1.0  0.45740  0.65513  0.68453  1.0000 -0.1185726963
C   C43       1.0  0.79090  0.71030  0.58200  1.0000 -0.1185726963
C   C44       1.0  0.37740  0.61740  0.69320  1.0000 -0.1262360102
C   C45       1.0  0.98540  0.86050  0.38070  1.0000 0.594610449
C   C46       1.0  0.97060  0.77287  0.31547  1.0000 -0.1185726963
C   C47       1.0  0.12830  0.20890  0.41800  1.0000 -0.1185726963
C   C48       1.0  0.92420  0.68420  0.30680  1.0000 -0.1262360102
C   C49       1.0  0.13950  0.01460  0.61930  1.0000 0.594610449
C   C50       1.0  0.22713  0.02940  0.68453  1.0000 -0.1185726963
C   C51       1.0  0.79110  0.87170  0.58200  1.0000 -0.1185726963
C   C52       1.0  0.31580  0.07580  0.69320  1.0000 -0.1262360102
C   C53       1.0  0.39530  0.52020  0.38070  1.0000 0.594610449
C   C54       1.0  0.34487  0.54260  0.31547  1.0000 -0.1185726963
C   C55       1.0  0.28970  0.20910  0.41800  1.0000 -0.1185726963
C   C56       1.0  0.38260  0.62260  0.30680  1.0000 -0.1262360102
C   C57       1.0  0.52020  0.13950  0.12490  1.0000 0.594610449
C   C58       1.0  0.54260  0.22713  0.19773  1.0000 -0.1185726963
C   C59       1.0  0.20910  0.79110  0.91940  1.0000 -0.1185726963
C   C60       1.0  0.62260  0.31580  0.24000  1.0000 -0.1262360102
C   C61       1.0  0.01460  0.39530  0.87510  1.0000 0.594610449
C   C62       1.0  0.02940  0.34487  0.80227  1.0000 -0.1185726963
C   C63       1.0  0.87170  0.28970  0.08060  1.0000 -0.1185726963
C   C64       1.0  0.07580  0.38260  0.76000  1.0000 -0.1262360102
C   C65       1.0  0.76150  0.31930  0.00000  1.0000 -0.1185726963
C   C66       1.0  0.31930  0.76150  0.00000  1.0000 -0.1185726963
C   C67       1.0  0.31930  0.31930  0.55780  1.0000 -0.1185726963
C   C68       1.0  0.76150  0.76150  0.44220  1.0000 -0.1185726963
C   C69       1.0  0.23850  0.23850  0.55780  1.0000 -0.1185726963
C   C70       1.0  0.68070  0.68070  0.44220  1.0000 -0.1185726963
C   C71       1.0  0.68070  0.23850  0.00000  1.0000 -0.1185726963
C   C72       1.0  0.23850  0.68070  0.00000  1.0000 -0.1185726963
S   S1        1.0  0.22560  0.46852  0.24292  1.0000 0.1585712452
S   S2        1.0  0.22560  0.98268  0.75708  1.0000 0.1585712452
S   S3        1.0  0.46852  0.22560  0.24292  1.0000 0.1585712452
S   S4        1.0  0.98268  0.22560  0.75708  1.0000 0.1585712452
S   S5        1.0  0.77440  0.01732  0.24292  1.0000 0.1585712452
S   S6        1.0  0.77440  0.53148  0.75708  1.0000 0.1585712452
S   S7        1.0  0.53148  0.77440  0.75708  1.0000 0.1585712452
S   S8        1.0  0.01732  0.77440  0.24292  1.0000 0.1585712452
N   N1        1.0  0.83580  0.29960  0.00000  1.0000 -0.1011534165
N   N2        1.0  0.29960  0.83580  0.00000  1.0000 -0.1011534165
N   N3        1.0  0.29960  0.29960  0.46380  1.0000 -0.1011534165
N   N4        1.0  0.83580  0.83580  0.53620  1.0000 -0.1011534165
N   N5        1.0  0.16420  0.16420  0.46380  1.0000 -0.1011534165
N   N6        1.0  0.70040  0.70040  0.53620  1.0000 -0.1011534165
N   N7        1.0  0.70040  0.16420  0.00000  1.0000 -0.1011534165
N   N8        1.0  0.16420  0.70040  0.00000  1.0000 -0.1011534165
O   O1        1.0  0.06362  0.44289  0.09711  1.0000 -0.5495898329
O   O2        1.0  0.14853  0.57954  0.09711  1.0000 -0.5551132511
O   O3        1.0  0.34578  0.96651  0.90289  1.0000 -0.5495898329
O   O4        1.0  0.48243  0.05142  0.90289  1.0000 -0.5551132511
O   O5        1.0  0.44289  0.34578  0.37927  1.0000 -0.5495898329
O   O6        1.0  0.57954  0.48243  0.43101  1.0000 -0.5551132511
O   O7        1.0  0.96651  0.06362  0.62073  1.0000 -0.5495898329
O   O8        1.0  0.05142  0.14853  0.56899  1.0000 -0.5495898329
O   O9        1.0  0.93638  0.03349  0.37927  1.0000 -0.5495898329
O   O10       1.0  0.85147  0.94858  0.43101  1.0000 -0.5551132511
O   O11       1.0  0.65422  0.55711  0.62073  1.0000 -0.5495898329
O   O12       1.0  0.51757  0.42046  0.56899  1.0000 -0.5551132511
O   O13       1.0  0.55711  0.93638  0.90289  1.0000 -0.5495898329
O   O14       1.0  0.42046  0.85147  0.90289  1.0000 -0.5551132511
O   O15       1.0  0.03349  0.65422  0.09711  1.0000 -0.5495898329
O   O16       1.0  0.94858  0.51757  0.09711  1.0000 -0.5551132511
O   O17       1.0  0.93638  0.55711  0.90289  1.0000 -0.5495898329
O   O18       1.0  0.85147  0.42046  0.90289  1.0000 -0.5551132511
O   O19       1.0  0.65422  0.03349  0.09711  1.0000 -0.5495898329
O   O20       1.0  0.51757  0.94858  0.09711  1.0000 -0.5551132511
O   O21       1.0  0.55711  0.65422  0.62073  1.0000 -0.5495898329
O   O22       1.0  0.42046  0.51757  0.56899  1.0000 -0.5551132511
O   O23       1.0  0.03349  0.93638  0.37927  1.0000 -0.5495898329
O   O24       1.0  0.94858  0.85147  0.43101  1.0000 -0.5551132511
O   O25       1.0  0.06362  0.96651  0.62073  1.0000 -0.5495898329
O   O26       1.0  0.14853  0.05142  0.56899  1.0000 -0.5551132511
O   O27       1.0  0.34578  0.44289  0.37927  1.0000 -0.5495898329
O   O28       1.0  0.48243  0.57954  0.43101  1.0000 -0.5551132511
O   O29       1.0  0.44289  0.06362  0.09711  1.0000 -0.5495898329
O   O30       1.0  0.57954  0.14853  0.09711  1.0000 -0.5495898329
O   O31       1.0  0.96651  0.34578  0.90289  1.0000 -0.5495898329
O   O32       1.0  0.05142  0.48243  0.90289  1.0000 -0.5551132511
