# DDEC6 charges by PACMAN v1.1 (https://github.com/mtap-research/PACMAN-charge/)
data_2018[Zn][nan]3[FSR]2
_chemical_formula_sum              "Zn8 H60 C96 N12 O28"
_cell_length_a       15.5153
_cell_length_b       15.5153
_cell_length_c       14.0603
_cell_angle_alpha    83.2607
_cell_angle_beta     96.7393
_cell_angle_gamma    102.654

_symmetry_space_group_name_H-M    "P 1"
_symmetry_Int_Tables_number       1

loop_
  _symmetry_equiv_pos_as_xyz
  'x, y, z'

loop_
  _atom_site_type_symbol
  _atom_site_label
  _atom_site_symmetry_multiplicity
  _atom_site_fract_x
  _atom_site_fract_y
  _atom_site_fract_z
  _atom_site_occupancy
  _atom_site_charge
Zn  Zn1       1.0  0.75596  0.01164  0.85677  1.0000 0.8524746539
Zn  Zn2       1.0  0.71359  0.04041  0.60718  1.0000 0.7557803185
Zn  Zn3       1.0  0.01164  0.75596  0.64323  1.0000 0.8524746539
Zn  Zn4       1.0  0.04041  0.71359  0.89282  1.0000 0.7557803185
Zn  Zn5       1.0  0.24404  0.98836  0.14323  1.0000 0.8524746539
Zn  Zn6       1.0  0.28641  0.95959  0.39282  1.0000 0.7557803185
Zn  Zn7       1.0  0.98836  0.24404  0.35677  1.0000 0.8524746539
Zn  Zn8       1.0  0.95959  0.28641  0.10718  1.0000 0.7557803185
H   H1        1.0  0.73600  0.95300  0.70810  1.0000 0.3405016081
H   H2        1.0  0.70870  0.33630  0.80980  1.0000 0.1111319519
H   H3        1.0  0.76990  0.48030  0.83000  1.0000 0.120681643
H   H4        1.0  0.00370  0.41450  0.90720  1.0000 0.130337722
H   H5        1.0  0.07780  0.17060  0.08330  1.0000 0.130337722
H   H6        1.0  0.07770  0.12630  0.81220  1.0000 0.120681643
H   H7        1.0  0.97580  0.21880  0.77020  1.0000 0.130337722
H   H8        1.0  0.57700  0.05960  0.82430  1.0000 0.120681643
H   H9        1.0  0.43380  0.99720  0.84130  1.0000 0.1381165812
H   H10       1.0  0.50410  0.77870  0.96970  1.0000 0.130337722
H   H11       1.0  0.64840  0.84940  0.95610  1.0000 0.120681643
H   H12       1.0  0.30700  0.94920  0.90940  1.0000 0.1381165812
H   H13       1.0  0.16380  0.88460  0.90610  1.0000 0.120681643
H   H14       1.0  0.21590  0.64930  0.91900  1.0000 0.120681643
H   H15       1.0  0.36530  0.70910  0.92070  1.0000 0.130337722
H   H16       1.0  0.95300  0.73600  0.79190  1.0000 0.3405016081
H   H17       1.0  0.33630  0.70870  0.69020  1.0000 0.1111319519
H   H18       1.0  0.48030  0.76990  0.67000  1.0000 0.120681643
H   H19       1.0  0.41450  0.00370  0.59280  1.0000 0.130337722
H   H20       1.0  0.17060  0.07780  0.41670  1.0000 0.130337722
H   H21       1.0  0.12630  0.07770  0.68780  1.0000 0.120681643
H   H22       1.0  0.21880  0.97580  0.72980  1.0000 0.130337722
H   H23       1.0  0.05960  0.57700  0.67570  1.0000 0.120681643
H   H24       1.0  0.99720  0.43380  0.65870  1.0000 0.1381165812
H   H25       1.0  0.77870  0.50410  0.53030  1.0000 0.130337722
H   H26       1.0  0.84940  0.64840  0.54390  1.0000 0.120681643
H   H27       1.0  0.94920  0.30700  0.59060  1.0000 0.1381165812
H   H28       1.0  0.88460  0.16380  0.59390  1.0000 0.120681643
H   H29       1.0  0.64930  0.21590  0.58100  1.0000 0.120681643
H   H30       1.0  0.70910  0.36530  0.57930  1.0000 0.130337722
H   H31       1.0  0.26400  0.04700  0.29190  1.0000 0.3405016081
H   H32       1.0  0.29130  0.66370  0.19020  1.0000 0.1111319519
H   H33       1.0  0.23010  0.51970  0.17000  1.0000 0.120681643
H   H34       1.0  0.99630  0.58550  0.09280  1.0000 0.130337722
H   H35       1.0  0.92220  0.82940  0.91670  1.0000 0.130337722
H   H36       1.0  0.92230  0.87370  0.18780  1.0000 0.120681643
H   H37       1.0  0.02420  0.78120  0.22980  1.0000 0.130337722
H   H38       1.0  0.42300  0.94040  0.17570  1.0000 0.120681643
H   H39       1.0  0.56620  0.00280  0.15870  1.0000 0.1381165812
H   H40       1.0  0.49590  0.22130  0.03030  1.0000 0.130337722
H   H41       1.0  0.35160  0.15060  0.04390  1.0000 0.120681643
H   H42       1.0  0.69300  0.05080  0.09060  1.0000 0.1381165812
H   H43       1.0  0.83620  0.11540  0.09390  1.0000 0.120681643
H   H44       1.0  0.78410  0.35070  0.08100  1.0000 0.120681643
H   H45       1.0  0.63470  0.29090  0.07930  1.0000 0.130337722
H   H46       1.0  0.04700  0.26400  0.20810  1.0000 0.3405016081
H   H47       1.0  0.66370  0.29130  0.30980  1.0000 0.1111319519
H   H48       1.0  0.51970  0.23010  0.33000  1.0000 0.120681643
H   H49       1.0  0.58550  0.99630  0.40720  1.0000 0.130337722
H   H50       1.0  0.82940  0.92220  0.58330  1.0000 0.130337722
H   H51       1.0  0.87370  0.92230  0.31220  1.0000 0.120681643
H   H52       1.0  0.78120  0.02420  0.27020  1.0000 0.130337722
H   H53       1.0  0.94040  0.42300  0.32430  1.0000 0.120681643
H   H54       1.0  0.00280  0.56620  0.34130  1.0000 0.1381165812
H   H55       1.0  0.22130  0.49590  0.46970  1.0000 0.130337722
H   H56       1.0  0.15060  0.35160  0.45610  1.0000 0.120681643
H   H57       1.0  0.05080  0.69300  0.40940  1.0000 0.1381165812
H   H58       1.0  0.11540  0.83620  0.40610  1.0000 0.120681643
H   H59       1.0  0.35070  0.78410  0.41900  1.0000 0.120681643
H   H60       1.0  0.29090  0.63470  0.42070  1.0000 0.130337722
C   C1        1.0  0.77040  0.19200  0.84430  1.0000 0.5541762949
C   C2        1.0  0.81750  0.28590  0.85050  1.0000 -0.0607590957
C   C3        1.0  0.76860  0.35180  0.83110  1.0000 -0.126036851
C   C4        1.0  0.80530  0.43830  0.84230  1.0000 -0.1132789461
C   C5        1.0  0.89290  0.46450  0.87130  1.0000 -0.0093451475
C   C6        1.0  0.93560  0.55920  0.88460  1.0000 0.5362099053
C   C7        1.0  0.94330  0.39830  0.88840  1.0000 -0.1609206667
C   C8        1.0  0.90670  0.31070  0.87860  1.0000 0.0118831301
C   C9        1.0  0.96890  0.24630  0.90380  1.0000 0.2134222405
C   C10       1.0  0.05690  0.17990  0.01890  1.0000 0.0574562902
C   C11       1.0  0.08730  0.13790  0.95330  1.0000 -0.0530602767
C   C12       1.0  0.15330  0.07970  0.98710  1.0000 0.5644660683
C   C13       1.0  0.05790  0.15250  0.85920  1.0000 -0.0376054088
C   C14       1.0  0.99690  0.20810  0.83420  1.0000 -0.1609206667
C   C15       1.0  0.56330  0.00230  0.85420  1.0000 0.0933863388
C   C16       1.0  0.47660  0.96440  0.86470  1.0000 -0.1991395114
C   C17       1.0  0.44960  0.88140  0.90740  1.0000 0.1044005731
C   C18       1.0  0.51710  0.83650  0.94070  1.0000 -0.1991395114
C   C19       1.0  0.60390  0.87910  0.93020  1.0000 0.0680220665
C   C20       1.0  0.35500  0.83880  0.91400  1.0000 0.1111319519
C   C21       1.0  0.29050  0.88790  0.91030  1.0000 -0.1724881513
C   C22       1.0  0.20500  0.84900  0.90800  1.0000 0.0798568518
C   C23       1.0  0.23500  0.71060  0.91520  1.0000 0.120681643
C   C24       1.0  0.32500  0.74600  0.91720  1.0000 -0.1944279766
C   C25       1.0  0.19200  0.77040  0.65570  1.0000 0.5541762949
C   C26       1.0  0.28590  0.81750  0.64950  1.0000 -0.0607590957
C   C27       1.0  0.35180  0.76860  0.66890  1.0000 -0.126036851
C   C28       1.0  0.43830  0.80530  0.65770  1.0000 -0.1132789461
C   C29       1.0  0.46450  0.89290  0.62870  1.0000 -0.0093451475
C   C30       1.0  0.55920  0.93560  0.61540  1.0000 0.5362099053
C   C31       1.0  0.39830  0.94330  0.61160  1.0000 -0.1609206667
C   C32       1.0  0.31070  0.90670  0.62140  1.0000 0.0118831301
C   C33       1.0  0.24630  0.96890  0.59620  1.0000 0.2134222405
C   C34       1.0  0.17990  0.05690  0.48110  1.0000 0.0574562902
C   C35       1.0  0.13790  0.08730  0.54670  1.0000 -0.0530602767
C   C36       1.0  0.07970  0.15330  0.51290  1.0000 0.5644660683
C   C37       1.0  0.15250  0.05790  0.64080  1.0000 -0.0376054088
C   C38       1.0  0.20810  0.99690  0.66580  1.0000 -0.1609206667
C   C39       1.0  0.00230  0.56330  0.64580  1.0000 0.0933863388
C   C40       1.0  0.96440  0.47660  0.63530  1.0000 -0.1991395114
C   C41       1.0  0.88140  0.44960  0.59260  1.0000 0.1044005731
C   C42       1.0  0.83650  0.51710  0.55930  1.0000 -0.1991395114
C   C43       1.0  0.87910  0.60390  0.56980  1.0000 0.0680220665
C   C44       1.0  0.83880  0.35500  0.58600  1.0000 0.1111319519
C   C45       1.0  0.88790  0.29050  0.58970  1.0000 -0.1724881513
C   C46       1.0  0.84900  0.20500  0.59200  1.0000 0.0798568518
C   C47       1.0  0.71060  0.23500  0.58480  1.0000 0.120681643
C   C48       1.0  0.74600  0.32500  0.58280  1.0000 -0.1944279766
C   C49       1.0  0.22960  0.80800  0.15570  1.0000 0.5541762949
C   C50       1.0  0.18250  0.71410  0.14950  1.0000 -0.0607590957
C   C51       1.0  0.23140  0.64820  0.16890  1.0000 -0.126036851
C   C52       1.0  0.19470  0.56170  0.15770  1.0000 -0.1132789461
C   C53       1.0  0.10710  0.53550  0.12870  1.0000 -0.0093451475
C   C54       1.0  0.06440  0.44080  0.11540  1.0000 0.5362099053
C   C55       1.0  0.05670  0.60170  0.11160  1.0000 -0.1609206667
C   C56       1.0  0.09330  0.68930  0.12140  1.0000 0.0118831301
C   C57       1.0  0.03110  0.75370  0.09620  1.0000 0.2134222405
C   C58       1.0  0.94310  0.82010  0.98110  1.0000 0.0574562902
C   C59       1.0  0.91270  0.86210  0.04670  1.0000 -0.0530602767
C   C60       1.0  0.84670  0.92030  0.01290  1.0000 0.5644660683
C   C61       1.0  0.94210  0.84750  0.14080  1.0000 -0.0376054088
C   C62       1.0  0.00310  0.79190  0.16580  1.0000 -0.1609206667
C   C63       1.0  0.43670  0.99770  0.14580  1.0000 0.0933863388
C   C64       1.0  0.52340  0.03560  0.13530  1.0000 -0.1991395114
C   C65       1.0  0.55040  0.11860  0.09260  1.0000 0.1044005731
C   C66       1.0  0.48290  0.16350  0.05930  1.0000 -0.1991395114
C   C67       1.0  0.39610  0.12090  0.06980  1.0000 0.0680220665
C   C68       1.0  0.64500  0.16120  0.08600  1.0000 0.1111319519
C   C69       1.0  0.70950  0.11210  0.08970  1.0000 -0.1724881513
C   C70       1.0  0.79500  0.15100  0.09200  1.0000 0.0798568518
C   C71       1.0  0.76500  0.28940  0.08480  1.0000 0.120681643
C   C72       1.0  0.67500  0.25400  0.08280  1.0000 -0.1944279766
C   C73       1.0  0.80800  0.22960  0.34430  1.0000 0.5541762949
C   C74       1.0  0.71410  0.18250  0.35050  1.0000 -0.0607590957
C   C75       1.0  0.64820  0.23140  0.33110  1.0000 -0.126036851
C   C76       1.0  0.56170  0.19470  0.34230  1.0000 -0.1132789461
C   C77       1.0  0.53550  0.10710  0.37130  1.0000 -0.0093451475
C   C78       1.0  0.44080  0.06440  0.38460  1.0000 0.5362099053
C   C79       1.0  0.60170  0.05670  0.38840  1.0000 -0.1609206667
C   C80       1.0  0.68930  0.09330  0.37860  1.0000 0.0118831301
C   C81       1.0  0.75370  0.03110  0.40380  1.0000 0.2134222405
C   C82       1.0  0.82010  0.94310  0.51890  1.0000 0.0574562902
C   C83       1.0  0.86210  0.91270  0.45330  1.0000 -0.0530602767
C   C84       1.0  0.92030  0.84670  0.48710  1.0000 0.5644660683
C   C85       1.0  0.84750  0.94210  0.35920  1.0000 -0.0376054088
C   C86       1.0  0.79190  0.00310  0.33420  1.0000 -0.1609206667
C   C87       1.0  0.99770  0.43670  0.35420  1.0000 0.0933863388
C   C88       1.0  0.03560  0.52340  0.36470  1.0000 -0.1991395114
C   C89       1.0  0.11860  0.55040  0.40740  1.0000 0.1044005731
C   C90       1.0  0.16350  0.48290  0.44070  1.0000 -0.1991395114
C   C91       1.0  0.12090  0.39610  0.43020  1.0000 0.0680220665
C   C92       1.0  0.16120  0.64500  0.41400  1.0000 0.1111319519
C   C93       1.0  0.11210  0.70950  0.41030  1.0000 -0.1724881513
C   C94       1.0  0.15100  0.79500  0.40800  1.0000 0.0798568518
C   C95       1.0  0.28940  0.76500  0.41520  1.0000 0.120681643
C   C96       1.0  0.25400  0.67500  0.41720  1.0000 -0.1944279766
N   N1        1.0  0.99870  0.23390  0.99620  1.0000 -0.2662172301
N   N2        1.0  0.62840  0.96100  0.88470  1.0000 -0.2455843074
N   N3        1.0  0.17500  0.76020  0.90830  1.0000 -0.2278486548
N   N4        1.0  0.23390  0.99870  0.50380  1.0000 -0.2662172301
N   N5        1.0  0.96100  0.62840  0.61530  1.0000 -0.2455843074
N   N6        1.0  0.76020  0.17500  0.59170  1.0000 -0.2278486548
N   N7        1.0  0.00130  0.76610  0.00380  1.0000 -0.2662172301
N   N8        1.0  0.37160  0.03900  0.11530  1.0000 -0.2455843074
N   N9        1.0  0.82500  0.23980  0.09170  1.0000 -0.2278486548
N   N10       1.0  0.76610  0.00130  0.49620  1.0000 -0.2662172301
N   N11       1.0  0.03900  0.37160  0.38470  1.0000 -0.2455843074
N   N12       1.0  0.23980  0.82500  0.40830  1.0000 -0.2278486548
O   O1        1.0  0.81150  0.13190  0.88320  1.0000 -0.5390160067
O   O2        1.0  0.69650  0.17530  0.79930  1.0000 -0.5461838602
O   O3        1.0  0.01784  0.58396  0.88520  1.0000 -0.5213129132
O   O4        1.0  0.88730  0.61130  0.89210  1.0000 -0.5213129132
O   O5        1.0  0.16826  0.06594  0.07630  1.0000 -0.5390160067
O   O6        1.0  0.18840  0.05060  0.92690  1.0000 -0.5612711368
O   O7        1.0  0.77382  0.99738  0.72590  1.0000 -0.7721082775
O   O8        1.0  0.13190  0.81150  0.61680  1.0000 -0.5390160067
O   O9        1.0  0.17530  0.69650  0.70070  1.0000 -0.5461838602
O   O10       1.0  0.58396  0.01784  0.61480  1.0000 -0.5213129132
O   O11       1.0  0.61130  0.88730  0.60790  1.0000 -0.5213129132
O   O12       1.0  0.06594  0.16826  0.42370  1.0000 -0.5390160067
O   O13       1.0  0.05060  0.18840  0.57310  1.0000 -0.5612711368
O   O14       1.0  0.99738  0.77382  0.77410  1.0000 -0.7721082775
O   O15       1.0  0.18850  0.86810  0.11680  1.0000 -0.5390160067
O   O16       1.0  0.30350  0.82470  0.20070  1.0000 -0.5461838602
O   O17       1.0  0.98216  0.41604  0.11480  1.0000 -0.5213129132
O   O18       1.0  0.11270  0.38870  0.10790  1.0000 -0.5213129132
O   O19       1.0  0.83174  0.93406  0.92370  1.0000 -0.5390160067
O   O20       1.0  0.81160  0.94940  0.07310  1.0000 -0.5612711368
O   O21       1.0  0.22618  0.00262  0.27410  1.0000 -0.7721082775
O   O22       1.0  0.86810  0.18850  0.38320  1.0000 -0.5390160067
O   O23       1.0  0.82470  0.30350  0.29930  1.0000 -0.5461838602
O   O24       1.0  0.41604  0.98216  0.38520  1.0000 -0.5213129132
O   O25       1.0  0.38870  0.11270  0.39210  1.0000 -0.5213129132
O   O26       1.0  0.93406  0.83174  0.57630  1.0000 -0.5390160067
O   O27       1.0  0.94940  0.81160  0.42690  1.0000 -0.5612711368
O   O28       1.0  0.00262  0.22618  0.22590  1.0000 -0.7721082775
