# DDEC6 charges by PACMAN v1.1 (https://github.com/mtap-research/PACMAN-charge/)
data_2018[Zn][nan]2[FSR]4
_chemical_formula_sum              "Zn4 H72 C80 N8 O40"
_cell_length_a       18.7979
_cell_length_b       18.7979
_cell_length_c       8.1657
_cell_angle_alpha    90
_cell_angle_beta     90
_cell_angle_gamma    106.697

_symmetry_space_group_name_H-M    "P 1"
_symmetry_Int_Tables_number       1

loop_
  _symmetry_equiv_pos_as_xyz
  'x, y, z'

loop_
  _atom_site_type_symbol
  _atom_site_label
  _atom_site_symmetry_multiplicity
  _atom_site_fract_x
  _atom_site_fract_y
  _atom_site_fract_z
  _atom_site_occupancy
  _atom_site_charge
Zn  Zn1       1.0  0.25000  0.25000  0.75000  1.0000 0.964964655
Zn  Zn2       1.0  0.75000  0.75000  0.75000  1.0000 0.964964655
Zn  Zn3       1.0  0.75000  0.75000  0.25000  1.0000 0.964964655
Zn  Zn4       1.0  0.25000  0.25000  0.25000  1.0000 0.964964655
H   H1        1.0  0.11250  0.36510  0.96220  1.0000 0.1189704035
H   H2        1.0  0.03710  0.43710  0.03360  1.0000 0.1189704035
H   H3        1.0  0.92310  0.42010  0.90940  1.0000 0.1189704035
H   H4        1.0  0.96140  0.25880  0.63150  1.0000 0.1375645061
H   H5        1.0  0.67950  0.40230  0.60490  1.0000 0.1375645061
H   H6        1.0  0.85020  0.28560  0.61000  1.0000 0.2859156772
H   H7        1.0  0.23370  0.10990  0.80200  1.0000 0.3683045662
H   H8        1.0  0.23050  0.14110  0.95400  1.0000 0.3683045662
H   H9        1.0  0.16470  0.20910  0.51800  1.0000 0.3488751806
H   H10       1.0  0.88750  0.63490  0.96220  1.0000 0.1189704035
H   H11       1.0  0.96290  0.56290  0.03360  1.0000 0.1189704035
H   H12       1.0  0.07690  0.57990  0.90940  1.0000 0.1189704035
H   H13       1.0  0.03860  0.74120  0.63150  1.0000 0.1375645061
H   H14       1.0  0.32050  0.59770  0.60490  1.0000 0.1375645061
H   H15       1.0  0.14980  0.71440  0.61000  1.0000 0.2859156772
H   H16       1.0  0.76630  0.89010  0.80200  1.0000 0.3683045662
H   H17       1.0  0.76950  0.85890  0.95400  1.0000 0.3683045662
H   H18       1.0  0.83530  0.79090  0.51800  1.0000 0.3488751806
H   H19       1.0  0.63490  0.88750  0.03780  1.0000 0.1189704035
H   H20       1.0  0.56290  0.96290  0.96640  1.0000 0.1189704035
H   H21       1.0  0.57990  0.07690  0.09060  1.0000 0.1189704035
H   H22       1.0  0.74120  0.03860  0.36850  1.0000 0.1375645061
H   H23       1.0  0.59770  0.32050  0.39510  1.0000 0.1375645061
H   H24       1.0  0.71440  0.14980  0.39000  1.0000 0.2859156772
H   H25       1.0  0.89010  0.76630  0.19800  1.0000 0.3683045662
H   H26       1.0  0.85890  0.76950  0.04600  1.0000 0.3683045662
H   H27       1.0  0.79090  0.83530  0.48200  1.0000 0.3488751806
H   H28       1.0  0.36510  0.11250  0.03780  1.0000 0.1189704035
H   H29       1.0  0.43710  0.03710  0.96640  1.0000 0.1189704035
H   H30       1.0  0.42010  0.92310  0.09060  1.0000 0.1189704035
H   H31       1.0  0.25880  0.96140  0.36850  1.0000 0.1375645061
H   H32       1.0  0.40230  0.67950  0.39510  1.0000 0.1375645061
H   H33       1.0  0.28560  0.85020  0.39000  1.0000 0.2859156772
H   H34       1.0  0.10990  0.23370  0.19800  1.0000 0.3683045662
H   H35       1.0  0.14110  0.23050  0.04600  1.0000 0.3683045662
H   H36       1.0  0.20910  0.16470  0.48200  1.0000 0.3488751806
H   H37       1.0  0.38750  0.13490  0.53780  1.0000 0.1189704035
H   H38       1.0  0.46290  0.06290  0.46640  1.0000 0.1189704035
H   H39       1.0  0.57690  0.07990  0.59060  1.0000 0.1189704035
H   H40       1.0  0.53860  0.24120  0.86850  1.0000 0.1375645061
H   H41       1.0  0.82050  0.09770  0.89510  1.0000 0.1375645061
H   H42       1.0  0.64980  0.21440  0.89000  1.0000 0.2859156772
H   H43       1.0  0.26630  0.39010  0.69800  1.0000 0.3683045662
H   H44       1.0  0.26950  0.35890  0.54600  1.0000 0.3683045662
H   H45       1.0  0.33530  0.29090  0.98200  1.0000 0.3488751806
H   H46       1.0  0.61250  0.86510  0.53780  1.0000 0.1189704035
H   H47       1.0  0.53710  0.93710  0.46640  1.0000 0.1189704035
H   H48       1.0  0.42310  0.92010  0.59060  1.0000 0.1189704035
H   H49       1.0  0.46140  0.75880  0.86850  1.0000 0.1375645061
H   H50       1.0  0.17950  0.90230  0.89510  1.0000 0.1375645061
H   H51       1.0  0.35020  0.78560  0.89000  1.0000 0.2859156772
H   H52       1.0  0.73370  0.60990  0.69800  1.0000 0.3683045662
H   H53       1.0  0.73050  0.64110  0.54600  1.0000 0.3683045662
H   H54       1.0  0.66470  0.70910  0.98200  1.0000 0.3488751806
H   H55       1.0  0.86510  0.61250  0.46220  1.0000 0.1189704035
H   H56       1.0  0.93710  0.53710  0.53360  1.0000 0.1189704035
H   H57       1.0  0.92010  0.42310  0.40940  1.0000 0.1189704035
H   H58       1.0  0.75880  0.46140  0.13150  1.0000 0.1375645061
H   H59       1.0  0.90230  0.17950  0.10490  1.0000 0.1375645061
H   H60       1.0  0.78560  0.35020  0.11000  1.0000 0.2859156772
H   H61       1.0  0.60990  0.73370  0.30200  1.0000 0.3683045662
H   H62       1.0  0.64110  0.73050  0.45400  1.0000 0.3683045662
H   H63       1.0  0.70910  0.66470  0.01800  1.0000 0.3488751806
H   H64       1.0  0.13490  0.38750  0.46220  1.0000 0.1189704035
H   H65       1.0  0.06290  0.46290  0.53360  1.0000 0.1189704035
H   H66       1.0  0.07990  0.57690  0.40940  1.0000 0.1189704035
H   H67       1.0  0.24120  0.53860  0.13150  1.0000 0.1375645061
H   H68       1.0  0.09770  0.82050  0.10490  1.0000 0.1375645061
H   H69       1.0  0.21440  0.64980  0.11000  1.0000 0.2859156772
H   H70       1.0  0.39010  0.26630  0.30200  1.0000 0.3683045662
H   H71       1.0  0.35890  0.26950  0.45400  1.0000 0.3683045662
H   H72       1.0  0.29090  0.33530  0.01800  1.0000 0.3488751806
C   C1        1.0  0.09663  0.26361  0.72730  1.0000 0.5727502375
C   C2        1.0  0.04540  0.30556  0.78680  1.0000 -0.023752644
C   C3        1.0  0.06721  0.35843  0.90960  1.0000 -0.1275337145
C   C4        1.0  0.02158  0.40092  0.95320  1.0000 -0.0659526272
C   C5        1.0  0.95313  0.39069  0.87940  1.0000 -0.179037358
C   C6        1.0  0.92934  0.33600  0.75950  1.0000 0.2265785008
C   C7        1.0  0.97629  0.29451  0.71310  1.0000 -0.2020428919
C   C8        1.0  0.80770  0.35632  0.69530  1.0000 0.4251780778
C   C9        1.0  0.74241  0.33037  0.58990  1.0000 0.0604241684
C   C10       1.0  0.68644  0.35966  0.55830  1.0000 -0.1558105119
C   C11       1.0  0.90337  0.73639  0.72730  1.0000 0.5727502375
C   C12       1.0  0.95460  0.69444  0.78680  1.0000 -0.023752644
C   C13       1.0  0.93279  0.64157  0.90960  1.0000 -0.1275337145
C   C14       1.0  0.97842  0.59908  0.95320  1.0000 -0.0659526272
C   C15       1.0  0.04687  0.60931  0.87940  1.0000 -0.179037358
C   C16       1.0  0.07066  0.66400  0.75950  1.0000 0.2265785008
C   C17       1.0  0.02371  0.70549  0.71310  1.0000 -0.2020428919
C   C18       1.0  0.19230  0.64368  0.69530  1.0000 0.4251780778
C   C19       1.0  0.25759  0.66963  0.58990  1.0000 0.0604241684
C   C20       1.0  0.31356  0.64034  0.55830  1.0000 -0.1558105119
C   C21       1.0  0.73639  0.90337  0.27270  1.0000 0.5727502375
C   C22       1.0  0.69444  0.95460  0.21320  1.0000 -0.023752644
C   C23       1.0  0.64157  0.93279  0.09040  1.0000 -0.1275337145
C   C24       1.0  0.59908  0.97842  0.04680  1.0000 -0.0659526272
C   C25       1.0  0.60931  0.04687  0.12060  1.0000 -0.179037358
C   C26       1.0  0.66400  0.07066  0.24050  1.0000 0.2265785008
C   C27       1.0  0.70549  0.02371  0.28690  1.0000 -0.2020428919
C   C28       1.0  0.64368  0.19230  0.30470  1.0000 0.4251780778
C   C29       1.0  0.66963  0.25759  0.41010  1.0000 0.0604241684
C   C30       1.0  0.64034  0.31356  0.44170  1.0000 -0.1558105119
C   C31       1.0  0.26361  0.09663  0.27270  1.0000 0.5727502375
C   C32       1.0  0.30556  0.04540  0.21320  1.0000 -0.023752644
C   C33       1.0  0.35843  0.06721  0.09040  1.0000 -0.1275337145
C   C34       1.0  0.40092  0.02158  0.04680  1.0000 -0.0659526272
C   C35       1.0  0.39069  0.95313  0.12060  1.0000 -0.179037358
C   C36       1.0  0.33600  0.92934  0.24050  1.0000 0.2265785008
C   C37       1.0  0.29451  0.97629  0.28690  1.0000 -0.2020428919
C   C38       1.0  0.35632  0.80770  0.30470  1.0000 0.4251780778
C   C39       1.0  0.33037  0.74241  0.41010  1.0000 0.0604241684
C   C40       1.0  0.35966  0.68644  0.44170  1.0000 -0.1558105119
C   C41       1.0  0.40337  0.23639  0.77270  1.0000 0.5727502375
C   C42       1.0  0.45460  0.19444  0.71320  1.0000 -0.023752644
C   C43       1.0  0.43279  0.14157  0.59040  1.0000 -0.1275337145
C   C44       1.0  0.47842  0.09908  0.54680  1.0000 -0.0659526272
C   C45       1.0  0.54687  0.10931  0.62060  1.0000 -0.179037358
C   C46       1.0  0.57066  0.16400  0.74050  1.0000 0.2265785008
C   C47       1.0  0.52371  0.20549  0.78690  1.0000 -0.2020428919
C   C48       1.0  0.69230  0.14368  0.80470  1.0000 0.4251780778
C   C49       1.0  0.75759  0.16963  0.91010  1.0000 0.0604241684
C   C50       1.0  0.81356  0.14034  0.94170  1.0000 -0.1558105119
C   C51       1.0  0.59663  0.76361  0.77270  1.0000 0.5727502375
C   C52       1.0  0.54540  0.80556  0.71320  1.0000 -0.023752644
C   C53       1.0  0.56721  0.85843  0.59040  1.0000 -0.1275337145
C   C54       1.0  0.52158  0.90092  0.54680  1.0000 -0.0659526272
C   C55       1.0  0.45313  0.89069  0.62060  1.0000 -0.179037358
C   C56       1.0  0.42934  0.83600  0.74050  1.0000 0.2265785008
C   C57       1.0  0.47629  0.79451  0.78690  1.0000 -0.2020428919
C   C58       1.0  0.30770  0.85632  0.80470  1.0000 0.4251780778
C   C59       1.0  0.24241  0.83037  0.91010  1.0000 0.0604241684
C   C60       1.0  0.18644  0.85966  0.94170  1.0000 -0.1558105119
C   C61       1.0  0.76361  0.59663  0.22730  1.0000 0.5727502375
C   C62       1.0  0.80556  0.54540  0.28680  1.0000 -0.023752644
C   C63       1.0  0.85843  0.56721  0.40960  1.0000 -0.1275337145
C   C64       1.0  0.90092  0.52158  0.45320  1.0000 -0.0659526272
C   C65       1.0  0.89069  0.45313  0.37940  1.0000 -0.179037358
C   C66       1.0  0.83600  0.42934  0.25950  1.0000 0.2265785008
C   C67       1.0  0.79451  0.47629  0.21310  1.0000 -0.2020428919
C   C68       1.0  0.85632  0.30770  0.19530  1.0000 0.4251780778
C   C69       1.0  0.83037  0.24241  0.08990  1.0000 0.0604241684
C   C70       1.0  0.85966  0.18644  0.05830  1.0000 -0.1558105119
C   C71       1.0  0.23639  0.40337  0.22730  1.0000 0.5727502375
C   C72       1.0  0.19444  0.45460  0.28680  1.0000 -0.023752644
C   C73       1.0  0.14157  0.43279  0.40960  1.0000 -0.1275337145
C   C74       1.0  0.09908  0.47842  0.45320  1.0000 -0.0659526272
C   C75       1.0  0.10931  0.54687  0.37940  1.0000 -0.179037358
C   C76       1.0  0.16400  0.57066  0.25950  1.0000 0.2265785008
C   C77       1.0  0.20549  0.52371  0.21310  1.0000 -0.2020428919
C   C78       1.0  0.14368  0.69230  0.19530  1.0000 0.4251780778
C   C79       1.0  0.16963  0.75759  0.08990  1.0000 0.0604241684
C   C80       1.0  0.14034  0.81356  0.05830  1.0000 -0.1558105119
N   N1        1.0  0.85938  0.31932  0.68210  1.0000 -0.3615207702
N   N2        1.0  0.14062  0.68068  0.68210  1.0000 -0.3615207702
N   N3        1.0  0.68068  0.14062  0.31790  1.0000 -0.3615207702
N   N4        1.0  0.31932  0.85938  0.31790  1.0000 -0.3615207702
N   N5        1.0  0.64062  0.18068  0.81790  1.0000 -0.3615207702
N   N6        1.0  0.35938  0.81932  0.81790  1.0000 -0.3615207702
N   N7        1.0  0.81932  0.35938  0.18210  1.0000 -0.3615207702
N   N8        1.0  0.18068  0.64062  0.18210  1.0000 -0.3615207702
O   O1        1.0  0.81273  0.40891  0.78730  1.0000 -0.4854628176
O   O2        1.0  0.08668  0.23512  0.58740  1.0000 -0.5253697366
O   O3        1.0  0.14924  0.26016  0.82090  1.0000 -0.5790635676
O   O4        1.0  0.22452  0.14426  0.85260  1.0000 -0.6464550823
O   O5        1.0  0.18727  0.59109  0.78730  1.0000 -0.4849526018
O   O6        1.0  0.91332  0.76488  0.58740  1.0000 -0.5253697366
O   O7        1.0  0.85076  0.73984  0.82090  1.0000 -0.5790635676
O   O8        1.0  0.77548  0.85574  0.85260  1.0000 -0.6464550823
O   O9        1.0  0.59109  0.18727  0.21270  1.0000 -0.4854628176
O   O10       1.0  0.76488  0.91332  0.41260  1.0000 -0.5253697366
O   O11       1.0  0.73984  0.85076  0.17910  1.0000 -0.5790635676
O   O12       1.0  0.85574  0.77548  0.14740  1.0000 -0.6464550823
O   O13       1.0  0.40891  0.81273  0.21270  1.0000 -0.4849526018
O   O14       1.0  0.23512  0.08668  0.41260  1.0000 -0.5253697366
O   O15       1.0  0.26016  0.14924  0.17910  1.0000 -0.5790635676
O   O16       1.0  0.14426  0.22452  0.14740  1.0000 -0.6464550823
O   O17       1.0  0.68727  0.09109  0.71270  1.0000 -0.4854628176
O   O18       1.0  0.41332  0.26488  0.91260  1.0000 -0.5253697366
O   O19       1.0  0.35076  0.23984  0.67910  1.0000 -0.5790635676
O   O20       1.0  0.27548  0.35574  0.64740  1.0000 -0.6464550823
O   O21       1.0  0.31273  0.90891  0.71270  1.0000 -0.4849526018
O   O22       1.0  0.58668  0.73512  0.91260  1.0000 -0.5253697366
O   O23       1.0  0.64924  0.76016  0.67910  1.0000 -0.5790635676
O   O24       1.0  0.72452  0.64426  0.64740  1.0000 -0.6464550823
O   O25       1.0  0.90891  0.31273  0.28730  1.0000 -0.4854628176
O   O26       1.0  0.73512  0.58668  0.08740  1.0000 -0.5253697366
O   O27       1.0  0.76016  0.64924  0.32090  1.0000 -0.5790635676
O   O28       1.0  0.64426  0.72452  0.35260  1.0000 -0.6464550823
O   O29       1.0  0.09109  0.68727  0.28730  1.0000 -0.4849526018
O   O30       1.0  0.26488  0.41332  0.08740  1.0000 -0.5253697366
O   O31       1.0  0.23984  0.35076  0.32090  1.0000 -0.5790635676
O   O32       1.0  0.35574  0.27548  0.35260  1.0000 -0.6464550823
O   O33       1.0  0.73344  0.26656  0.50000  1.0000 -0.1473102451
O   O34       1.0  0.26656  0.73344  0.50000  1.0000 -0.1473102451
O   O35       1.0  0.76656  0.23344  0.00000  1.0000 -0.1473102451
O   O36       1.0  0.23344  0.76656  0.00000  1.0000 -0.1473102451
O   O37       1.0  0.20937  0.20937  0.50000  1.0000 -0.6909035773
O   O38       1.0  0.79063  0.79063  0.50000  1.0000 -0.6909035773
O   O39       1.0  0.29063  0.29063  0.00000  1.0000 -0.6909035773
O   O40       1.0  0.70937  0.70937  0.00000  1.0000 -0.6909035773
