# DDEC6 charges by PACMAN v1.1 (https://github.com/mtap-research/PACMAN-charge/)
data_2018[Ni][pcu]3[FSR]1
_chemical_formula_sum              "Ni4 H120 C108 N16 O24"
_cell_length_a       9.878
_cell_length_b       28.117
_cell_length_c       10.145
_cell_angle_alpha    90
_cell_angle_beta     101.921
_cell_angle_gamma    90

_symmetry_space_group_name_H-M    "P 1"
_symmetry_Int_Tables_number       1

loop_
  _symmetry_equiv_pos_as_xyz
  'x, y, z'

loop_
  _atom_site_type_symbol
  _atom_site_label
  _atom_site_symmetry_multiplicity
  _atom_site_fract_x
  _atom_site_fract_y
  _atom_site_fract_z
  _atom_site_occupancy
  _atom_site_charge
Ni  Ni1       1.0  0.38144  0.47651  0.65080  1.0000 0.7465998174
Ni  Ni2       1.0  0.11856  0.97651  0.34920  1.0000 0.7465998174
Ni  Ni3       1.0  0.61856  0.52349  0.34920  1.0000 0.7465998174
Ni  Ni4       1.0  0.88144  0.02349  0.65080  1.0000 0.7465998174
H   H1        1.0  0.73240  0.63370  0.69230  1.0000 0.1007097586
H   H2        1.0  0.60300  0.62620  0.76290  1.0000 0.1007097586
H   H3        1.0  0.38000  0.00640  0.55550  1.0000 0.1007097586
H   H4        1.0  0.58020  0.55020  0.88930  1.0000 0.1095204351
H   H5        1.0  0.69650  0.50980  0.90170  1.0000 0.1095204351
H   H6        1.0  0.68580  0.11940  0.52630  1.0000 0.2888899387
H   H7        1.0  0.52770  0.07020  0.61000  1.0000 0.1416307133
H   H8        1.0  0.85490  0.29490  0.63880  1.0000 0.2661150635
H   H9        1.0  0.90150  0.52130  0.79400  1.0000 0.1007097586
H   H10       1.0  0.91730  0.56930  0.71320  1.0000 0.1007097586
H   H11       1.0  0.63600  0.62880  0.01490  1.0000 0.1007097586
H   H12       1.0  0.78700  0.63680  0.10690  1.0000 0.1095204351
H   H13       1.0  0.16020  0.07490  0.24560  1.0000 0.1095204351
H   H14       1.0  0.57530  0.43150  0.90080  1.0000 0.1095204351
H   H15       1.0  0.67480  0.33730  0.56050  1.0000 0.13353697
H   H16       1.0  0.29420  0.14210  0.29610  1.0000 0.1416307133
H   H17       1.0  0.71390  0.36540  0.95700  1.0000 0.1416307133
H   H18       1.0  0.96680  0.57350  0.12720  1.0000 0.1095204351
H   H19       1.0  0.93370  0.52370  0.04990  1.0000 0.1007097586
H   H20       1.0  0.76930  0.67790  0.89820  1.0000 0.0937866938
H   H21       1.0  0.97250  0.23020  0.82900  1.0000 0.1095204351
H   H22       1.0  0.99160  0.23050  0.67600  1.0000 0.1007097586
H   H23       1.0  0.71390  0.21810  0.51770  1.0000 0.1007097586
H   H24       1.0  0.83380  0.18150  0.50180  1.0000 0.1007097586
H   H25       1.0  0.53450  0.40380  0.51380  1.0000 0.1007097586
H   H26       1.0  0.06610  0.57230  0.93110  1.0000 0.0715522112
H   H27       1.0  0.86750  0.16150  0.73340  1.0000 0.1095204351
H   H28       1.0  0.74400  0.19630  0.75050  1.0000 0.1095204351
H   H29       1.0  0.99290  0.64810  0.99650  1.0000 0.1007097586
H   H30       1.0  0.97110  0.64600  0.83540  1.0000 0.1007097586
H   H31       1.0  0.76760  0.13370  0.30770  1.0000 0.1007097586
H   H32       1.0  0.89700  0.12620  0.23710  1.0000 0.1007097586
H   H33       1.0  0.12000  0.50640  0.44450  1.0000 0.1007097586
H   H34       1.0  0.91980  0.05020  0.11070  1.0000 0.1095204351
H   H35       1.0  0.80350  0.00980  0.09830  1.0000 0.1095204351
H   H36       1.0  0.81420  0.61940  0.47370  1.0000 0.2888899387
H   H37       1.0  0.97230  0.57020  0.39000  1.0000 0.1416307133
H   H38       1.0  0.64510  0.79490  0.36120  1.0000 0.2661150635
H   H39       1.0  0.59850  0.02130  0.20600  1.0000 0.1007097586
H   H40       1.0  0.58270  0.06930  0.28680  1.0000 0.1007097586
H   H41       1.0  0.86400  0.12880  0.98510  1.0000 0.1007097586
H   H42       1.0  0.71300  0.13680  0.89310  1.0000 0.1095204351
H   H43       1.0  0.33980  0.57490  0.75440  1.0000 0.1095204351
H   H44       1.0  0.92470  0.93150  0.09920  1.0000 0.1095204351
H   H45       1.0  0.82520  0.83730  0.43950  1.0000 0.13353697
H   H46       1.0  0.20580  0.64210  0.70390  1.0000 0.1416307133
H   H47       1.0  0.78610  0.86540  0.04300  1.0000 0.1416307133
H   H48       1.0  0.53320  0.07350  0.87280  1.0000 0.1095204351
H   H49       1.0  0.56630  0.02370  0.95010  1.0000 0.1007097586
H   H50       1.0  0.73070  0.17790  0.10180  1.0000 0.0937866938
H   H51       1.0  0.52750  0.73020  0.17100  1.0000 0.1095204351
H   H52       1.0  0.50840  0.73050  0.32400  1.0000 0.1007097586
H   H53       1.0  0.78610  0.71810  0.48230  1.0000 0.1007097586
H   H54       1.0  0.66620  0.68150  0.49820  1.0000 0.1007097586
H   H55       1.0  0.96550  0.90380  0.48620  1.0000 0.1007097586
H   H56       1.0  0.43390  0.07230  0.06890  1.0000 0.0715522112
H   H57       1.0  0.63250  0.66150  0.26660  1.0000 0.1095204351
H   H58       1.0  0.75600  0.69630  0.24950  1.0000 0.1095204351
H   H59       1.0  0.50710  0.14810  0.00350  1.0000 0.1007097586
H   H60       1.0  0.52890  0.14600  0.16460  1.0000 0.1007097586
H   H61       1.0  0.26760  0.36630  0.30770  1.0000 0.1007097586
H   H62       1.0  0.39700  0.37380  0.23710  1.0000 0.1007097586
H   H63       1.0  0.62000  0.99360  0.44450  1.0000 0.1007097586
H   H64       1.0  0.41980  0.44980  0.11070  1.0000 0.1095204351
H   H65       1.0  0.30350  0.49020  0.09830  1.0000 0.1095204351
H   H66       1.0  0.31420  0.88060  0.47370  1.0000 0.2888899387
H   H67       1.0  0.47230  0.92980  0.39000  1.0000 0.1416307133
H   H68       1.0  0.14510  0.70510  0.36120  1.0000 0.2661150635
H   H69       1.0  0.09850  0.47870  0.20600  1.0000 0.1007097586
H   H70       1.0  0.08270  0.43070  0.28680  1.0000 0.1007097586
H   H71       1.0  0.36400  0.37120  0.98510  1.0000 0.1007097586
H   H72       1.0  0.21300  0.36320  0.89310  1.0000 0.1095204351
H   H73       1.0  0.83980  0.92510  0.75440  1.0000 0.1095204351
H   H74       1.0  0.42470  0.56850  0.09920  1.0000 0.1095204351
H   H75       1.0  0.32520  0.66270  0.43950  1.0000 0.13353697
H   H76       1.0  0.70580  0.85790  0.70390  1.0000 0.1416307133
H   H77       1.0  0.28610  0.63460  0.04300  1.0000 0.1416307133
H   H78       1.0  0.03320  0.42650  0.87280  1.0000 0.1095204351
H   H79       1.0  0.06630  0.47630  0.95010  1.0000 0.1007097586
H   H80       1.0  0.23070  0.32210  0.10180  1.0000 0.0937866938
H   H81       1.0  0.02750  0.76980  0.17100  1.0000 0.1095204351
H   H82       1.0  0.00840  0.76950  0.32400  1.0000 0.1007097586
H   H83       1.0  0.28610  0.78190  0.48230  1.0000 0.1007097586
H   H84       1.0  0.16620  0.81850  0.49820  1.0000 0.1007097586
H   H85       1.0  0.46550  0.59620  0.48620  1.0000 0.1007097586
H   H86       1.0  0.93390  0.42770  0.06890  1.0000 0.0715522112
H   H87       1.0  0.13250  0.83850  0.26660  1.0000 0.1095204351
H   H88       1.0  0.25600  0.80370  0.24950  1.0000 0.1095204351
H   H89       1.0  0.00710  0.35190  0.00350  1.0000 0.1007097586
H   H90       1.0  0.02890  0.35400  0.16460  1.0000 0.1007097586
H   H91       1.0  0.23240  0.86630  0.69230  1.0000 0.1007097586
H   H92       1.0  0.10300  0.87380  0.76290  1.0000 0.1007097586
H   H93       1.0  0.88000  0.49360  0.55550  1.0000 0.1007097586
H   H94       1.0  0.08020  0.94980  0.88930  1.0000 0.1095204351
H   H95       1.0  0.19650  0.99020  0.90170  1.0000 0.1095204351
H   H96       1.0  0.18580  0.38060  0.52630  1.0000 0.2888899387
H   H97       1.0  0.02770  0.42980  0.61000  1.0000 0.1416307133
H   H98       1.0  0.35490  0.20510  0.63880  1.0000 0.2661150635
H   H99       1.0  0.40150  0.97870  0.79400  1.0000 0.1007097586
H   H100      1.0  0.41730  0.93070  0.71320  1.0000 0.1007097586
H   H101      1.0  0.13600  0.87120  0.01490  1.0000 0.1007097586
H   H102      1.0  0.28700  0.86320  0.10690  1.0000 0.1095204351
H   H103      1.0  0.66020  0.42510  0.24560  1.0000 0.1095204351
H   H104      1.0  0.07530  0.06850  0.90080  1.0000 0.1095204351
H   H105      1.0  0.17480  0.16270  0.56050  1.0000 0.13353697
H   H106      1.0  0.79420  0.35790  0.29610  1.0000 0.1416307133
H   H107      1.0  0.21390  0.13460  0.95700  1.0000 0.1416307133
H   H108      1.0  0.46680  0.92650  0.12720  1.0000 0.1095204351
H   H109      1.0  0.43370  0.97630  0.04990  1.0000 0.1007097586
H   H110      1.0  0.26930  0.82210  0.89820  1.0000 0.0937866938
H   H111      1.0  0.47250  0.26980  0.82900  1.0000 0.1095204351
H   H112      1.0  0.49160  0.26950  0.67600  1.0000 0.1007097586
H   H113      1.0  0.21390  0.28190  0.51770  1.0000 0.1007097586
H   H114      1.0  0.33380  0.31850  0.50180  1.0000 0.1007097586
H   H115      1.0  0.03450  0.09620  0.51380  1.0000 0.1007097586
H   H116      1.0  0.56610  0.92770  0.93110  1.0000 0.0715522112
H   H117      1.0  0.36750  0.33850  0.73340  1.0000 0.1095204351
H   H118      1.0  0.24400  0.30370  0.75050  1.0000 0.1095204351
H   H119      1.0  0.49290  0.85190  0.99650  1.0000 0.1007097586
H   H120      1.0  0.47110  0.85400  0.83540  1.0000 0.1007097586
C   C1        1.0  0.70290  0.61976  0.77140  1.0000 -0.2512594252
C   C2        1.0  0.78700  0.29752  0.80440  1.0000 0.4369087161
C   C3        1.0  0.52090  0.15644  0.48830  1.0000 0.4313567893
C   C4        1.0  0.42960  0.11324  0.45760  1.0000 0.0282256414
C   C5        1.0  0.75960  0.56736  0.02970  1.0000 0.0801422454
C   C6        1.0  0.36400  0.03411  0.50100  1.0000 0.0801422454
C   C7        1.0  0.68060  0.54460  0.89830  1.0000 -0.2760632693
C   C8        1.0  0.72810  0.56551  0.77500  1.0000 0.0715522112
C   C9        1.0  0.70810  0.34316  0.76580  1.0000 0.0282256414
C   C10       1.0  0.64630  0.54476  0.64250  1.0000 0.56141212
C   C11       1.0  0.45240  0.07211  0.53490  1.0000 -0.19006026
C   C12       1.0  0.88450  0.55599  0.79140  1.0000 -0.2685975342
C   C13       1.0  0.73570  0.62188  0.02300  1.0000 -0.2512594252
C   C14       1.0  0.23510  0.07418  0.32130  1.0000 0.0715522112
C   C15       1.0  0.59380  0.41165  0.83090  1.0000 0.0507472853
C   C16       1.0  0.71120  0.54777  0.15160  1.0000 0.5108842195
C   C17       1.0  0.65420  0.35578  0.63220  1.0000 -0.2008241064
C   C18       1.0  0.31550  0.11425  0.34920  1.0000 -0.1835532917
C   C19       1.0  0.67730  0.37240  0.86490  1.0000 -0.1585786103
C   C20       1.0  0.91530  0.55835  0.04360  1.0000 -0.2685975342
C   C21       1.0  0.78520  0.64275  0.90160  1.0000 0.0644370142
C   C22       1.0  0.92260  0.23279  0.73400  1.0000 -0.0419188275
C   C23       1.0  0.75850  0.18758  0.55060  1.0000 -0.0419188275
C   C24       1.0  0.57010  0.39566  0.60530  1.0000 0.0937866938
C   C25       1.0  0.96500  0.57883  0.92170  1.0000 0.0644370142
C   C26       1.0  0.81990  0.19159  0.70150  1.0000 -0.2259213859
C   C27       1.0  0.93950  0.63269  0.91420  1.0000 -0.2512594252
C   C28       1.0  0.79710  0.11976  0.22860  1.0000 -0.2561276017
C   C29       1.0  0.71300  0.79752  0.19560  1.0000 0.4369087161
C   C30       1.0  0.97910  0.65644  0.51170  1.0000 0.4313567893
C   C31       1.0  0.07040  0.61324  0.54240  1.0000 0.0282256414
C   C32       1.0  0.74040  0.06736  0.97030  1.0000 0.0801422454
C   C33       1.0  0.13600  0.53411  0.49900  1.0000 0.0801422454
C   C34       1.0  0.81940  0.04460  0.10170  1.0000 -0.2760632693
C   C35       1.0  0.77190  0.06551  0.22500  1.0000 0.0715522112
C   C36       1.0  0.79190  0.84316  0.23420  1.0000 0.0282256414
C   C37       1.0  0.85370  0.04476  0.35750  1.0000 0.56141212
C   C38       1.0  0.04760  0.57211  0.46510  1.0000 -0.19006026
C   C39       1.0  0.61550  0.05599  0.20860  1.0000 -0.2685975342
C   C40       1.0  0.76430  0.12188  0.97700  1.0000 -0.2512594252
C   C41       1.0  0.26490  0.57418  0.67870  1.0000 0.0715522112
C   C42       1.0  0.90620  0.91165  0.16910  1.0000 0.0507472853
C   C43       1.0  0.78880  0.04777  0.84840  1.0000 0.5108842195
C   C44       1.0  0.84580  0.85578  0.36780  1.0000 -0.2008241064
C   C45       1.0  0.18450  0.61425  0.65080  1.0000 -0.1835532917
C   C46       1.0  0.82270  0.87240  0.13510  1.0000 -0.1585786103
C   C47       1.0  0.58470  0.05835  0.95640  1.0000 -0.2685975342
C   C48       1.0  0.71480  0.14275  0.09840  1.0000 0.0644370142
C   C49       1.0  0.57740  0.73279  0.26600  1.0000 -0.0419188275
C   C50       1.0  0.74150  0.68758  0.44940  1.0000 -0.0419188275
C   C51       1.0  0.92990  0.89566  0.39470  1.0000 0.0937866938
C   C52       1.0  0.53500  0.07883  0.07830  1.0000 0.0715522112
C   C53       1.0  0.68010  0.69159  0.29850  1.0000 -0.2259213859
C   C54       1.0  0.56050  0.13269  0.08580  1.0000 -0.2512594252
C   C55       1.0  0.29710  0.38024  0.22860  1.0000 -0.2512594252
C   C56       1.0  0.21300  0.70248  0.19560  1.0000 0.4369087161
C   C57       1.0  0.47910  0.84356  0.51170  1.0000 0.4313567893
C   C58       1.0  0.57040  0.88676  0.54240  1.0000 0.0282256414
C   C59       1.0  0.24040  0.43264  0.97030  1.0000 0.0801422454
C   C60       1.0  0.63600  0.96589  0.49900  1.0000 0.0801422454
C   C61       1.0  0.31940  0.45540  0.10170  1.0000 -0.2760632693
C   C62       1.0  0.27190  0.43449  0.22500  1.0000 0.0715522112
C   C63       1.0  0.29190  0.65684  0.23420  1.0000 0.0282256414
C   C64       1.0  0.35370  0.45524  0.35750  1.0000 0.56141212
C   C65       1.0  0.54760  0.92789  0.46510  1.0000 -0.19006026
C   C66       1.0  0.11550  0.44401  0.20860  1.0000 -0.2685975342
C   C67       1.0  0.26430  0.37812  0.97700  1.0000 -0.2512594252
C   C68       1.0  0.76490  0.92582  0.67870  1.0000 0.0715522112
C   C69       1.0  0.40620  0.58835  0.16910  1.0000 0.0507472853
C   C70       1.0  0.28880  0.45223  0.84840  1.0000 0.5108842195
C   C71       1.0  0.34580  0.64422  0.36780  1.0000 -0.2008241064
C   C72       1.0  0.68450  0.88575  0.65080  1.0000 -0.1835532917
C   C73       1.0  0.32270  0.62760  0.13510  1.0000 -0.1585786103
C   C74       1.0  0.08470  0.44165  0.95640  1.0000 -0.2685975342
C   C75       1.0  0.21480  0.35725  0.09840  1.0000 0.0644370142
C   C76       1.0  0.07740  0.76721  0.26600  1.0000 -0.0419188275
C   C77       1.0  0.24150  0.81242  0.44940  1.0000 -0.0419188275
C   C78       1.0  0.42990  0.60434  0.39470  1.0000 0.0937866938
C   C79       1.0  0.03500  0.42117  0.07830  1.0000 0.0644370142
C   C80       1.0  0.18010  0.80841  0.29850  1.0000 -0.2259213859
C   C81       1.0  0.06050  0.36731  0.08580  1.0000 -0.2512594252
C   C82       1.0  0.20290  0.88024  0.77140  1.0000 -0.2561276017
C   C83       1.0  0.28700  0.20248  0.80440  1.0000 0.4369087161
C   C84       1.0  0.02090  0.34356  0.48830  1.0000 0.4313567893
C   C85       1.0  0.92960  0.38676  0.45760  1.0000 0.0282256414
C   C86       1.0  0.25960  0.93264  0.02970  1.0000 0.0801422454
C   C87       1.0  0.86400  0.46589  0.50100  1.0000 0.0801422454
C   C88       1.0  0.18060  0.95540  0.89830  1.0000 -0.2760632693
C   C89       1.0  0.22810  0.93449  0.77500  1.0000 0.0715522112
C   C90       1.0  0.20810  0.15684  0.76580  1.0000 0.0282256414
C   C91       1.0  0.14630  0.95524  0.64250  1.0000 0.56141212
C   C92       1.0  0.95240  0.42789  0.53490  1.0000 -0.19006026
C   C93       1.0  0.38450  0.94401  0.79140  1.0000 -0.2685975342
C   C94       1.0  0.23570  0.87812  0.02300  1.0000 -0.2512594252
C   C95       1.0  0.73510  0.42582  0.32130  1.0000 0.0715522112
C   C96       1.0  0.09380  0.08835  0.83090  1.0000 0.0507472853
C   C97       1.0  0.21120  0.95223  0.15160  1.0000 0.5108842195
C   C98       1.0  0.15420  0.14422  0.63220  1.0000 -0.2008241064
C   C99       1.0  0.81550  0.38575  0.34920  1.0000 -0.1835532917
C   C100      1.0  0.17730  0.12760  0.86490  1.0000 -0.1585786103
C   C101      1.0  0.41530  0.94165  0.04360  1.0000 -0.2685975342
C   C102      1.0  0.28520  0.85725  0.90160  1.0000 0.0644370142
C   C103      1.0  0.42260  0.26721  0.73400  1.0000 -0.0419188275
C   C104      1.0  0.25850  0.31242  0.55060  1.0000 -0.0419188275
C   C105      1.0  0.07010  0.10434  0.60530  1.0000 0.0937866938
C   C106      1.0  0.46500  0.92117  0.92170  1.0000 0.0644370142
C   C107      1.0  0.31990  0.30841  0.70150  1.0000 -0.2259213859
C   C108      1.0  0.43950  0.86731  0.91420  1.0000 -0.2512594252
N   N1        1.0  0.25630  0.03392  0.39510  1.0000 -0.2259213859
N   N2        1.0  0.53680  0.42308  0.70060  1.0000 -0.2259213859
N   N3        1.0  0.65580  0.14899  0.52140  1.0000 -0.3273143603
N   N4        1.0  0.85330  0.27892  0.71300  1.0000 -0.3457050978
N   N5        1.0  0.24370  0.53392  0.60490  1.0000 -0.2259213859
N   N6        1.0  0.96320  0.92308  0.29940  1.0000 -0.2259213859
N   N7        1.0  0.84420  0.64899  0.47860  1.0000 -0.3273143603
N   N8        1.0  0.64670  0.77892  0.28700  1.0000 -0.3457050978
N   N9        1.0  0.74370  0.96608  0.60490  1.0000 -0.2259213859
N   N10       1.0  0.46320  0.57692  0.29940  1.0000 -0.2259213859
N   N11       1.0  0.34420  0.85101  0.47860  1.0000 -0.3273143603
N   N12       1.0  0.14670  0.72108  0.28700  1.0000 -0.344886428
N   N13       1.0  0.75630  0.46608  0.39510  1.0000 -0.2259213859
N   N14       1.0  0.03680  0.07692  0.70060  1.0000 -0.2259213859
N   N15       1.0  0.15580  0.35101  0.52140  1.0000 -0.3273143603
N   N16       1.0  0.35330  0.22108  0.71300  1.0000 -0.3457050978
O   O1        1.0  0.62500  0.51398  0.13960  1.0000 -0.5198457299
O   O2        1.0  0.53340  0.52467  0.64250  1.0000 -0.5545711873
O   O3        1.0  0.69380  0.55179  0.53640  1.0000 -0.5675414263
O   O4        1.0  0.75490  0.56673  0.26650  1.0000 -0.5432271866
O   O5        1.0  0.46730  0.19644  0.48130  1.0000 -0.4944541513
O   O6        1.0  0.78630  0.27852  0.91390  1.0000 -0.4793292044
O   O7        1.0  0.87500  0.01398  0.86040  1.0000 -0.5198457299
O   O8        1.0  0.96660  0.02467  0.35750  1.0000 -0.5545711873
O   O9        1.0  0.80620  0.05179  0.46360  1.0000 -0.5675414263
O   O10       1.0  0.74510  0.06673  0.73350  1.0000 -0.5432271866
O   O11       1.0  0.03270  0.69644  0.51870  1.0000 -0.4944541513
O   O12       1.0  0.71370  0.77852  0.08610  1.0000 -0.4793292044
O   O13       1.0  0.37500  0.48602  0.86040  1.0000 -0.5198457299
O   O14       1.0  0.46660  0.47533  0.35750  1.0000 -0.5545711873
O   O15       1.0  0.30620  0.44821  0.46360  1.0000 -0.5675414263
O   O16       1.0  0.24510  0.43327  0.73350  1.0000 -0.5432271866
O   O17       1.0  0.53270  0.80356  0.51870  1.0000 -0.4944541513
O   O18       1.0  0.21370  0.72148  0.08610  1.0000 -0.4793292044
O   O19       1.0  0.12500  0.98602  0.13960  1.0000 -0.5198457299
O   O20       1.0  0.03340  0.97533  0.64250  1.0000 -0.5545711873
O   O21       1.0  0.19380  0.94821  0.53640  1.0000 -0.5675414263
O   O22       1.0  0.25490  0.93327  0.26650  1.0000 -0.5432271866
O   O23       1.0  0.96730  0.30356  0.48130  1.0000 -0.4944541513
O   O24       1.0  0.28630  0.22148  0.91390  1.0000 -0.4793292044
