# DDEC6 charges by PACMAN v1.1 (https://github.com/mtap-research/PACMAN-charge/)
data_2018[Zn][sql]2[FSR]13
_chemical_formula_sum              "Zn4 H72 C116 N24 O16 F24"
_cell_length_a       13.7347
_cell_length_b       20.246
_cell_length_c       14.0911
_cell_angle_alpha    90
_cell_angle_beta     99.453
_cell_angle_gamma    90

_symmetry_space_group_name_H-M    "P 1"
_symmetry_Int_Tables_number       1

loop_
  _symmetry_equiv_pos_as_xyz
  'x, y, z'

loop_
  _atom_site_type_symbol
  _atom_site_label
  _atom_site_symmetry_multiplicity
  _atom_site_fract_x
  _atom_site_fract_y
  _atom_site_fract_z
  _atom_site_occupancy
  _atom_site_charge
Zn  Zn1       1.0  0.55540  0.26563  0.62701  1.0000 0.7397459108
Zn  Zn2       1.0  0.44460  0.76563  0.87299  1.0000 0.7397459108
Zn  Zn3       1.0  0.44460  0.73437  0.37299  1.0000 0.7397459108
Zn  Zn4       1.0  0.55540  0.23437  0.12701  1.0000 0.7397459108
H   H1        1.0  0.44605  0.57659  0.27116  1.0000 0.2802029807
H   H2        1.0  0.37521  0.52694  0.23370  1.0000 0.2656839449
H   H3        1.0  0.26105  0.37873  0.76448  1.0000 0.1193433685
H   H4        1.0  0.27280  0.18614  0.94894  1.0000 0.1193433685
H   H5        1.0  0.64789  0.57638  0.02781  1.0000 0.1353444416
H   H6        1.0  0.60588  0.66442  0.92445  1.0000 0.1099206951
H   H7        1.0  0.38583  0.20250  0.84480  1.0000 0.1099206951
H   H8        1.0  0.14045  0.35922  0.85925  1.0000 0.1193433685
H   H9        1.0  0.45160  0.39622  0.54431  1.0000 0.1193433685
H   H10       1.0  0.37309  0.58522  0.09892  1.0000 0.1306243796
H   H11       1.0  0.45051  0.46374  0.41042  1.0000 0.1306243796
H   H12       1.0  0.64769  0.33879  0.32068  1.0000 0.1456458602
H   H13       1.0  0.33701  0.66922  0.98760  1.0000 0.1099206951
H   H14       1.0  0.64410  0.27643  0.45658  1.0000 0.1099206951
H   H15       1.0  0.78433  0.32670  0.91103  1.0000 0.1193433685
H   H16       1.0  0.89206  0.23242  0.69794  1.0000 0.1193433685
H   H17       1.0  0.04761  0.22687  0.79443  1.0000 0.1193433685
H   H18       1.0  0.93588  0.31591  0.01085  1.0000 0.1193433685
H   H19       1.0  0.55395  0.07659  0.22884  1.0000 0.2802029807
H   H20       1.0  0.62479  0.02694  0.26630  1.0000 0.2656839449
H   H21       1.0  0.73895  0.87873  0.73552  1.0000 0.1193433685
H   H22       1.0  0.72720  0.68614  0.55106  1.0000 0.1193433685
H   H23       1.0  0.35211  0.07638  0.47219  1.0000 0.1353444416
H   H24       1.0  0.39412  0.16442  0.57555  1.0000 0.1099206951
H   H25       1.0  0.61417  0.70250  0.65520  1.0000 0.1099206951
H   H26       1.0  0.85955  0.85922  0.64075  1.0000 0.1193433685
H   H27       1.0  0.54840  0.89622  0.95569  1.0000 0.1193433685
H   H28       1.0  0.62691  0.08522  0.40108  1.0000 0.1306243796
H   H29       1.0  0.54949  0.96374  0.08958  1.0000 0.1306243796
H   H30       1.0  0.35231  0.83879  0.17932  1.0000 0.1456458602
H   H31       1.0  0.66299  0.16922  0.51240  1.0000 0.1099206951
H   H32       1.0  0.35590  0.77643  0.04342  1.0000 0.1099206951
H   H33       1.0  0.21567  0.82670  0.58897  1.0000 0.1193433685
H   H34       1.0  0.10794  0.73242  0.80206  1.0000 0.1193433685
H   H35       1.0  0.95239  0.72687  0.70557  1.0000 0.1193433685
H   H36       1.0  0.06412  0.81591  0.48915  1.0000 0.1193433685
H   H37       1.0  0.55395  0.42341  0.72884  1.0000 0.2802029807
H   H38       1.0  0.62479  0.47306  0.76630  1.0000 0.2656839449
H   H39       1.0  0.73895  0.62127  0.23552  1.0000 0.1193433685
H   H40       1.0  0.72720  0.81386  0.05106  1.0000 0.1193433685
H   H41       1.0  0.35211  0.42362  0.97219  1.0000 0.1353444416
H   H42       1.0  0.39412  0.33558  0.07555  1.0000 0.1099206951
H   H43       1.0  0.61417  0.79750  0.15520  1.0000 0.1099206951
H   H44       1.0  0.85955  0.64078  0.14075  1.0000 0.1193433685
H   H45       1.0  0.54840  0.60378  0.45569  1.0000 0.1193433685
H   H46       1.0  0.62691  0.41478  0.90108  1.0000 0.1306243796
H   H47       1.0  0.54949  0.53626  0.58958  1.0000 0.1306243796
H   H48       1.0  0.35231  0.66121  0.67932  1.0000 0.1456458602
H   H49       1.0  0.66299  0.33078  0.01240  1.0000 0.1099206951
H   H50       1.0  0.35590  0.72357  0.54342  1.0000 0.1099206951
H   H51       1.0  0.21567  0.67330  0.08897  1.0000 0.1193433685
H   H52       1.0  0.10794  0.76758  0.30206  1.0000 0.1193433685
H   H53       1.0  0.95239  0.77313  0.20557  1.0000 0.1193433685
H   H54       1.0  0.06412  0.68409  0.98915  1.0000 0.1193433685
H   H55       1.0  0.44605  0.92341  0.77116  1.0000 0.2802029807
H   H56       1.0  0.37521  0.97306  0.73370  1.0000 0.2656839449
H   H57       1.0  0.26105  0.12127  0.26448  1.0000 0.1193433685
H   H58       1.0  0.27280  0.31386  0.44894  1.0000 0.1193433685
H   H59       1.0  0.64789  0.92362  0.52781  1.0000 0.1353444416
H   H60       1.0  0.60588  0.83558  0.42445  1.0000 0.1099206951
H   H61       1.0  0.38583  0.29750  0.34480  1.0000 0.1099206951
H   H62       1.0  0.14045  0.14078  0.35925  1.0000 0.1193433685
H   H63       1.0  0.45160  0.10378  0.04431  1.0000 0.1193433685
H   H64       1.0  0.37309  0.91478  0.59892  1.0000 0.1306243796
H   H65       1.0  0.45051  0.03626  0.91042  1.0000 0.1306243796
H   H66       1.0  0.64769  0.16121  0.82068  1.0000 0.1456458602
H   H67       1.0  0.33701  0.83078  0.48760  1.0000 0.1099206951
H   H68       1.0  0.64410  0.22357  0.95658  1.0000 0.1099206951
H   H69       1.0  0.78433  0.17330  0.41103  1.0000 0.1193433685
H   H70       1.0  0.89206  0.26758  0.19794  1.0000 0.1193433685
H   H71       1.0  0.04761  0.27313  0.29443  1.0000 0.1193433685
H   H72       1.0  0.93588  0.18409  0.51085  1.0000 0.1193433685
C   C1        1.0  0.51700  0.57317  0.07980  1.0000 0.0803842467
C   C2        1.0  0.26190  0.33869  0.79970  1.0000 -0.0967055854
C   C3        1.0  0.26830  0.22440  0.90950  1.0000 -0.1616924334
C   C4        1.0  0.58470  0.59630  0.02330  1.0000 -0.1616924334
C   C5        1.0  0.55860  0.64820  0.96100  1.0000 0.091620749
C   C6        1.0  0.54790  0.51906  0.14770  1.0000 0.1699158732
C   C7        1.0  0.56090  0.44825  0.26480  1.0000 0.1699158732
C   C8        1.0  0.33440  0.29150  0.79320  1.0000 -0.0159964649
C   C9        1.0  0.55080  0.40958  0.35120  1.0000 0.091620749
C   C10       1.0  0.33660  0.23490  0.84860  1.0000 -0.0967055854
C   C11       1.0  0.40810  0.30320  0.72660  1.0000 0.5590682585
C   C12       1.0  0.19100  0.32740  0.85750  1.0000 -0.1495487706
C   C13       1.0  0.19260  0.27060  0.91280  1.0000 0.0703797002
C   C14       1.0  0.49230  0.38483  0.49840  1.0000 0.091620749
C   C15       1.0  0.42240  0.60100  0.06450  1.0000 -0.1723494272
C   C16       1.0  0.49130  0.42559  0.41860  1.0000 -0.1867792591
C   C17       1.0  0.60750  0.35210  0.36610  1.0000 -0.1495487706
C   C18       1.0  0.40190  0.65150  0.99880  1.0000 0.091620749
C   C19       1.0  0.11140  0.19300  0.02080  1.0000 0.6615037729
C   C20       1.0  0.60440  0.31500  0.44690  1.0000 0.0803842467
C   C21       1.0  0.11040  0.26190  0.97460  1.0000 -0.2782811266
C   C22       1.0  0.82330  0.28030  0.79530  1.0000 -0.0060690824
C   C23       1.0  0.83740  0.30540  0.88780  1.0000 -0.1077605676
C   C24       1.0  0.00770  0.27050  0.91250  1.0000 0.0703797002
C   C25       1.0  0.90150  0.25030  0.76110  1.0000 -0.0967055854
C   C26       1.0  0.99390  0.24630  0.81900  1.0000 -0.1348453205
C   C27       1.0  0.92780  0.29980  0.94670  1.0000 -0.1495487706
C   C28       1.0  0.13080  0.31310  0.05670  1.0000 0.6615037729
C   C29       1.0  0.72180  0.28500  0.73480  1.0000 0.5370914299
C   C30       1.0  0.48300  0.07317  0.42020  1.0000 0.0803842467
C   C31       1.0  0.73810  0.83869  0.70030  1.0000 -0.0967055854
C   C32       1.0  0.73170  0.72440  0.59050  1.0000 -0.1616924334
C   C33       1.0  0.41530  0.09630  0.47670  1.0000 -0.1616924334
C   C34       1.0  0.44140  0.14820  0.53900  1.0000 0.091620749
C   C35       1.0  0.45210  0.01906  0.35230  1.0000 0.1699158732
C   C36       1.0  0.43910  0.94825  0.23520  1.0000 0.1699158732
C   C37       1.0  0.66560  0.79150  0.70680  1.0000 -0.0159964649
C   C38       1.0  0.44920  0.90958  0.14880  1.0000 0.091620749
C   C39       1.0  0.66340  0.73490  0.65140  1.0000 -0.0967055854
C   C40       1.0  0.59190  0.80320  0.77340  1.0000 0.5590682585
C   C41       1.0  0.80900  0.82740  0.64250  1.0000 -0.1495487706
C   C42       1.0  0.80740  0.77060  0.58720  1.0000 0.0703797002
C   C43       1.0  0.50770  0.88483  0.00160  1.0000 0.091620749
C   C44       1.0  0.57760  0.10100  0.43550  1.0000 -0.1723494272
C   C45       1.0  0.50870  0.92559  0.08140  1.0000 -0.1867792591
C   C46       1.0  0.39250  0.85210  0.13390  1.0000 -0.1495487706
C   C47       1.0  0.59810  0.15150  0.50120  1.0000 0.091620749
C   C48       1.0  0.88860  0.69300  0.47920  1.0000 0.6615037729
C   C49       1.0  0.39560  0.81500  0.05310  1.0000 0.0803842467
C   C50       1.0  0.88960  0.76190  0.52540  1.0000 -0.2782811266
C   C51       1.0  0.17670  0.78030  0.70470  1.0000 -0.0060690824
C   C52       1.0  0.16260  0.80540  0.61220  1.0000 -0.1077605676
C   C53       1.0  0.99230  0.77050  0.58750  1.0000 0.0703797002
C   C54       1.0  0.09850  0.75030  0.73890  1.0000 -0.0967055854
C   C55       1.0  0.00610  0.74630  0.68100  1.0000 -0.135700513
C   C56       1.0  0.07220  0.79980  0.55330  1.0000 -0.1495487706
C   C57       1.0  0.86920  0.81310  0.44330  1.0000 0.6615037729
C   C58       1.0  0.27820  0.78500  0.76520  1.0000 0.5370914299
C   C59       1.0  0.48300  0.42683  0.92020  1.0000 0.0803842467
C   C60       1.0  0.73810  0.66131  0.20030  1.0000 -0.0967055854
C   C61       1.0  0.73170  0.77560  0.09050  1.0000 -0.1616924334
C   C62       1.0  0.41530  0.40370  0.97670  1.0000 -0.1616924334
C   C63       1.0  0.44140  0.35180  0.03900  1.0000 0.091620749
C   C64       1.0  0.45210  0.48094  0.85230  1.0000 0.1699158732
C   C65       1.0  0.43910  0.55175  0.73520  1.0000 0.1699158732
C   C66       1.0  0.66560  0.70850  0.20680  1.0000 -0.0159964649
C   C67       1.0  0.44920  0.59042  0.64880  1.0000 0.091620749
C   C68       1.0  0.66340  0.76510  0.15140  1.0000 -0.0967055854
C   C69       1.0  0.59190  0.69680  0.27340  1.0000 0.5590682585
C   C70       1.0  0.80900  0.67260  0.14250  1.0000 -0.1495487706
C   C71       1.0  0.80740  0.72940  0.08720  1.0000 0.0703797002
C   C72       1.0  0.50770  0.61517  0.50160  1.0000 0.091620749
C   C73       1.0  0.57760  0.39900  0.93550  1.0000 -0.1723494272
C   C74       1.0  0.50870  0.57441  0.58140  1.0000 -0.1867792591
C   C75       1.0  0.39250  0.64790  0.63390  1.0000 -0.1495487706
C   C76       1.0  0.59810  0.34850  0.00120  1.0000 0.091620749
C   C77       1.0  0.88860  0.80700  0.97920  1.0000 0.6615037729
C   C78       1.0  0.39560  0.68500  0.55310  1.0000 0.0803842467
C   C79       1.0  0.88960  0.73810  0.02540  1.0000 -0.2782811266
C   C80       1.0  0.17670  0.71970  0.20470  1.0000 -0.0060690824
C   C81       1.0  0.16260  0.69460  0.11220  1.0000 -0.1077605676
C   C82       1.0  0.99230  0.72950  0.08750  1.0000 0.0703797002
C   C83       1.0  0.09850  0.74970  0.23890  1.0000 -0.0967055854
C   C84       1.0  0.00610  0.75370  0.18100  1.0000 -0.135700513
C   C85       1.0  0.07220  0.70020  0.05330  1.0000 -0.1495487706
C   C86       1.0  0.86920  0.68690  0.94330  1.0000 0.6615037729
C   C87       1.0  0.27820  0.71500  0.26520  1.0000 0.5370914299
C   C88       1.0  0.51700  0.92683  0.57980  1.0000 0.0803842467
C   C89       1.0  0.26190  0.16131  0.29970  1.0000 -0.0967055854
C   C90       1.0  0.26830  0.27560  0.40950  1.0000 -0.1616924334
C   C91       1.0  0.58470  0.90370  0.52330  1.0000 -0.1616924334
C   C92       1.0  0.55860  0.85180  0.46100  1.0000 0.091620749
C   C93       1.0  0.54790  0.98094  0.64770  1.0000 0.1699158732
C   C94       1.0  0.56090  0.05175  0.76480  1.0000 0.1699158732
C   C95       1.0  0.33440  0.20850  0.29320  1.0000 -0.0159964649
C   C96       1.0  0.55080  0.09042  0.85120  1.0000 0.091620749
C   C97       1.0  0.33660  0.26510  0.34860  1.0000 -0.0967055854
C   C98       1.0  0.40810  0.19680  0.22660  1.0000 0.5590682585
C   C99       1.0  0.19100  0.17260  0.35750  1.0000 -0.1495487706
C   C100      1.0  0.19260  0.22940  0.41280  1.0000 0.0703797002
C   C101      1.0  0.49230  0.11517  0.99840  1.0000 0.091620749
C   C102      1.0  0.42240  0.89900  0.56450  1.0000 -0.1723494272
C   C103      1.0  0.49130  0.07441  0.91860  1.0000 -0.1867792591
C   C104      1.0  0.60750  0.14790  0.86610  1.0000 -0.1495487706
C   C105      1.0  0.40190  0.84850  0.49880  1.0000 0.091620749
C   C106      1.0  0.11140  0.30700  0.52080  1.0000 0.6615037729
C   C107      1.0  0.60440  0.18500  0.94690  1.0000 0.0803842467
C   C108      1.0  0.11040  0.23810  0.47460  1.0000 -0.2782811266
C   C109      1.0  0.82330  0.21970  0.29530  1.0000 -0.0060690824
C   C110      1.0  0.83740  0.19460  0.38780  1.0000 -0.1077605676
C   C111      1.0  0.00770  0.22950  0.41250  1.0000 0.0703797002
C   C112      1.0  0.90150  0.24970  0.26110  1.0000 -0.0967055854
C   C113      1.0  0.99390  0.25370  0.31900  1.0000 -0.135700513
C   C114      1.0  0.92780  0.20020  0.44670  1.0000 -0.1495487706
C   C115      1.0  0.13080  0.18690  0.55670  1.0000 0.6615037729
C   C116      1.0  0.72180  0.21500  0.23480  1.0000 0.5370914299
N   N1        1.0  0.54780  0.33051  0.51350  1.0000 -0.2320712486
N   N2        1.0  0.46910  0.67693  0.94970  1.0000 -0.2320712486
N   N3        1.0  0.50740  0.50152  0.22660  1.0000 0.0636838261
N   N4        1.0  0.62950  0.43420  0.21270  1.0000 -0.2320712486
N   N5        1.0  0.62110  0.47952  0.13980  1.0000 -0.2435369421
N   N6        1.0  0.43350  0.53387  0.26890  1.0000 -0.4756670933
N   N7        1.0  0.45220  0.83051  0.98650  1.0000 -0.2320712486
N   N8        1.0  0.53090  0.17693  0.55030  1.0000 -0.2320712486
N   N9        1.0  0.49260  0.00152  0.27340  1.0000 0.0636838261
N   N10       1.0  0.37050  0.93420  0.28730  1.0000 -0.2320712486
N   N11       1.0  0.37890  0.97952  0.36020  1.0000 -0.2435369421
N   N12       1.0  0.56650  0.03387  0.23110  1.0000 -0.4747796993
N   N13       1.0  0.45220  0.66949  0.48650  1.0000 -0.2320712486
N   N14       1.0  0.53090  0.32307  0.05030  1.0000 -0.2320712486
N   N15       1.0  0.49260  0.49848  0.77340  1.0000 0.0636838261
N   N16       1.0  0.37050  0.56580  0.78730  1.0000 -0.2320712486
N   N17       1.0  0.37890  0.52048  0.86020  1.0000 -0.2435369421
N   N18       1.0  0.56650  0.46613  0.73110  1.0000 -0.4756670933
N   N19       1.0  0.54780  0.16949  0.01350  1.0000 -0.2320712486
N   N20       1.0  0.46910  0.82307  0.44970  1.0000 -0.2320712486
N   N21       1.0  0.50740  0.99848  0.72660  1.0000 0.0636838261
N   N22       1.0  0.62950  0.06580  0.71270  1.0000 -0.2320712486
N   N23       1.0  0.62110  0.02048  0.63980  1.0000 -0.2435369421
N   N24       1.0  0.43350  0.96613  0.76890  1.0000 -0.4756670933
O   O1        1.0  0.45240  0.25129  0.70390  1.0000 -0.5445788543
O   O2        1.0  0.42160  0.35944  0.69819  1.0000 -0.552246068
O   O3        1.0  0.70540  0.24817  0.66380  1.0000 -0.5149987381
O   O4        1.0  0.65790  0.32300  0.75720  1.0000 -0.552246068
O   O5        1.0  0.54760  0.75129  0.79610  1.0000 -0.5445788543
O   O6        1.0  0.57840  0.85944  0.80181  1.0000 -0.552246068
O   O7        1.0  0.29460  0.74817  0.83620  1.0000 -0.5149987381
O   O8        1.0  0.34210  0.82300  0.74280  1.0000 -0.552246068
O   O9        1.0  0.54760  0.74871  0.29610  1.0000 -0.5445788543
O   O10       1.0  0.57840  0.64056  0.30181  1.0000 -0.552246068
O   O11       1.0  0.29460  0.75183  0.33620  1.0000 -0.5149987381
O   O12       1.0  0.34210  0.67700  0.24280  1.0000 -0.552246068
O   O13       1.0  0.45240  0.24871  0.20390  1.0000 -0.5445788543
O   O14       1.0  0.42160  0.14056  0.19819  1.0000 -0.552246068
O   O15       1.0  0.70540  0.25183  0.16380  1.0000 -0.5149987381
O   O16       1.0  0.65790  0.17700  0.25720  1.0000 -0.552246068
F   F1        1.0  0.10564  0.14533  0.95409  1.0000 -0.1840327572
F   F2        1.0  0.07824  0.30302  0.12755  1.0000 -0.2052319463
F   F3        1.0  0.19274  0.18179  0.08488  1.0000 -0.1976050403
F   F4        1.0  0.11080  0.37424  0.02492  1.0000 -0.1867792591
F   F5        1.0  0.03430  0.18368  0.06697  1.0000 -0.1976050403
F   F6        1.0  0.22570  0.31228  0.09779  1.0000 -0.1976050403
F   F7        1.0  0.89436  0.64533  0.54591  1.0000 -0.1840327572
F   F8        1.0  0.92176  0.80302  0.37245  1.0000 -0.2052319463
F   F9        1.0  0.80726  0.68179  0.41512  1.0000 -0.1976050403
F   F10       1.0  0.88920  0.87424  0.47508  1.0000 -0.1867792591
F   F11       1.0  0.96570  0.68368  0.43303  1.0000 -0.1976050403
F   F12       1.0  0.77430  0.81228  0.40221  1.0000 -0.1976050403
F   F13       1.0  0.89436  0.85467  0.04591  1.0000 -0.1840327572
F   F14       1.0  0.92176  0.69698  0.87245  1.0000 -0.2052319463
F   F15       1.0  0.80726  0.81821  0.91512  1.0000 -0.1976050403
F   F16       1.0  0.88920  0.62576  0.97508  1.0000 -0.1867792591
F   F17       1.0  0.96570  0.81632  0.93303  1.0000 -0.1976050403
F   F18       1.0  0.77430  0.68772  0.90221  1.0000 -0.1976050403
F   F19       1.0  0.10564  0.35467  0.45409  1.0000 -0.1840327572
F   F20       1.0  0.07824  0.19698  0.62755  1.0000 -0.2052319463
F   F21       1.0  0.19274  0.31821  0.58488  1.0000 -0.1976050403
F   F22       1.0  0.11080  0.12576  0.52492  1.0000 -0.1867792591
F   F23       1.0  0.03430  0.31632  0.56697  1.0000 -0.1976050403
F   F24       1.0  0.22570  0.18772  0.59779  1.0000 -0.1976050403
