# DDEC6 charges by PACMAN v1.1 (https://github.com/mtap-research/PACMAN-charge/)
data_2018[Zn][hxl]2[FSR]2
_chemical_formula_sum              "Zn3 H68 C78 N8 O14"
_cell_length_a       13.1236
_cell_length_b       13.7809
_cell_length_c       14.0699
_cell_angle_alpha    96.9641
_cell_angle_beta     108.921
_cell_angle_gamma    112.196

_symmetry_space_group_name_H-M    "P 1"
_symmetry_Int_Tables_number       1

loop_
  _symmetry_equiv_pos_as_xyz
  'x, y, z'

loop_
  _atom_site_type_symbol
  _atom_site_label
  _atom_site_symmetry_multiplicity
  _atom_site_fract_x
  _atom_site_fract_y
  _atom_site_fract_z
  _atom_site_occupancy
  _atom_site_charge
Zn  Zn1       1.0  0.69013  0.61510  0.37662  1.0000 0.8881913301
Zn  Zn2       1.0  0.30987  0.38490  0.62338  1.0000 0.8881913301
Zn  Zn3       1.0  0.50000  0.50000  0.50000  1.0000 1.0277661857
H   H1        1.0  0.33930  0.58730  0.17180  1.0000 0.1315443685
H   H2        1.0  0.32110  0.59990  0.27880  1.0000 0.1380351995
H   H3        1.0  0.24400  0.40050  0.12900  1.0000 0.1097303672
H   H4        1.0  0.25190  0.40120  0.24510  1.0000 0.1097303672
H   H5        1.0  0.15150  0.39410  0.35270  1.0000 0.1315443685
H   H6        1.0  0.03610  0.41130  0.44470  1.0000 0.1097303672
H   H7        1.0  0.88640  0.46580  0.37810  1.0000 0.1097303672
H   H8        1.0  0.84500  0.50390  0.21610  1.0000 0.1315443685
H   H9        1.0  0.15970  0.46570  0.98120  1.0000 0.1380351995
H   H10       1.0  0.72330  0.31380  0.39240  1.0000 0.1315443685
H   H11       1.0  0.59040  0.25770  0.38880  1.0000 0.1380351995
H   H12       1.0  0.80950  0.34160  0.57070  1.0000 0.1011034128
H   H13       1.0  0.68340  0.31140  0.58010  1.0000 0.1097303672
H   H14       1.0  0.92040  0.26600  0.50580  1.0000 0.1315443685
H   H15       1.0  0.00540  0.15860  0.45500  1.0000 0.120930874
H   H16       1.0  0.90480  0.96810  0.41090  1.0000 0.1011034128
H   H17       1.0  0.71990  0.88110  0.42170  1.0000 0.120930874
H   H18       1.0  0.49740  0.17140  0.54860  1.0000 0.1499146697
H   H19       1.0  0.86550  0.84750  0.69810  1.0000 0.1315443685
H   H20       1.0  0.78900  0.90130  0.63170  1.0000 0.1380351995
H   H21       1.0  0.64260  0.83150  0.70040  1.0000 0.1097303672
H   H22       1.0  0.71650  0.77460  0.76520  1.0000 0.1097303672
H   H23       1.0  0.61980  0.99220  0.70290  1.0000 0.120930874
H   H24       1.0  0.61600  0.15910  0.75110  1.0000 0.1097303672
H   H25       1.0  0.76170  0.29210  0.90570  1.0000 0.1097303672
H   H26       1.0  0.91640  0.26160  0.01650  1.0000 0.1097303672
H   H27       1.0  0.92360  0.82140  0.88710  1.0000 0.1380351995
H   H28       1.0  0.73570  0.76880  0.25630  1.0000 0.1011034128
H   H29       1.0  0.02440  0.81790  0.19880  1.0000 0.1315443685
H   H30       1.0  0.02830  0.78820  0.30600  1.0000 0.1315443685
H   H31       1.0  0.94560  0.69570  0.19680  1.0000 0.1315443685
H   H32       1.0  0.92700  0.90750  0.14490  1.0000 0.1315443685
H   H33       1.0  0.78440  0.84340  0.10830  1.0000 0.1380351995
H   H34       1.0  0.86400  0.93900  0.21560  1.0000 0.1315443685
H   H35       1.0  0.66070  0.41270  0.82820  1.0000 0.1315443685
H   H36       1.0  0.67890  0.40010  0.72120  1.0000 0.1380351995
H   H37       1.0  0.75600  0.59950  0.87100  1.0000 0.1097303672
H   H38       1.0  0.74810  0.59880  0.75490  1.0000 0.1097303672
H   H39       1.0  0.84850  0.60590  0.64730  1.0000 0.1315443685
H   H40       1.0  0.96390  0.58870  0.55530  1.0000 0.1097303672
H   H41       1.0  0.11360  0.53420  0.62190  1.0000 0.1097303672
H   H42       1.0  0.15500  0.49610  0.78390  1.0000 0.1315443685
H   H43       1.0  0.84030  0.53430  0.01880  1.0000 0.1380351995
H   H44       1.0  0.27670  0.68620  0.60760  1.0000 0.1315443685
H   H45       1.0  0.40960  0.74230  0.61120  1.0000 0.1380351995
H   H46       1.0  0.19050  0.65840  0.42930  1.0000 0.1011034128
H   H47       1.0  0.31660  0.68860  0.41990  1.0000 0.1097303672
H   H48       1.0  0.07960  0.73400  0.49420  1.0000 0.1315443685
H   H49       1.0  0.99460  0.84140  0.54500  1.0000 0.120930874
H   H50       1.0  0.09520  0.03190  0.58910  1.0000 0.1011034128
H   H51       1.0  0.28010  0.11890  0.57830  1.0000 0.120930874
H   H52       1.0  0.50260  0.82860  0.45140  1.0000 0.1499146697
H   H53       1.0  0.13450  0.15250  0.30190  1.0000 0.1315443685
H   H54       1.0  0.21100  0.09870  0.36830  1.0000 0.1380351995
H   H55       1.0  0.35740  0.16850  0.29960  1.0000 0.1097303672
H   H56       1.0  0.28350  0.22540  0.23480  1.0000 0.1097303672
H   H57       1.0  0.38020  0.00780  0.29710  1.0000 0.120930874
H   H58       1.0  0.38400  0.84090  0.24890  1.0000 0.1097303672
H   H59       1.0  0.23830  0.70790  0.09430  1.0000 0.1097303672
H   H60       1.0  0.08360  0.73840  0.98350  1.0000 0.1097303672
H   H61       1.0  0.07640  0.17860  0.11290  1.0000 0.1380351995
H   H62       1.0  0.26430  0.23120  0.74370  1.0000 0.1011034128
H   H63       1.0  0.97560  0.18210  0.80120  1.0000 0.1315443685
H   H64       1.0  0.97170  0.21180  0.69400  1.0000 0.1315443685
H   H65       1.0  0.05440  0.30430  0.80320  1.0000 0.1315443685
H   H66       1.0  0.07300  0.09250  0.85510  1.0000 0.1315443685
H   H67       1.0  0.21560  0.15660  0.89170  1.0000 0.1380351995
H   H68       1.0  0.13600  0.06100  0.78440  1.0000 0.1315443685
C   C1        1.0  0.46130  0.56450  0.28879  1.0000 0.6487904664
C   C2        1.0  0.33900  0.55580  0.23140  1.0000 -0.3522402394
C   C3        1.0  0.23970  0.43950  0.19030  1.0000 -0.0570986924
C   C4        1.0  0.06630  0.44042  0.22933  1.0000 0.120930874
C   C5        1.0  0.09040  0.41650  0.32520  1.0000 -0.1814194817
C   C6        1.0  0.02150  0.42680  0.37890  1.0000 -0.0974535618
C   C7        1.0  0.93160  0.45920  0.33900  1.0000 -0.1204533551
C   C8        1.0  0.90670  0.48200  0.24300  1.0000 -0.129789713
C   C9        1.0  0.97440  0.47212  0.18678  1.0000 -0.0244184458
C   C10       1.0  0.97490  0.49039  0.08794  1.0000 -0.0244184458
C   C11       1.0  0.06880  0.46983  0.07530  1.0000 0.1097303672
C   C12       1.0  0.09630  0.47916  0.98835  1.0000 -0.2481509868
C   C13       1.0  0.66920  0.42544  0.44235  1.0000 0.6487904664
C   C14       1.0  0.67280  0.31610  0.43100  1.0000 -0.3522402394
C   C15       1.0  0.72190  0.29367  0.53510  1.0000 -0.0570986924
C   C16       1.0  0.76860  0.13640  0.49440  1.0000 0.1315443685
C   C17       1.0  0.88000  0.18870  0.48900  1.0000 -0.1814194817
C   C18       1.0  0.92930  0.12470  0.45860  1.0000 -0.0894411962
C   C19       1.0  0.86940  0.01030  0.43270  1.0000 -0.129789713
C   C20       1.0  0.75960  0.95850  0.43860  1.0000 -0.129789713
C   C21       1.0  0.70800  0.02110  0.46970  1.0000 -0.0244184458
C   C22       1.0  0.59670  0.99536  0.48220  1.0000 -0.0244184458
C   C23       1.0  0.59340  0.09633  0.51214  1.0000 0.1097303672
C   C24       1.0  0.49830  0.10322  0.52961  1.0000 -0.2416571799
C   C25       1.0  0.71480  0.73450  0.57011  1.0000 0.6322799798
C   C26       1.0  0.78290  0.83815  0.66032  1.0000 -0.3676280353
C   C27       1.0  0.72440  0.83846  0.73735  1.0000 -0.0545013856
C   C28       1.0  0.77110  0.02820  0.83293  1.0000 0.120930874
C   C29       1.0  0.67930  0.04600  0.76610  1.0000 -0.1906612638
C   C30       1.0  0.67790  0.14510  0.79520  1.0000 -0.0894411962
C   C31       1.0  0.76520  0.22500  0.88780  1.0000 -0.1204533551
C   C32       1.0  0.85680  0.20720  0.95370  1.0000 -0.129789713
C   C33       1.0  0.86000  0.10820  0.92629  1.0000 -0.0268331051
C   C34       1.0  0.94130  0.06465  0.97554  1.0000 -0.0244184458
C   C35       1.0  0.89730  0.95862  0.90962  1.0000 0.1097303672
C   C36       1.0  0.95400  0.89223  0.93193  1.0000 -0.2579145405
C   C37       1.0  0.79970  0.74960  0.26450  1.0000 0.2766619798
C   C38       1.0  0.97710  0.77300  0.23230  1.0000 -0.3360121522
C   C39       1.0  0.86190  0.87890  0.16880  1.0000 -0.3676280353
C   C40       1.0  0.53870  0.43550  0.71121  1.0000 0.6487904664
C   C41       1.0  0.66100  0.44420  0.76860  1.0000 -0.3522402394
C   C42       1.0  0.76030  0.56050  0.80970  1.0000 -0.0570986924
C   C43       1.0  0.93370  0.55958  0.77067  1.0000 0.120930874
C   C44       1.0  0.90960  0.58350  0.67480  1.0000 -0.1814194817
C   C45       1.0  0.97850  0.57320  0.62110  1.0000 -0.0974535618
C   C46       1.0  0.06840  0.54080  0.66100  1.0000 -0.1204533551
C   C47       1.0  0.09330  0.51800  0.75700  1.0000 -0.129789713
C   C48       1.0  0.02560  0.52788  0.81322  1.0000 -0.0244184458
C   C49       1.0  0.02510  0.50961  0.91206  1.0000 -0.0244184458
C   C50       1.0  0.93120  0.53017  0.92470  1.0000 0.1097303672
C   C51       1.0  0.90370  0.52084  0.01165  1.0000 -0.2481509868
C   C52       1.0  0.33080  0.57456  0.55765  1.0000 0.6487904664
C   C53       1.0  0.32720  0.68390  0.56900  1.0000 -0.3522402394
C   C54       1.0  0.27810  0.70633  0.46490  1.0000 -0.0570986924
C   C55       1.0  0.23140  0.86360  0.50560  1.0000 0.1315443685
C   C56       1.0  0.12000  0.81130  0.51100  1.0000 -0.1814194817
C   C57       1.0  0.07070  0.87530  0.54140  1.0000 -0.0894411962
C   C58       1.0  0.13060  0.98970  0.56730  1.0000 -0.129789713
C   C59       1.0  0.24040  0.04150  0.56140  1.0000 -0.129789713
C   C60       1.0  0.29200  0.97890  0.53030  1.0000 -0.0244184458
C   C61       1.0  0.40330  0.00464  0.51780  1.0000 -0.0244184458
C   C62       1.0  0.40660  0.90367  0.48786  1.0000 0.1097303672
C   C63       1.0  0.50170  0.89678  0.47039  1.0000 -0.2416571799
C   C64       1.0  0.28520  0.26550  0.42989  1.0000 0.6322799798
C   C65       1.0  0.21710  0.16185  0.33968  1.0000 -0.3676280353
C   C66       1.0  0.27560  0.16154  0.26265  1.0000 -0.0545013856
C   C67       1.0  0.22890  0.97180  0.16707  1.0000 0.120930874
C   C68       1.0  0.32070  0.95400  0.23390  1.0000 -0.1906612638
C   C69       1.0  0.32210  0.85490  0.20480  1.0000 -0.0894411962
C   C70       1.0  0.23480  0.77500  0.11220  1.0000 -0.1204533551
C   C71       1.0  0.14320  0.79280  0.04630  1.0000 -0.129789713
C   C72       1.0  0.14000  0.89180  0.07371  1.0000 -0.0268331051
C   C73       1.0  0.05870  0.93535  0.02446  1.0000 -0.0244184458
C   C74       1.0  0.10270  0.04138  0.09038  1.0000 0.1097303672
C   C75       1.0  0.04600  0.10777  0.06807  1.0000 -0.2579145405
C   C76       1.0  0.20030  0.25040  0.73550  1.0000 0.2766619798
C   C77       1.0  0.02290  0.22700  0.76770  1.0000 -0.3360121522
C   C78       1.0  0.13810  0.12110  0.83120  1.0000 -0.3676280353
N   N1        1.0  0.12154  0.43666  0.16027  1.0000 -0.0797033917
N   N2        1.0  0.70060  0.18093  0.52217  1.0000 -0.0697414476
N   N3        1.0  0.79335  0.93743  0.82383  1.0000 -0.0697414476
N   N4        1.0  0.87770  0.79870  0.22530  1.0000 0.029816131
N   N5        1.0  0.87846  0.56334  0.83973  1.0000 -0.0797033917
N   N6        1.0  0.29940  0.81907  0.47783  1.0000 -0.0697414476
N   N7        1.0  0.20665  0.06257  0.17617  1.0000 -0.0697414476
N   N8        1.0  0.12230  0.20130  0.77470  1.0000 0.029816131
O   O1        1.0  0.55051  0.63275  0.27859  1.0000 -0.5709252778
O   O2        1.0  0.47310  0.50313  0.34660  1.0000 -0.5892423216
O   O3        1.0  0.70277  0.48043  0.38258  1.0000 -0.5606575135
O   O4        1.0  0.63464  0.45491  0.50808  1.0000 -0.575563145
O   O5        1.0  0.76526  0.72695  0.50906  1.0000 -0.575563145
O   O6        1.0  0.61525  0.66741  0.56091  1.0000 -0.5606575135
O   O7        1.0  0.80502  0.68010  0.31120  1.0000 -0.4467386577
O   O8        1.0  0.44949  0.36725  0.72141  1.0000 -0.5709252778
O   O9        1.0  0.52690  0.49687  0.65340  1.0000 -0.5892423216
O   O10       1.0  0.29723  0.51957  0.61742  1.0000 -0.5606575135
O   O11       1.0  0.36536  0.54509  0.49192  1.0000 -0.575563145
O   O12       1.0  0.23474  0.27305  0.49094  1.0000 -0.575563145
O   O13       1.0  0.38475  0.33259  0.43909  1.0000 -0.5606575135
O   O14       1.0  0.19498  0.31990  0.68880  1.0000 -0.4467386577
