# DDEC6 charges by PACMAN v1.1 (https://github.com/mtap-research/PACMAN-charge/)
data_2018[Nd][nan]3[FSR]2
_chemical_formula_sum              "Nd4 H52 C30 O32"
_cell_length_a       8.70921
_cell_length_b       8.70921
_cell_length_c       19.9789
_cell_angle_alpha    83.2321
_cell_angle_beta     96.7679
_cell_angle_gamma    80.3013

_symmetry_space_group_name_H-M    "P 1"
_symmetry_Int_Tables_number       1

loop_
  _symmetry_equiv_pos_as_xyz
  'x, y, z'

loop_
  _atom_site_type_symbol
  _atom_site_label
  _atom_site_symmetry_multiplicity
  _atom_site_fract_x
  _atom_site_fract_y
  _atom_site_fract_z
  _atom_site_occupancy
  _atom_site_charge
Nd  Nd1       1.0  0.25275  0.50523  0.49340  1.0000 2.0877568942
Nd  Nd2       1.0  0.50523  0.25275  0.00660  1.0000 2.0877568942
Nd  Nd3       1.0  0.74725  0.49477  0.50660  1.0000 2.0877568942
Nd  Nd4       1.0  0.49477  0.74725  0.99340  1.0000 2.0877568942
H   H1        1.0  0.17800  0.97580  0.31800  1.0000 0.1413442862
H   H2        1.0  0.03570  0.89370  0.29750  1.0000 0.1306541335
H   H3        1.0  0.93280  0.13980  0.32230  1.0000 0.1011474341
H   H4        1.0  0.89930  0.01490  0.37940  1.0000 0.1011474341
H   H5        1.0  0.15550  0.17470  0.39610  1.0000 0.1413442862
H   H6        1.0  0.11170  0.05790  0.45330  1.0000 0.1413442862
H   H7        1.0  0.50840  0.59400  0.30270  1.0000 0.1306541335
H   H8        1.0  0.61190  0.42670  0.32430  1.0000 0.1413442862
H   H9        1.0  0.31550  0.45710  0.24630  1.0000 0.1011474341
H   H10       1.0  0.35300  0.13900  0.51300  1.0000 0.3482558128
H   H11       1.0  0.46600  0.20400  0.48400  1.0000 0.3619423133
H   H12       1.0  0.29000  0.29400  0.63000  1.0000 0.3356493634
H   H13       1.0  0.13300  0.32300  0.60900  1.0000 0.365226492
H   H14       1.0  0.97580  0.17800  0.18200  1.0000 0.1413442862
H   H15       1.0  0.89370  0.03570  0.20250  1.0000 0.1306541335
H   H16       1.0  0.13980  0.93280  0.17770  1.0000 0.1011474341
H   H17       1.0  0.01490  0.89930  0.12060  1.0000 0.1011474341
H   H18       1.0  0.17470  0.15550  0.10390  1.0000 0.1413442862
H   H19       1.0  0.05790  0.11170  0.04670  1.0000 0.1413442862
H   H20       1.0  0.59400  0.50840  0.19730  1.0000 0.1306541335
H   H21       1.0  0.42670  0.61190  0.17570  1.0000 0.1413442862
H   H22       1.0  0.45710  0.31550  0.25370  1.0000 0.1011474341
H   H23       1.0  0.13900  0.35300  0.98700  1.0000 0.3482558128
H   H24       1.0  0.20400  0.46600  0.01600  1.0000 0.3619423133
H   H25       1.0  0.29400  0.29000  0.87000  1.0000 0.3356493634
H   H26       1.0  0.32300  0.13300  0.89100  1.0000 0.365226492
H   H27       1.0  0.82200  0.02420  0.68200  1.0000 0.1413442862
H   H28       1.0  0.96430  0.10630  0.70250  1.0000 0.1306541335
H   H29       1.0  0.06720  0.86020  0.67770  1.0000 0.1011474341
H   H30       1.0  0.10070  0.98510  0.62060  1.0000 0.1011474341
H   H31       1.0  0.84450  0.82530  0.60390  1.0000 0.1413442862
H   H32       1.0  0.88830  0.94210  0.54670  1.0000 0.1413442862
H   H33       1.0  0.49160  0.40600  0.69730  1.0000 0.1306541335
H   H34       1.0  0.38810  0.57330  0.67570  1.0000 0.1413442862
H   H35       1.0  0.68450  0.54290  0.75370  1.0000 0.1011474341
H   H36       1.0  0.64700  0.86100  0.48700  1.0000 0.3482558128
H   H37       1.0  0.53400  0.79600  0.51600  1.0000 0.3619423133
H   H38       1.0  0.71000  0.70600  0.37000  1.0000 0.3356493634
H   H39       1.0  0.86700  0.67700  0.39100  1.0000 0.365226492
H   H40       1.0  0.02420  0.82200  0.81800  1.0000 0.1413442862
H   H41       1.0  0.10630  0.96430  0.79750  1.0000 0.1306541335
H   H42       1.0  0.86020  0.06720  0.82230  1.0000 0.1011474341
H   H43       1.0  0.98510  0.10070  0.87940  1.0000 0.1011474341
H   H44       1.0  0.82530  0.84450  0.89610  1.0000 0.1413442862
H   H45       1.0  0.94210  0.88830  0.95330  1.0000 0.1413442862
H   H46       1.0  0.40600  0.49160  0.80270  1.0000 0.1306541335
H   H47       1.0  0.57330  0.38810  0.82430  1.0000 0.1413442862
H   H48       1.0  0.54290  0.68450  0.74630  1.0000 0.1011474341
H   H49       1.0  0.86100  0.64700  0.01300  1.0000 0.3482558128
H   H50       1.0  0.79600  0.53400  0.98400  1.0000 0.3619423133
H   H51       1.0  0.70600  0.71000  0.13000  1.0000 0.3356493634
H   H52       1.0  0.67700  0.86700  0.10900  1.0000 0.365226492
C   C1        1.0  0.15800  0.79720  0.39110  1.0000 0.6385081631
C   C2        1.0  0.09230  0.93210  0.33490  1.0000 -0.3282192055
C   C3        1.0  0.98180  0.06020  0.36040  1.0000 -0.0868960213
C   C4        1.0  0.06820  0.13720  0.41440  1.0000 -0.342122503
C   C5        1.0  0.96850  0.27170  0.43850  1.0000 0.6770740819
C   C6        1.0  0.42790  0.46410  0.37600  1.0000 0.6770740819
C   C7        1.0  0.50420  0.48340  0.31360  1.0000 -0.342122503
C   C8        1.0  0.79720  0.15800  0.10890  1.0000 0.6385081631
C   C9        1.0  0.93210  0.09230  0.16510  1.0000 -0.3282192055
C   C10       1.0  0.06020  0.98180  0.13960  1.0000 -0.0868960213
C   C11       1.0  0.13720  0.06820  0.08560  1.0000 -0.342122503
C   C12       1.0  0.27170  0.96850  0.06150  1.0000 0.6770740819
C   C13       1.0  0.46410  0.42790  0.12400  1.0000 0.6770740819
C   C14       1.0  0.48340  0.50420  0.18640  1.0000 -0.342122503
C   C15       1.0  0.84200  0.20280  0.60890  1.0000 0.6385081631
C   C16       1.0  0.90770  0.06790  0.66510  1.0000 -0.3282192055
C   C17       1.0  0.01820  0.93980  0.63960  1.0000 -0.0868960213
C   C18       1.0  0.93180  0.86280  0.58560  1.0000 -0.342122503
C   C19       1.0  0.03150  0.72830  0.56150  1.0000 0.6770740819
C   C20       1.0  0.57210  0.53590  0.62400  1.0000 0.6770740819
C   C21       1.0  0.49580  0.51660  0.68640  1.0000 -0.342122503
C   C22       1.0  0.20280  0.84200  0.89110  1.0000 0.6385081631
C   C23       1.0  0.06790  0.90770  0.83490  1.0000 -0.3282192055
C   C24       1.0  0.93980  0.01820  0.86040  1.0000 -0.0868960213
C   C25       1.0  0.86280  0.93180  0.91440  1.0000 -0.342122503
C   C26       1.0  0.72830  0.03150  0.93850  1.0000 0.6770740819
C   C27       1.0  0.53590  0.57210  0.87600  1.0000 0.6770740819
C   C28       1.0  0.51660  0.49580  0.81360  1.0000 -0.342122503
C   C29       1.0  0.42910  0.42910  0.25000  1.0000 -0.0649901781
C   C30       1.0  0.57090  0.57090  0.75000  1.0000 -0.0665909726
O   O1        1.0  0.30030  0.76830  0.41670  1.0000 -0.6218787882
O   O2        1.0  0.06480  0.71180  0.41190  1.0000 -0.6388729739
O   O3        1.0  0.02960  0.38140  0.46080  1.0000 -0.7293760854
O   O4        1.0  0.82260  0.27260  0.43970  1.0000 -0.6388729739
O   O5        1.0  0.50710  0.47190  0.43380  1.0000 -0.766829558
O   O6        1.0  0.28490  0.45090  0.37290  1.0000 -0.6218787882
O   O7        1.0  0.38200  0.22240  0.50220  1.0000 -0.7422741431
O   O8        1.0  0.21810  0.35790  0.60540  1.0000 -0.7293760854
O   O9        1.0  0.76830  0.30030  0.08330  1.0000 -0.6218787882
O   O10       1.0  0.71180  0.06480  0.08810  1.0000 -0.6388729739
O   O11       1.0  0.38140  0.02960  0.03920  1.0000 -0.7293760854
O   O12       1.0  0.27260  0.82260  0.06030  1.0000 -0.6388729739
O   O13       1.0  0.47190  0.50710  0.06620  1.0000 -0.766829558
O   O14       1.0  0.45090  0.28490  0.12710  1.0000 -0.6218787882
O   O15       1.0  0.22240  0.38200  0.99780  1.0000 -0.7422741431
O   O16       1.0  0.35790  0.21810  0.89460  1.0000 -0.7293760854
O   O17       1.0  0.69970  0.23170  0.58330  1.0000 -0.6218787882
O   O18       1.0  0.93520  0.28820  0.58810  1.0000 -0.6388729739
O   O19       1.0  0.97040  0.61860  0.53920  1.0000 -0.7293760854
O   O20       1.0  0.17740  0.72740  0.56030  1.0000 -0.6388729739
O   O21       1.0  0.49290  0.52810  0.56620  1.0000 -0.766829558
O   O22       1.0  0.71510  0.54910  0.62710  1.0000 -0.6218787882
O   O23       1.0  0.61800  0.77760  0.49780  1.0000 -0.7422741431
O   O24       1.0  0.78190  0.64210  0.39460  1.0000 -0.7293760854
O   O25       1.0  0.23170  0.69970  0.91670  1.0000 -0.6218787882
O   O26       1.0  0.28820  0.93520  0.91190  1.0000 -0.6388729739
O   O27       1.0  0.61860  0.97040  0.96080  1.0000 -0.7293760854
O   O28       1.0  0.72740  0.17740  0.93970  1.0000 -0.6388729739
O   O29       1.0  0.52810  0.49290  0.93380  1.0000 -0.766829558
O   O30       1.0  0.54910  0.71510  0.87290  1.0000 -0.6218787882
O   O31       1.0  0.77760  0.61800  0.00220  1.0000 -0.7422741431
O   O32       1.0  0.64210  0.78190  0.10540  1.0000 -0.7293760854
