# DDEC6 charges by PACMAN v1.1 (https://github.com/mtap-research/PACMAN-charge/)
data_2018[Er][nan]3[FSR]3
_chemical_formula_sum              "Er6 H96 C168 O60"
_cell_length_a       15.2291
_cell_length_b       15.2291
_cell_length_c       26.1829
_cell_angle_alpha    90
_cell_angle_beta     90
_cell_angle_gamma    120

_symmetry_space_group_name_H-M    "P 1"
_symmetry_Int_Tables_number       1

loop_
  _symmetry_equiv_pos_as_xyz
  'x, y, z'

loop_
  _atom_site_type_symbol
  _atom_site_label
  _atom_site_symmetry_multiplicity
  _atom_site_fract_x
  _atom_site_fract_y
  _atom_site_fract_z
  _atom_site_occupancy
  _atom_site_charge
Er  Er1       1.0  0.50000  0.00000  0.57892  1.0000 2.0671093327
Er  Er2       1.0  0.50000  0.50000  0.91226  1.0000 2.0671093327
Er  Er3       1.0  0.00000  0.50000  0.24559  1.0000 2.0671093327
Er  Er4       1.0  0.50000  0.00000  0.42108  1.0000 2.0671093327
Er  Er5       1.0  0.00000  0.50000  0.08774  1.0000 2.0671093327
Er  Er6       1.0  0.50000  0.50000  0.75441  1.0000 2.0671093327
H   H1        1.0  0.04200  0.65423  0.59258  1.0000 0.1378979831
H   H2        1.0  0.63987  0.37568  0.61923  1.0000 0.1378979831
H   H3        1.0  0.20940  0.77975  0.57896  1.0000 0.1310246698
H   H4        1.0  0.99937  0.61477  0.44161  1.0000 0.1476649144
H   H5        1.0  0.16425  0.73780  0.42829  1.0000 0.1378979831
H   H6        1.0  0.79376  0.67594  0.63701  1.0000 0.1310246698
H   H7        1.0  0.90988  0.69205  0.57697  1.0000 0.1378979831
H   H8        1.0  0.75311  0.39049  0.55538  1.0000 0.1476649144
H   H9        1.0  0.61223  0.95800  0.92592  1.0000 0.1378979831
H   H10       1.0  0.73581  0.36013  0.95257  1.0000 0.1378979831
H   H11       1.0  0.57035  0.79060  0.91230  1.0000 0.1310246698
H   H12       1.0  0.61540  0.00063  0.77495  1.0000 0.1476649144
H   H13       1.0  0.57355  0.83575  0.76163  1.0000 0.1378979831
H   H14       1.0  0.88218  0.20624  0.97035  1.0000 0.1310246698
H   H15       1.0  0.78217  0.09012  0.91031  1.0000 0.1378979831
H   H16       1.0  0.63738  0.24689  0.88872  1.0000 0.1476649144
H   H17       1.0  0.34577  0.38777  0.25925  1.0000 0.1378979831
H   H18       1.0  0.62432  0.26419  0.28590  1.0000 0.1378979831
H   H19       1.0  0.22025  0.42965  0.24563  1.0000 0.1310246698
H   H20       1.0  0.38523  0.38460  0.10828  1.0000 0.1476649144
H   H21       1.0  0.26220  0.42645  0.09496  1.0000 0.1378979831
H   H22       1.0  0.32406  0.11782  0.30368  1.0000 0.1310246698
H   H23       1.0  0.30795  0.21783  0.24364  1.0000 0.1378979831
H   H24       1.0  0.60951  0.36262  0.22205  1.0000 0.1476649144
H   H25       1.0  0.95800  0.34577  0.59258  1.0000 0.1378979831
H   H26       1.0  0.36013  0.62432  0.61923  1.0000 0.1378979831
H   H27       1.0  0.79060  0.22025  0.57896  1.0000 0.1310246698
H   H28       1.0  0.00063  0.38523  0.44161  1.0000 0.1476649144
H   H29       1.0  0.83575  0.26220  0.42829  1.0000 0.1378979831
H   H30       1.0  0.20624  0.32406  0.63701  1.0000 0.1310246698
H   H31       1.0  0.09012  0.30795  0.57697  1.0000 0.1378979831
H   H32       1.0  0.24689  0.60951  0.55538  1.0000 0.1476649144
H   H33       1.0  0.38777  0.04200  0.92592  1.0000 0.1378979831
H   H34       1.0  0.26419  0.63987  0.95257  1.0000 0.1378979831
H   H35       1.0  0.42965  0.20940  0.91230  1.0000 0.1310246698
H   H36       1.0  0.38460  0.99937  0.77495  1.0000 0.1476649144
H   H37       1.0  0.42645  0.16425  0.76163  1.0000 0.1378979831
H   H38       1.0  0.11782  0.79376  0.97035  1.0000 0.1310246698
H   H39       1.0  0.21783  0.90988  0.91031  1.0000 0.1378979831
H   H40       1.0  0.36262  0.75311  0.88872  1.0000 0.1476649144
H   H41       1.0  0.65423  0.61223  0.25925  1.0000 0.1378979831
H   H42       1.0  0.37568  0.73581  0.28590  1.0000 0.1378979831
H   H43       1.0  0.77975  0.57035  0.24563  1.0000 0.1310246698
H   H44       1.0  0.61477  0.61540  0.10828  1.0000 0.1476649144
H   H45       1.0  0.73780  0.57355  0.09496  1.0000 0.1378979831
H   H46       1.0  0.67594  0.88218  0.30368  1.0000 0.1310246698
H   H47       1.0  0.69205  0.78217  0.24364  1.0000 0.1378979831
H   H48       1.0  0.39049  0.63738  0.22205  1.0000 0.1476649144
H   H49       1.0  0.38777  0.34577  0.40742  1.0000 0.1378979831
H   H50       1.0  0.26419  0.62432  0.38077  1.0000 0.1378979831
H   H51       1.0  0.42965  0.22025  0.42104  1.0000 0.1310246698
H   H52       1.0  0.38460  0.38523  0.55839  1.0000 0.1476649144
H   H53       1.0  0.42645  0.26220  0.57171  1.0000 0.1378979831
H   H54       1.0  0.11782  0.32406  0.36299  1.0000 0.1310246698
H   H55       1.0  0.21783  0.30795  0.42303  1.0000 0.1378979831
H   H56       1.0  0.36262  0.60951  0.44462  1.0000 0.1476649144
H   H57       1.0  0.65423  0.04200  0.07408  1.0000 0.1378979831
H   H58       1.0  0.37568  0.63987  0.04743  1.0000 0.1378979831
H   H59       1.0  0.77975  0.20940  0.08770  1.0000 0.1310246698
H   H60       1.0  0.61477  0.99937  0.22505  1.0000 0.1476649144
H   H61       1.0  0.73780  0.16425  0.23837  1.0000 0.1378979831
H   H62       1.0  0.67594  0.79376  0.02965  1.0000 0.1310246698
H   H63       1.0  0.69205  0.90988  0.08969  1.0000 0.1378979831
H   H64       1.0  0.39049  0.75311  0.11128  1.0000 0.1476649144
H   H65       1.0  0.95800  0.61223  0.74075  1.0000 0.1378979831
H   H66       1.0  0.36013  0.73581  0.71410  1.0000 0.1378979831
H   H67       1.0  0.79060  0.57035  0.75437  1.0000 0.1310246698
H   H68       1.0  0.00063  0.61540  0.89172  1.0000 0.1476649144
H   H69       1.0  0.83575  0.57355  0.90504  1.0000 0.1378979831
H   H70       1.0  0.20624  0.88218  0.69632  1.0000 0.1310246698
H   H71       1.0  0.09012  0.78217  0.75636  1.0000 0.1378979831
H   H72       1.0  0.24689  0.63738  0.77795  1.0000 0.1476649144
H   H73       1.0  0.61223  0.65423  0.40742  1.0000 0.1378979831
H   H74       1.0  0.73581  0.37568  0.38077  1.0000 0.1378979831
H   H75       1.0  0.57035  0.77975  0.42104  1.0000 0.1310246698
H   H76       1.0  0.61540  0.61477  0.55839  1.0000 0.1476649144
H   H77       1.0  0.57355  0.73780  0.57171  1.0000 0.1378979831
H   H78       1.0  0.88218  0.67594  0.36299  1.0000 0.1310246698
H   H79       1.0  0.78217  0.69205  0.42303  1.0000 0.1378979831
H   H80       1.0  0.63738  0.39049  0.44462  1.0000 0.1476649144
H   H81       1.0  0.34577  0.95800  0.07408  1.0000 0.1378979831
H   H82       1.0  0.62432  0.36013  0.04743  1.0000 0.1378979831
H   H83       1.0  0.22025  0.79060  0.08770  1.0000 0.1310246698
H   H84       1.0  0.38523  0.00063  0.22505  1.0000 0.1476649144
H   H85       1.0  0.26220  0.83575  0.23837  1.0000 0.1378979831
H   H86       1.0  0.32406  0.20624  0.02965  1.0000 0.1310246698
H   H87       1.0  0.30795  0.09012  0.08969  1.0000 0.1378979831
H   H88       1.0  0.60951  0.24689  0.11128  1.0000 0.1476649144
H   H89       1.0  0.04200  0.38777  0.74075  1.0000 0.1378979831
H   H90       1.0  0.63987  0.26419  0.71410  1.0000 0.1378979831
H   H91       1.0  0.20940  0.42965  0.75437  1.0000 0.1310246698
H   H92       1.0  0.99937  0.38460  0.89172  1.0000 0.1476649144
H   H93       1.0  0.16425  0.42645  0.90504  1.0000 0.1378979831
H   H94       1.0  0.79376  0.11782  0.69632  1.0000 0.1310246698
H   H95       1.0  0.90988  0.21783  0.75636  1.0000 0.1378979831
H   H96       1.0  0.75311  0.36262  0.77795  1.0000 0.1476649144
C   C1        1.0  0.63420  0.51710  0.67543  1.0000 0.5670130364
C   C2        1.0  0.20410  0.77370  0.50163  1.0000 -0.0382368118
C   C3        1.0  0.30970  0.85840  0.49323  1.0000 0.6543543996
C   C4        1.0  0.00620  0.62300  0.51883  1.0000 0.2429708353
C   C5        1.0  0.06710  0.67150  0.55953  1.0000 -0.2121771091
C   C6        1.0  0.69370  0.43900  0.61053  1.0000 -0.0636500065
C   C7        1.0  0.16720  0.74710  0.55133  1.0000 -0.0636500065
C   C8        1.0  0.04170  0.64790  0.46913  1.0000 -0.1890170563
C   C9        1.0  0.70650  0.52530  0.63503  1.0000 -0.0382368118
C   C10       1.0  0.13980  0.72180  0.46153  1.0000 -0.0636500065
C   C11       1.0  0.78650  0.61800  0.62113  1.0000 -0.0717480667
C   C12       1.0  0.85570  0.62840  0.58513  1.0000 -0.2121771091
C   C13       1.0  0.76210  0.44770  0.57263  1.0000 -0.1890170563
C   C14       1.0  0.84360  0.54240  0.56093  1.0000 0.265866544
C   C15       1.0  0.88290  0.36580  0.00877  1.0000 0.5670130364
C   C16       1.0  0.56960  0.79590  0.83497  1.0000 -0.0382368118
C   C17       1.0  0.54870  0.69030  0.82657  1.0000 0.6543543996
C   C18       1.0  0.61680  0.99380  0.85217  1.0000 0.2429708353
C   C19       1.0  0.60440  0.93290  0.89287  1.0000 -0.2121771091
C   C20       1.0  0.74530  0.30630  0.94387  1.0000 -0.0636500065
C   C21       1.0  0.57990  0.83280  0.88467  1.0000 -0.0636500065
C   C22       1.0  0.60620  0.95830  0.80247  1.0000 -0.1890170563
C   C23       1.0  0.81880  0.29350  0.96837  1.0000 -0.0382368118
C   C24       1.0  0.58200  0.86020  0.79487  1.0000 -0.0636500065
C   C25       1.0  0.83150  0.21350  0.95447  1.0000 -0.0717480667
C   C26       1.0  0.77270  0.14430  0.91847  1.0000 -0.2121771091
C   C27       1.0  0.68560  0.23790  0.90597  1.0000 -0.1890170563
C   C28       1.0  0.69880  0.15640  0.89427  1.0000 0.265866544
C   C29       1.0  0.48290  0.11710  0.34210  1.0000 0.5670130364
C   C30       1.0  0.22630  0.43040  0.16830  1.0000 -0.0382368118
C   C31       1.0  0.14160  0.45130  0.15990  1.0000 0.6543543996
C   C32       1.0  0.37700  0.38320  0.18550  1.0000 0.2429708353
C   C33       1.0  0.32850  0.39560  0.22620  1.0000 -0.2121771091
C   C34       1.0  0.56100  0.25470  0.27720  1.0000 -0.0636500065
C   C35       1.0  0.25290  0.42010  0.21800  1.0000 -0.0636500065
C   C36       1.0  0.35210  0.39380  0.13580  1.0000 -0.1890170563
C   C37       1.0  0.47470  0.18120  0.30170  1.0000 -0.0382368118
C   C38       1.0  0.27820  0.41800  0.12820  1.0000 -0.0636500065
C   C39       1.0  0.38200  0.16850  0.28780  1.0000 -0.0717480667
C   C40       1.0  0.37160  0.22730  0.25180  1.0000 -0.2121771091
C   C41       1.0  0.55230  0.31440  0.23930  1.0000 -0.1890170563
C   C42       1.0  0.45760  0.30120  0.22760  1.0000 0.265866544
C   C43       1.0  0.36580  0.48290  0.67543  1.0000 0.5670130364
C   C44       1.0  0.79590  0.22630  0.50163  1.0000 -0.0382368118
C   C45       1.0  0.69030  0.14160  0.49323  1.0000 0.6543543996
C   C46       1.0  0.99380  0.37700  0.51883  1.0000 0.2429708353
C   C47       1.0  0.93290  0.32850  0.55953  1.0000 -0.2121771091
C   C48       1.0  0.30630  0.56100  0.61053  1.0000 -0.0636500065
C   C49       1.0  0.83280  0.25290  0.55133  1.0000 -0.0636500065
C   C50       1.0  0.95830  0.35210  0.46913  1.0000 -0.1890170563
C   C51       1.0  0.29350  0.47470  0.63503  1.0000 -0.0382368118
C   C52       1.0  0.86020  0.27820  0.46153  1.0000 -0.0636500065
C   C53       1.0  0.21350  0.38200  0.62113  1.0000 -0.0717480667
C   C54       1.0  0.14430  0.37160  0.58513  1.0000 -0.2121771091
C   C55       1.0  0.23790  0.55230  0.57263  1.0000 -0.1890170563
C   C56       1.0  0.15640  0.45760  0.56093  1.0000 0.265866544
C   C57       1.0  0.11710  0.63420  0.00877  1.0000 0.5670130364
C   C58       1.0  0.43040  0.20410  0.83497  1.0000 -0.0382368118
C   C59       1.0  0.45130  0.30970  0.82657  1.0000 0.6543543996
C   C60       1.0  0.38320  0.00620  0.85217  1.0000 0.2429708353
C   C61       1.0  0.39560  0.06710  0.89287  1.0000 -0.2121771091
C   C62       1.0  0.25470  0.69370  0.94387  1.0000 -0.0636500065
C   C63       1.0  0.42010  0.16720  0.88467  1.0000 -0.0636500065
C   C64       1.0  0.39380  0.04170  0.80247  1.0000 -0.1890170563
C   C65       1.0  0.18120  0.70650  0.96837  1.0000 -0.0382368118
C   C66       1.0  0.41800  0.13980  0.79487  1.0000 -0.0636500065
C   C67       1.0  0.16850  0.78650  0.95447  1.0000 -0.0717480667
C   C68       1.0  0.22730  0.85570  0.91847  1.0000 -0.2121771091
C   C69       1.0  0.31440  0.76210  0.90597  1.0000 -0.1890170563
C   C70       1.0  0.30120  0.84360  0.89427  1.0000 0.265866544
C   C71       1.0  0.51710  0.88290  0.34210  1.0000 0.5670130364
C   C72       1.0  0.77370  0.56960  0.16830  1.0000 -0.0382368118
C   C73       1.0  0.85840  0.54870  0.15990  1.0000 0.6543543996
C   C74       1.0  0.62300  0.61680  0.18550  1.0000 0.2429708353
C   C75       1.0  0.67150  0.60440  0.22620  1.0000 -0.2121771091
C   C76       1.0  0.43900  0.74530  0.27720  1.0000 -0.0636500065
C   C77       1.0  0.74710  0.57990  0.21800  1.0000 -0.0636500065
C   C78       1.0  0.64790  0.60620  0.13580  1.0000 -0.1890170563
C   C79       1.0  0.52530  0.81880  0.30170  1.0000 -0.0382368118
C   C80       1.0  0.72180  0.58200  0.12820  1.0000 -0.0636500065
C   C81       1.0  0.61800  0.83150  0.28780  1.0000 -0.0717480667
C   C82       1.0  0.62840  0.77270  0.25180  1.0000 -0.2121771091
C   C83       1.0  0.44770  0.68560  0.23930  1.0000 -0.1890170563
C   C84       1.0  0.54240  0.69880  0.22760  1.0000 0.265866544
C   C85       1.0  0.11710  0.48290  0.32457  1.0000 0.5670130364
C   C86       1.0  0.43040  0.22630  0.49837  1.0000 -0.0382368118
C   C87       1.0  0.45130  0.14160  0.50677  1.0000 0.6543543996
C   C88       1.0  0.38320  0.37700  0.48117  1.0000 0.2429708353
C   C89       1.0  0.39560  0.32850  0.44047  1.0000 -0.2121771091
C   C90       1.0  0.25470  0.56100  0.38947  1.0000 -0.0636500065
C   C91       1.0  0.42010  0.25290  0.44867  1.0000 -0.0636500065
C   C92       1.0  0.39380  0.35210  0.53087  1.0000 -0.1890170563
C   C93       1.0  0.18120  0.47470  0.36497  1.0000 -0.0382368118
C   C94       1.0  0.41800  0.27820  0.53847  1.0000 -0.0636500065
C   C95       1.0  0.16850  0.38200  0.37887  1.0000 -0.0717480667
C   C96       1.0  0.22730  0.37160  0.41487  1.0000 -0.2121771091
C   C97       1.0  0.31440  0.55230  0.42737  1.0000 -0.1890170563
C   C98       1.0  0.30120  0.45760  0.43907  1.0000 0.265866544
C   C99       1.0  0.51710  0.63420  0.99123  1.0000 0.5670130364
C   C100      1.0  0.77370  0.20410  0.16503  1.0000 -0.0382368118
C   C101      1.0  0.85840  0.30970  0.17343  1.0000 0.6543543996
C   C102      1.0  0.62300  0.00620  0.14783  1.0000 0.2429708353
C   C103      1.0  0.67150  0.06710  0.10713  1.0000 -0.2121771091
C   C104      1.0  0.43900  0.69370  0.05613  1.0000 -0.0636500065
C   C105      1.0  0.74710  0.16720  0.11533  1.0000 -0.0636500065
C   C106      1.0  0.64790  0.04170  0.19753  1.0000 -0.1890170563
C   C107      1.0  0.52530  0.70650  0.03163  1.0000 -0.0382368118
C   C108      1.0  0.72180  0.13980  0.20513  1.0000 -0.0636500065
C   C109      1.0  0.61800  0.78650  0.04553  1.0000 -0.0717480667
C   C110      1.0  0.62840  0.85570  0.08153  1.0000 -0.2121771091
C   C111      1.0  0.44770  0.76210  0.09403  1.0000 -0.1890170563
C   C112      1.0  0.54240  0.84360  0.10573  1.0000 0.265866544
C   C113      1.0  0.36580  0.88290  0.65790  1.0000 0.5670130364
C   C114      1.0  0.79590  0.56960  0.83170  1.0000 -0.0382368118
C   C115      1.0  0.69030  0.54870  0.84010  1.0000 0.6543543996
C   C116      1.0  0.99380  0.61680  0.81450  1.0000 0.2429708353
C   C117      1.0  0.93290  0.60440  0.77380  1.0000 -0.2121771091
C   C118      1.0  0.30630  0.74530  0.72280  1.0000 -0.0636500065
C   C119      1.0  0.83280  0.57990  0.78200  1.0000 -0.0636500065
C   C120      1.0  0.95830  0.60620  0.86420  1.0000 -0.1890170563
C   C121      1.0  0.29350  0.81880  0.69830  1.0000 -0.0382368118
C   C122      1.0  0.86020  0.58200  0.87180  1.0000 -0.0636500065
C   C123      1.0  0.21350  0.83150  0.71220  1.0000 -0.0717480667
C   C124      1.0  0.14430  0.77270  0.74820  1.0000 -0.2121771091
C   C125      1.0  0.23790  0.68560  0.76070  1.0000 -0.1890170563
C   C126      1.0  0.15640  0.69880  0.77240  1.0000 0.265866544
C   C127      1.0  0.88290  0.51710  0.32457  1.0000 0.5670130364
C   C128      1.0  0.56960  0.77370  0.49837  1.0000 -0.0382368118
C   C129      1.0  0.54870  0.85840  0.50677  1.0000 0.6543543996
C   C130      1.0  0.61680  0.62300  0.48117  1.0000 0.2429708353
C   C131      1.0  0.60440  0.67150  0.44047  1.0000 -0.2121771091
C   C132      1.0  0.74530  0.43900  0.38947  1.0000 -0.0636500065
C   C133      1.0  0.57990  0.74710  0.44867  1.0000 -0.0636500065
C   C134      1.0  0.60620  0.64790  0.53087  1.0000 -0.1890170563
C   C135      1.0  0.81880  0.52530  0.36497  1.0000 -0.0382368118
C   C136      1.0  0.58200  0.72180  0.53847  1.0000 -0.0636500065
C   C137      1.0  0.83150  0.61800  0.37887  1.0000 -0.0717480667
C   C138      1.0  0.77270  0.62840  0.41487  1.0000 -0.2121771091
C   C139      1.0  0.68560  0.44770  0.42737  1.0000 -0.1890170563
C   C140      1.0  0.69880  0.54240  0.43907  1.0000 0.265866544
C   C141      1.0  0.48290  0.36580  0.99123  1.0000 0.5670130364
C   C142      1.0  0.22630  0.79590  0.16503  1.0000 -0.0382368118
C   C143      1.0  0.14160  0.69030  0.17343  1.0000 0.6543543996
C   C144      1.0  0.37700  0.99380  0.14783  1.0000 0.2429708353
C   C145      1.0  0.32850  0.93290  0.10713  1.0000 -0.2121771091
C   C146      1.0  0.56100  0.30630  0.05613  1.0000 -0.0636500065
C   C147      1.0  0.25290  0.83280  0.11533  1.0000 -0.0636500065
C   C148      1.0  0.35210  0.95830  0.19753  1.0000 -0.1890170563
C   C149      1.0  0.47470  0.29350  0.03163  1.0000 -0.0382368118
C   C150      1.0  0.27820  0.86020  0.20513  1.0000 -0.0636500065
C   C151      1.0  0.38200  0.21350  0.04553  1.0000 -0.0717480667
C   C152      1.0  0.37160  0.14430  0.08153  1.0000 -0.2121771091
C   C153      1.0  0.55230  0.23790  0.09403  1.0000 -0.1890170563
C   C154      1.0  0.45760  0.15640  0.10573  1.0000 0.265866544
C   C155      1.0  0.63420  0.11710  0.65790  1.0000 0.5670130364
C   C156      1.0  0.20410  0.43040  0.83170  1.0000 -0.0382368118
C   C157      1.0  0.30970  0.45130  0.84010  1.0000 0.6543543996
C   C158      1.0  0.00620  0.38320  0.81450  1.0000 0.2429708353
C   C159      1.0  0.06710  0.39560  0.77380  1.0000 -0.2121771091
C   C160      1.0  0.69370  0.25470  0.72280  1.0000 -0.0636500065
C   C161      1.0  0.16720  0.42010  0.78200  1.0000 -0.0636500065
C   C162      1.0  0.04170  0.39380  0.86420  1.0000 -0.1890170563
C   C163      1.0  0.70650  0.18120  0.69830  1.0000 -0.0382368118
C   C164      1.0  0.13980  0.41800  0.87180  1.0000 -0.0636500065
C   C165      1.0  0.78650  0.16850  0.71220  1.0000 -0.0717480667
C   C166      1.0  0.85570  0.22730  0.74820  1.0000 -0.2121771091
C   C167      1.0  0.76210  0.31440  0.76070  1.0000 -0.1890170563
C   C168      1.0  0.84360  0.30120  0.77240  1.0000 0.265866544
O   O1        1.0  0.56240  0.43170  0.68997  1.0000 -0.6106774597
O   O2        1.0  0.33670  0.88820  0.44723  1.0000 -0.6432559826
O   O3        1.0  0.64270  0.59670  0.69683  1.0000 -0.6106774597
O   O4        1.0  0.36570  0.89470  0.53073  1.0000 -0.6650243142
O   O5        1.0  0.90570  0.54200  0.52303  1.0000 -0.2016449237
O   O6        1.0  0.86930  0.43760  0.02331  1.0000 -0.6106774597
O   O7        1.0  0.55150  0.66330  0.78057  1.0000 -0.6432559826
O   O8        1.0  0.95400  0.35730  0.03017  1.0000 -0.6106774597
O   O9        1.0  0.52900  0.63430  0.86407  1.0000 -0.6647612789
O   O10       1.0  0.63630  0.09430  0.85637  1.0000 -0.2016449237
O   O11       1.0  0.56830  0.13070  0.35664  1.0000 -0.6106774597
O   O12       1.0  0.11180  0.44850  0.11390  1.0000 -0.6432559826
O   O13       1.0  0.40330  0.04600  0.36350  1.0000 -0.6106774597
O   O14       1.0  0.10530  0.47100  0.19740  1.0000 -0.6650243142
O   O15       1.0  0.45800  0.36370  0.18970  1.0000 -0.2016449237
O   O16       1.0  0.43760  0.56830  0.68997  1.0000 -0.6106774597
O   O17       1.0  0.66330  0.11180  0.44723  1.0000 -0.6432559826
O   O18       1.0  0.35730  0.40330  0.69683  1.0000 -0.6106774597
O   O19       1.0  0.63430  0.10530  0.53073  1.0000 -0.6650243142
O   O20       1.0  0.09430  0.45800  0.52303  1.0000 -0.2016449237
O   O21       1.0  0.13070  0.56240  0.02331  1.0000 -0.6106774597
O   O22       1.0  0.44850  0.33670  0.78057  1.0000 -0.6432559826
O   O23       1.0  0.04600  0.64270  0.03017  1.0000 -0.6106774597
O   O24       1.0  0.47100  0.36570  0.86407  1.0000 -0.6647612789
O   O25       1.0  0.36370  0.90570  0.85637  1.0000 -0.2016449237
O   O26       1.0  0.43170  0.86930  0.35664  1.0000 -0.6106774597
O   O27       1.0  0.88820  0.55150  0.11390  1.0000 -0.6432559826
O   O28       1.0  0.59670  0.95400  0.36350  1.0000 -0.6106774597
O   O29       1.0  0.89470  0.52900  0.19740  1.0000 -0.6650243142
O   O30       1.0  0.54200  0.63630  0.18970  1.0000 -0.2016449237
O   O31       1.0  0.13070  0.56830  0.31003  1.0000 -0.6106774597
O   O32       1.0  0.44850  0.11180  0.55277  1.0000 -0.6432559826
O   O33       1.0  0.04600  0.40330  0.30317  1.0000 -0.6106774597
O   O34       1.0  0.47100  0.10530  0.46927  1.0000 -0.6647612789
O   O35       1.0  0.36370  0.45800  0.47697  1.0000 -0.2016449237
O   O36       1.0  0.43170  0.56240  0.97669  1.0000 -0.6106774597
O   O37       1.0  0.88820  0.33670  0.21943  1.0000 -0.6432559826
O   O38       1.0  0.59670  0.64270  0.96983  1.0000 -0.6106774597
O   O39       1.0  0.89470  0.36570  0.13593  1.0000 -0.6650243142
O   O40       1.0  0.54200  0.90570  0.14363  1.0000 -0.2016449237
O   O41       1.0  0.43760  0.86930  0.64336  1.0000 -0.6106774597
O   O42       1.0  0.66330  0.55150  0.88610  1.0000 -0.6432559826
O   O43       1.0  0.35730  0.95400  0.63650  1.0000 -0.6106774597
O   O44       1.0  0.63430  0.52900  0.80260  1.0000 -0.6647612789
O   O45       1.0  0.09430  0.63630  0.81030  1.0000 -0.2016449237
O   O46       1.0  0.86930  0.43170  0.31003  1.0000 -0.6106774597
O   O47       1.0  0.55150  0.88820  0.55277  1.0000 -0.6432559826
O   O48       1.0  0.95400  0.59670  0.30317  1.0000 -0.6106774597
O   O49       1.0  0.52900  0.89470  0.46927  1.0000 -0.6647612789
O   O50       1.0  0.63630  0.54200  0.47697  1.0000 -0.2016449237
O   O51       1.0  0.56830  0.43760  0.97669  1.0000 -0.6106774597
O   O52       1.0  0.11180  0.66330  0.21943  1.0000 -0.6432559826
O   O53       1.0  0.40330  0.35730  0.96983  1.0000 -0.6106774597
O   O54       1.0  0.10530  0.63430  0.13593  1.0000 -0.6650243142
O   O55       1.0  0.45800  0.09430  0.14363  1.0000 -0.2016449237
O   O56       1.0  0.56240  0.13070  0.64336  1.0000 -0.6106774597
O   O57       1.0  0.33670  0.44850  0.88610  1.0000 -0.6432559826
O   O58       1.0  0.64270  0.04600  0.63650  1.0000 -0.6106774597
O   O59       1.0  0.36570  0.47100  0.80260  1.0000 -0.6650243142
O   O60       1.0  0.90570  0.36370  0.81030  1.0000 -0.2016449237
