# DDEC6 charges by PACMAN v1.1 (https://github.com/mtap-research/PACMAN-charge/)
data_2018[Zn][sql]2[FSR]19
_chemical_formula_sum              "Zn2 H44 C64 N8 O16"
_cell_length_a       10.0061
_cell_length_b       13.025
_cell_length_c       13.088
_cell_angle_alpha    77.877
_cell_angle_beta     86.081
_cell_angle_gamma    78.163

_symmetry_space_group_name_H-M    "P 1"
_symmetry_Int_Tables_number       1

loop_
  _symmetry_equiv_pos_as_xyz
  'x, y, z'

loop_
  _atom_site_type_symbol
  _atom_site_label
  _atom_site_symmetry_multiplicity
  _atom_site_fract_x
  _atom_site_fract_y
  _atom_site_fract_z
  _atom_site_occupancy
  _atom_site_charge
Zn  Zn1       1.0  0.04469  0.66425  0.83903  1.0000 0.7287616006
Zn  Zn2       1.0  0.95531  0.33575  0.16097  1.0000 0.7287616006
H   H1        1.0  0.46070  0.60010  0.25060  1.0000 0.3553171924
H   H2        1.0  0.93790  0.28100  0.93120  1.0000 0.2892975381
H   H3        1.0  0.31470  0.85300  0.53160  1.0000 0.2801866403
H   H4        1.0  0.17140  0.56800  0.65480  1.0000 0.1113867855
H   H5        1.0  0.17810  0.41740  0.59000  1.0000 0.1391250773
H   H6        1.0  0.07960  0.27900  0.68720  1.0000 0.1391250773
H   H7        1.0  0.94690  0.46490  0.89260  1.0000 0.1294639737
H   H8        1.0  0.94440  0.14010  0.03800  1.0000 0.1113867855
H   H9        1.0  0.86200  0.01660  0.16460  1.0000 0.1294639737
H   H10       1.0  0.69680  0.09320  0.83030  1.0000 0.1113867855
H   H11       1.0  0.61910  0.96570  0.95790  1.0000 0.1294639737
H   H12       1.0  0.56180  0.08990  0.18160  1.0000 0.1294639737
H   H13       1.0  0.41200  0.12250  0.31630  1.0000 0.1294639737
H   H14       1.0  0.60660  0.77710  0.29560  1.0000 0.1391250773
H   H15       1.0  0.45250  0.81090  0.42370  1.0000 0.1113867855
H   H16       1.0  0.54290  0.67000  0.83090  1.0000 0.1217642634
H   H17       1.0  0.33740  0.61300  0.10270  1.0000 0.1294639737
H   H18       1.0  0.72650  0.64980  0.09740  1.0000 0.1294639737
H   H19       1.0  0.87020  0.88200  0.78900  1.0000 0.1113867855
H   H20       1.0  0.87750  0.04610  0.68550  1.0000 0.1294639737
H   H21       1.0  0.06230  0.07060  0.57320  1.0000 0.1391250773
H   H22       1.0  0.21470  0.76000  0.66530  1.0000 0.1217642634
H   H23       1.0  0.53930  0.39990  0.74940  1.0000 0.3553171924
H   H24       1.0  0.06210  0.71900  0.06880  1.0000 0.2892975381
H   H25       1.0  0.68530  0.14700  0.46840  1.0000 0.2801866403
H   H26       1.0  0.82860  0.43200  0.34520  1.0000 0.1113867855
H   H27       1.0  0.82190  0.58260  0.41000  1.0000 0.1391250773
H   H28       1.0  0.92040  0.72100  0.31280  1.0000 0.1391250773
H   H29       1.0  0.05310  0.53510  0.10740  1.0000 0.1294639737
H   H30       1.0  0.05560  0.85990  0.96200  1.0000 0.1113867855
H   H31       1.0  0.13800  0.98340  0.83540  1.0000 0.1294639737
H   H32       1.0  0.30320  0.90680  0.16970  1.0000 0.1113867855
H   H33       1.0  0.38090  0.03430  0.04210  1.0000 0.1294639737
H   H34       1.0  0.43820  0.91010  0.81840  1.0000 0.1294639737
H   H35       1.0  0.58800  0.87750  0.68370  1.0000 0.1294639737
H   H36       1.0  0.39340  0.22290  0.70440  1.0000 0.1391250773
H   H37       1.0  0.54750  0.18910  0.57630  1.0000 0.1113867855
H   H38       1.0  0.45710  0.33000  0.16910  1.0000 0.1217642634
H   H39       1.0  0.66260  0.38700  0.89730  1.0000 0.1294639737
H   H40       1.0  0.27350  0.35020  0.90260  1.0000 0.1294639737
H   H41       1.0  0.12980  0.11800  0.21100  1.0000 0.1113867855
H   H42       1.0  0.12250  0.95390  0.31450  1.0000 0.1294639737
H   H43       1.0  0.93770  0.92940  0.42680  1.0000 0.1391250773
H   H44       1.0  0.78530  0.24000  0.33470  1.0000 0.1217642634
C   C1        1.0  0.12630  0.51530  0.69160  1.0000 0.0625623411
C   C2        1.0  0.13300  0.42440  0.65350  1.0000 -0.1363842318
C   C3        1.0  0.07230  0.34300  0.70980  1.0000 -0.119420345
C   C4        1.0  0.00080  0.35960  0.80040  1.0000 0.1810348949
C   C5        1.0  0.99600  0.45400  0.83160  1.0000 -0.0133943984
C   C6        1.0  0.88090  0.21080  0.83610  1.0000 0.4509118294
C   C7        1.0  0.82830  0.13150  0.92100  1.0000 -0.0427021215
C   C8        1.0  0.87770  0.10620  0.02170  1.0000 -0.1086753139
C   C9        1.0  0.82930  0.03200  0.09710  1.0000 -0.199511172
C   C10       1.0  0.73040  0.07780  0.89750  1.0000 -0.0976256707
C   C11       1.0  0.68350  0.00190  0.97380  1.0000 -0.199511172
C   C12       1.0  0.73260  0.98010  0.07360  1.0000 0.2366038731
C   C13       1.0  0.60010  0.93020  0.22580  1.0000 0.2504739782
C   C14       1.0  0.54080  0.03310  0.23180  1.0000 -0.2235324511
C   C15       1.0  0.45030  0.05210  0.31220  1.0000 -0.0841881761
C   C16       1.0  0.56630  0.84730  0.29930  1.0000 -0.1935972104
C   C17       1.0  0.47480  0.86660  0.37720  1.0000 -0.1086753139
C   C18       1.0  0.41420  0.97030  0.38730  1.0000 -0.0570066849
C   C19       1.0  0.30810  0.99730  0.46810  1.0000 0.4509118294
C   C20       1.0  0.78180  0.67770  0.89190  1.0000 0.5332072547
C   C21       1.0  0.65240  0.66390  0.95540  1.0000 -0.0043425953
C   C22       1.0  0.53980  0.66010  0.90340  1.0000 -0.1494313905
C   C23       1.0  0.42070  0.64140  0.95930  1.0000 0.0034969598
C   C24       1.0  0.29940  0.64000  0.89790  1.0000 0.5477849117
C   C25       1.0  0.41700  0.62590  0.06560  1.0000 -0.246930694
C   C26       1.0  0.53150  0.62910  0.11940  1.0000 0.3001389673
C   C27       1.0  0.64930  0.64800  0.06270  1.0000 -0.2104925046
C   C28       1.0  0.94390  0.88990  0.74270  1.0000 0.0625623411
C   C29       1.0  0.94850  0.98850  0.68100  1.0000 -0.119420345
C   C30       1.0  0.05680  0.00330  0.61280  1.0000 -0.119420345
C   C31       1.0  0.15640  0.91550  0.60510  1.0000 0.1810348949
C   C32       1.0  0.14580  0.81900  0.66950  1.0000 -0.0499674303
C   C33       1.0  0.87370  0.48470  0.30840  1.0000 0.0625623411
C   C34       1.0  0.86700  0.57560  0.34650  1.0000 -0.1363842318
C   C35       1.0  0.92770  0.65700  0.29020  1.0000 -0.119420345
C   C36       1.0  0.99920  0.64040  0.19960  1.0000 0.1810348949
C   C37       1.0  0.00400  0.54600  0.16840  1.0000 -0.0133943984
C   C38       1.0  0.11910  0.78920  0.16390  1.0000 0.4509118294
C   C39       1.0  0.17170  0.86850  0.07900  1.0000 -0.0427021215
C   C40       1.0  0.12230  0.89380  0.97830  1.0000 -0.1086753139
C   C41       1.0  0.17070  0.96800  0.90290  1.0000 -0.199511172
C   C42       1.0  0.26960  0.92220  0.10250  1.0000 -0.0976256707
C   C43       1.0  0.31650  0.99810  0.02620  1.0000 -0.199511172
C   C44       1.0  0.26740  0.01990  0.92640  1.0000 0.2366038731
C   C45       1.0  0.39990  0.06980  0.77420  1.0000 0.2504739782
C   C46       1.0  0.45920  0.96690  0.76820  1.0000 -0.2235324511
C   C47       1.0  0.54970  0.94790  0.68780  1.0000 -0.0851892734
C   C48       1.0  0.43370  0.15270  0.70070  1.0000 -0.1935972104
C   C49       1.0  0.52520  0.13340  0.62280  1.0000 -0.1086753139
C   C50       1.0  0.58580  0.02970  0.61270  1.0000 -0.0570066849
C   C51       1.0  0.69190  0.00270  0.53190  1.0000 0.4509118294
C   C52       1.0  0.21820  0.32230  0.10810  1.0000 0.5332072547
C   C53       1.0  0.34760  0.33610  0.04460  1.0000 -0.0043425953
C   C54       1.0  0.46020  0.33990  0.09660  1.0000 -0.1494313905
C   C55       1.0  0.57930  0.35860  0.04070  1.0000 0.0034969598
C   C56       1.0  0.70060  0.36000  0.10210  1.0000 0.5477849117
C   C57       1.0  0.58300  0.37410  0.93440  1.0000 -0.246930694
C   C58       1.0  0.46850  0.37090  0.88060  1.0000 0.3001389673
C   C59       1.0  0.35070  0.35200  0.93730  1.0000 -0.2104925046
C   C60       1.0  0.05610  0.11010  0.25730  1.0000 0.0625623411
C   C61       1.0  0.05150  0.01150  0.31900  1.0000 -0.119420345
C   C62       1.0  0.94320  0.99670  0.38720  1.0000 -0.119420345
C   C63       1.0  0.84360  0.08450  0.39490  1.0000 0.1810348949
C   C64       1.0  0.85420  0.18100  0.33050  1.0000 -0.0499674303
N   N1        1.0  0.05810  0.53130  0.77900  1.0000 -0.199511172
N   N2        1.0  0.93870  0.28230  0.86670  1.0000 -0.3537273039
N   N3        1.0  0.26730  0.91370  0.53380  1.0000 -0.3557337949
N   N4        1.0  0.04230  0.80560  0.73750  1.0000 -0.199511172
N   N5        1.0  0.94190  0.46870  0.22100  1.0000 -0.199511172
N   N6        1.0  0.06130  0.71770  0.13330  1.0000 -0.3537273039
N   N7        1.0  0.73270  0.08630  0.46620  1.0000 -0.3537273039
N   N8        1.0  0.95770  0.19440  0.26250  1.0000 -0.199511172
O   O1        1.0  0.88890  0.67250  0.94270  1.0000 -0.5468702892
O   O2        1.0  0.78240  0.69200  0.79690  1.0000 -0.5224846432
O   O3        1.0  0.18310  0.64420  0.94760  1.0000 -0.5468702892
O   O4        1.0  0.31080  0.63720  0.80510  1.0000 -0.532591624
O   O5        1.0  0.53380  0.61380  0.22530  1.0000 -0.418672187
O   O6        1.0  0.86650  0.20930  0.74400  1.0000 -0.4965727607
O   O7        1.0  0.68750  0.90150  0.14800  1.0000 -0.2104925046
O   O8        1.0  0.25790  0.08880  0.47350  1.0000 -0.4401969889
O   O9        1.0  0.11110  0.32750  0.05730  1.0000 -0.5468702892
O   O10       1.0  0.21760  0.30800  0.20310  1.0000 -0.5224846432
O   O11       1.0  0.81690  0.35580  0.05240  1.0000 -0.5468702892
O   O12       1.0  0.68920  0.36280  0.19490  1.0000 -0.532591624
O   O13       1.0  0.46620  0.38620  0.77470  1.0000 -0.418672187
O   O14       1.0  0.13350  0.79070  0.25600  1.0000 -0.4965727607
O   O15       1.0  0.31250  0.09850  0.85200  1.0000 -0.2104925046
O   O16       1.0  0.74210  0.91120  0.52650  1.0000 -0.4401969889
