# DDEC6 charges by PACMAN v1.1 (https://github.com/mtap-research/PACMAN-charge/)
data_2018[Zn][pcu]3[FSR]13
_chemical_formula_sum              "Zn8 H72 C100 S8 N8 O32"
_cell_length_a       18.794
_cell_length_b       18.794
_cell_length_c       13.1649
_cell_angle_alpha    75.522
_cell_angle_beta     104.478
_cell_angle_gamma    130.244

_symmetry_space_group_name_H-M    "P 1"
_symmetry_Int_Tables_number       1

loop_
  _symmetry_equiv_pos_as_xyz
  'x, y, z'

loop_
  _atom_site_type_symbol
  _atom_site_label
  _atom_site_symmetry_multiplicity
  _atom_site_fract_x
  _atom_site_fract_y
  _atom_site_fract_z
  _atom_site_occupancy
  _atom_site_charge
Zn  Zn1       1.0  0.98298  0.57310  0.28661  1.0000 0.8459175438
Zn  Zn2       1.0  0.83990  0.60538  0.21782  1.0000 0.8316840142
Zn  Zn3       1.0  0.42690  0.01702  0.78661  1.0000 0.8459175438
Zn  Zn4       1.0  0.39462  0.16010  0.71782  1.0000 0.8316840142
Zn  Zn5       1.0  0.57310  0.98298  0.21339  1.0000 0.8459175438
Zn  Zn6       1.0  0.60538  0.83990  0.28218  1.0000 0.8316840142
Zn  Zn7       1.0  0.01702  0.42690  0.71339  1.0000 0.8459175438
Zn  Zn8       1.0  0.16010  0.39462  0.78218  1.0000 0.8316840142
H   H1        1.0  0.81130  0.30990  0.51680  1.0000 0.1303283514
H   H2        1.0  0.68140  0.18320  0.62110  1.0000 0.1378447547
H   H3        1.0  0.03860  0.89680  0.03420  1.0000 0.1303283514
H   H4        1.0  0.16720  0.02220  0.92750  1.0000 0.1303283514
H   H5        1.0  0.01450  0.43430  0.41360  1.0000 0.1122171465
H   H6        1.0  0.12040  0.40600  0.43180  1.0000 0.1303283514
H   H7        1.0  0.27140  0.63940  0.22950  1.0000 0.1303283514
H   H8        1.0  0.16000  0.65920  0.21080  1.0000 0.1122171465
H   H9        1.0  0.28470  0.50510  0.26490  1.0000 0.116662389
H   H10       1.0  0.34540  0.56980  0.35800  1.0000 0.1122171465
H   H11       1.0  0.31830  0.42170  0.38890  1.0000 0.0914092241
H   H12       1.0  0.21190  0.37130  0.40020  1.0000 0.0914092241
H   H13       1.0  0.25150  0.42590  0.55740  1.0000 0.1303283514
H   H14       1.0  0.35970  0.50610  0.53840  1.0000 0.1122171465
H   H15       1.0  0.49710  0.36710  0.67950  1.0000 0.1122171465
H   H16       1.0  0.46730  0.47110  0.60610  1.0000 0.1378447547
H   H17       1.0  0.19190  0.25490  0.59130  1.0000 0.1378447547
H   H18       1.0  0.22880  0.15520  0.66040  1.0000 0.1122171465
H   H19       1.0  0.69010  0.18870  0.01680  1.0000 0.1303283514
H   H20       1.0  0.81680  0.31860  0.12110  1.0000 0.1378447547
H   H21       1.0  0.10320  0.96140  0.53420  1.0000 0.1303283514
H   H22       1.0  0.97780  0.83280  0.42750  1.0000 0.1303283514
H   H23       1.0  0.56570  0.98550  0.91360  1.0000 0.1122171465
H   H24       1.0  0.59400  0.87960  0.93180  1.0000 0.1303283514
H   H25       1.0  0.36060  0.72860  0.72950  1.0000 0.1303283514
H   H26       1.0  0.34080  0.84000  0.71080  1.0000 0.1122171465
H   H27       1.0  0.49490  0.71530  0.76490  1.0000 0.116662389
H   H28       1.0  0.43020  0.65460  0.85800  1.0000 0.1122171465
H   H29       1.0  0.57830  0.68170  0.88890  1.0000 0.0914092241
H   H30       1.0  0.62870  0.78810  0.90020  1.0000 0.0914092241
H   H31       1.0  0.57410  0.74850  0.05740  1.0000 0.1303283514
H   H32       1.0  0.49390  0.64030  0.03840  1.0000 0.1122171465
H   H33       1.0  0.63290  0.50290  0.17950  1.0000 0.1122171465
H   H34       1.0  0.52890  0.53270  0.10610  1.0000 0.1378447547
H   H35       1.0  0.74510  0.80810  0.09130  1.0000 0.1378447547
H   H36       1.0  0.84480  0.77120  0.16040  1.0000 0.1122171465
H   H37       1.0  0.30990  0.81130  0.98320  1.0000 0.1303283514
H   H38       1.0  0.18320  0.68140  0.87890  1.0000 0.1378447547
H   H39       1.0  0.89680  0.03860  0.46580  1.0000 0.1303283514
H   H40       1.0  0.02220  0.16720  0.57250  1.0000 0.1303283514
H   H41       1.0  0.43430  0.01450  0.08640  1.0000 0.1122171465
H   H42       1.0  0.40600  0.12040  0.06820  1.0000 0.1303283514
H   H43       1.0  0.63940  0.27140  0.27050  1.0000 0.1303283514
H   H44       1.0  0.65920  0.16000  0.28920  1.0000 0.1122171465
H   H45       1.0  0.50510  0.28470  0.23510  1.0000 0.116662389
H   H46       1.0  0.56980  0.34540  0.14200  1.0000 0.1122171465
H   H47       1.0  0.42170  0.31830  0.11110  1.0000 0.0914092241
H   H48       1.0  0.37130  0.21190  0.09980  1.0000 0.0914092241
H   H49       1.0  0.42590  0.25150  0.94260  1.0000 0.1303283514
H   H50       1.0  0.50610  0.35970  0.96160  1.0000 0.1122171465
H   H51       1.0  0.36710  0.49710  0.82050  1.0000 0.1122171465
H   H52       1.0  0.47110  0.46730  0.89390  1.0000 0.1378447547
H   H53       1.0  0.25490  0.19190  0.90870  1.0000 0.1378447547
H   H54       1.0  0.15520  0.22880  0.83960  1.0000 0.1122171465
H   H55       1.0  0.18870  0.69010  0.48320  1.0000 0.1303283514
H   H56       1.0  0.31860  0.81680  0.37890  1.0000 0.1378447547
H   H57       1.0  0.96140  0.10320  0.96580  1.0000 0.1303283514
H   H58       1.0  0.83280  0.97780  0.07250  1.0000 0.1303283514
H   H59       1.0  0.98550  0.56570  0.58640  1.0000 0.1122171465
H   H60       1.0  0.87960  0.59400  0.56820  1.0000 0.1303283514
H   H61       1.0  0.72860  0.36060  0.77050  1.0000 0.1303283514
H   H62       1.0  0.84000  0.34080  0.78920  1.0000 0.1122171465
H   H63       1.0  0.71530  0.49490  0.73510  1.0000 0.116662389
H   H64       1.0  0.65460  0.43020  0.64200  1.0000 0.1122171465
H   H65       1.0  0.68170  0.57830  0.61110  1.0000 0.0914092241
H   H66       1.0  0.78810  0.62870  0.59980  1.0000 0.0914092241
H   H67       1.0  0.74850  0.57410  0.44260  1.0000 0.1303283514
H   H68       1.0  0.64030  0.49390  0.46160  1.0000 0.1122171465
H   H69       1.0  0.50290  0.63290  0.32050  1.0000 0.1122171465
H   H70       1.0  0.53270  0.52890  0.39390  1.0000 0.1303283514
H   H71       1.0  0.80810  0.74510  0.40870  1.0000 0.1378447547
H   H72       1.0  0.77120  0.84480  0.33960  1.0000 0.1122171465
C   C1        1.0  0.80386  0.44712  0.37951  1.0000 0.5831919819
C   C2        1.0  0.74028  0.36238  0.45084  1.0000 -0.1283930683
C   C3        1.0  0.75622  0.30308  0.51380  1.0000 -0.1218338704
C   C4        1.0  0.68214  0.23102  0.57370  1.0000 -0.1283930683
C   C5        1.0  0.61083  0.23699  0.55631  1.0000 -0.1131355963
C   C6        1.0  0.52792  0.17856  0.61584  1.0000 0.5942939728
C   C7        1.0  0.01950  0.73370  0.12610  1.0000 0.6062998384
C   C8        1.0  0.08564  0.82112  0.05880  1.0000 -0.1131355963
C   C9        1.0  0.08433  0.89427  0.02110  1.0000 -0.1218338704
C   C10       1.0  0.15820  0.96620  0.96020  1.0000 -0.1283930683
C   C11       1.0  0.21460  0.94738  0.95320  1.0000 -0.1218338704
C   C12       1.0  0.29465  0.00305  0.88944  1.0000 0.5831919819
C   C13       1.0  0.06713  0.47617  0.37490  1.0000 0.1122171465
C   C14       1.0  0.13064  0.45926  0.38680  1.0000 -0.1941383757
C   C15       1.0  0.20917  0.52009  0.33300  1.0000 0.1832534172
C   C16       1.0  0.21853  0.59563  0.26760  1.0000 -0.2017529547
C   C17       1.0  0.15248  0.60764  0.25740  1.0000 0.0914092241
C   C18       1.0  0.28391  0.51049  0.33740  1.0000 -0.2568657488
C   C19       1.0  0.27717  0.42963  0.41070  1.0000 -0.1283930683
C   C20       1.0  0.30392  0.44048  0.52820  1.0000 -0.26613895
C   C21       1.0  0.43375  0.34321  0.65870  1.0000 0.0820142128
C   C22       1.0  0.41628  0.40592  0.61540  1.0000 -0.2204399012
C   C23       1.0  0.32519  0.37501  0.58530  1.0000 0.1696117729
C   C24       1.0  0.25595  0.28005  0.60610  1.0000 -0.2017529547
C   C25       1.0  0.27850  0.22070  0.64830  1.0000 0.0820142128
C   C26       1.0  0.55288  0.19614  0.87951  1.0000 0.5831919819
C   C27       1.0  0.63762  0.25972  0.95084  1.0000 -0.1283930683
C   C28       1.0  0.69692  0.24378  0.01380  1.0000 -0.1218338704
C   C29       1.0  0.76898  0.31786  0.07370  1.0000 -0.1283930683
C   C30       1.0  0.76301  0.38917  0.05631  1.0000 -0.1131355963
C   C31       1.0  0.82144  0.47208  0.11584  1.0000 0.5942939728
C   C32       1.0  0.26630  0.98050  0.62610  1.0000 0.6062998384
C   C33       1.0  0.17888  0.91436  0.55880  1.0000 -0.1131355963
C   C34       1.0  0.10573  0.91567  0.52110  1.0000 -0.1218338704
C   C35       1.0  0.03380  0.84180  0.46020  1.0000 -0.1283930683
C   C36       1.0  0.05262  0.78540  0.45320  1.0000 -0.1218338704
C   C37       1.0  0.99695  0.70535  0.38944  1.0000 0.5831919819
C   C38       1.0  0.52383  0.93287  0.87490  1.0000 0.1122171465
C   C39       1.0  0.54074  0.86936  0.88680  1.0000 -0.1941383757
C   C40       1.0  0.47991  0.79083  0.83300  1.0000 0.1832534172
C   C41       1.0  0.40437  0.78147  0.76760  1.0000 -0.2017529547
C   C42       1.0  0.39236  0.84752  0.75740  1.0000 0.0914092241
C   C43       1.0  0.48951  0.71609  0.83740  1.0000 -0.2568657488
C   C44       1.0  0.57037  0.72283  0.91070  1.0000 -0.1283930683
C   C45       1.0  0.55952  0.69608  0.02820  1.0000 -0.26613895
C   C46       1.0  0.65679  0.56625  0.15870  1.0000 0.0820142128
C   C47       1.0  0.59408  0.58372  0.11540  1.0000 -0.2204399012
C   C48       1.0  0.62499  0.67481  0.08530  1.0000 0.1696117729
C   C49       1.0  0.71995  0.74405  0.10610  1.0000 -0.2017529547
C   C50       1.0  0.77930  0.72150  0.14830  1.0000 0.0820142128
C   C51       1.0  0.44712  0.80386  0.12049  1.0000 0.5831919819
C   C52       1.0  0.36238  0.74028  0.04916  1.0000 -0.1283930683
C   C53       1.0  0.30308  0.75622  0.98620  1.0000 -0.1218338704
C   C54       1.0  0.23102  0.68214  0.92630  1.0000 -0.1283930683
C   C55       1.0  0.23699  0.61083  0.94369  1.0000 -0.1131355963
C   C56       1.0  0.17856  0.52792  0.88416  1.0000 0.5942939728
C   C57       1.0  0.73370  0.01950  0.37390  1.0000 0.6062998384
C   C58       1.0  0.82112  0.08564  0.44120  1.0000 -0.1131355963
C   C59       1.0  0.89427  0.08433  0.47890  1.0000 -0.1218338704
C   C60       1.0  0.96620  0.15820  0.53980  1.0000 -0.1218338704
C   C61       1.0  0.94738  0.21460  0.54680  1.0000 -0.1218338704
C   C62       1.0  0.00305  0.29465  0.61056  1.0000 0.5831919819
C   C63       1.0  0.47617  0.06713  0.12510  1.0000 0.1122171465
C   C64       1.0  0.45926  0.13064  0.11320  1.0000 -0.1941383757
C   C65       1.0  0.52009  0.20917  0.16700  1.0000 0.1832534172
C   C66       1.0  0.59563  0.21853  0.23240  1.0000 -0.2017529547
C   C67       1.0  0.60764  0.15248  0.24260  1.0000 0.0914092241
C   C68       1.0  0.51049  0.28391  0.16260  1.0000 -0.2568657488
C   C69       1.0  0.42963  0.27717  0.08930  1.0000 -0.1283930683
C   C70       1.0  0.44048  0.30392  0.97180  1.0000 -0.26613895
C   C71       1.0  0.34321  0.43375  0.84130  1.0000 0.0820142128
C   C72       1.0  0.40592  0.41628  0.88460  1.0000 -0.2204399012
C   C73       1.0  0.37501  0.32519  0.91470  1.0000 0.1696117729
C   C74       1.0  0.28005  0.25595  0.89390  1.0000 -0.2017529547
C   C75       1.0  0.22070  0.27850  0.85170  1.0000 0.0820142128
C   C76       1.0  0.19614  0.55288  0.62049  1.0000 0.5831919819
C   C77       1.0  0.25972  0.63762  0.54916  1.0000 -0.1283930683
C   C78       1.0  0.24378  0.69692  0.48620  1.0000 -0.1218338704
C   C79       1.0  0.31786  0.76898  0.42630  1.0000 -0.1283930683
C   C80       1.0  0.38917  0.76301  0.44369  1.0000 -0.1131355963
C   C81       1.0  0.47208  0.82144  0.38416  1.0000 0.5942939728
C   C82       1.0  0.98050  0.26630  0.87390  1.0000 0.6062998384
C   C83       1.0  0.91436  0.17888  0.94120  1.0000 -0.1131355963
C   C84       1.0  0.91567  0.10573  0.97890  1.0000 -0.1218338704
C   C85       1.0  0.84180  0.03380  0.03980  1.0000 -0.1218338704
C   C86       1.0  0.78540  0.05262  0.04680  1.0000 -0.1218338704
C   C87       1.0  0.70535  0.99695  0.11056  1.0000 0.5831919819
C   C88       1.0  0.93287  0.52383  0.62510  1.0000 0.1122171465
C   C89       1.0  0.86936  0.54074  0.61320  1.0000 -0.1941383757
C   C90       1.0  0.79083  0.47991  0.66700  1.0000 0.1832534172
C   C91       1.0  0.78147  0.40437  0.73240  1.0000 -0.2017529547
C   C92       1.0  0.84752  0.39236  0.74260  1.0000 0.0914092241
C   C93       1.0  0.71609  0.48951  0.66260  1.0000 -0.2568657488
C   C94       1.0  0.72283  0.57037  0.58930  1.0000 -0.1283930683
C   C95       1.0  0.69608  0.55952  0.47180  1.0000 -0.26613895
C   C96       1.0  0.56625  0.65679  0.34130  1.0000 0.0820142128
C   C97       1.0  0.58372  0.59408  0.38460  1.0000 -0.2204399012
C   C98       1.0  0.67481  0.62499  0.41470  1.0000 0.1696117729
C   C99       1.0  0.74405  0.71995  0.39390  1.0000 -0.2017529547
C   C100      1.0  0.72150  0.77930  0.35170  1.0000 0.0820142128
S   S1        1.0  0.63414  0.33076  0.46507  1.0000 0.1378447547
S   S2        1.0  0.17910  0.84144  0.02372  1.0000 0.1696117729
S   S3        1.0  0.66924  0.36586  0.96507  1.0000 0.1303283514
S   S4        1.0  0.15856  0.82090  0.52372  1.0000 0.1648881048
S   S5        1.0  0.33076  0.63414  0.03493  1.0000 0.1303283514
S   S6        1.0  0.84144  0.17910  0.47628  1.0000 0.1696117729
S   S7        1.0  0.36586  0.66924  0.53493  1.0000 0.1303283514
S   S8        1.0  0.82090  0.15856  0.97628  1.0000 0.1696117729
N   N1        1.0  0.07697  0.54889  0.31136  1.0000 -0.2274623454
N   N2        1.0  0.36664  0.25124  0.67270  1.0000 -0.2204399012
N   N3        1.0  0.45111  0.92303  0.81136  1.0000 -0.2274623454
N   N4        1.0  0.74876  0.63336  0.17270  1.0000 -0.2204399012
N   N5        1.0  0.54889  0.07697  0.18864  1.0000 -0.2274623454
N   N6        1.0  0.25124  0.36664  0.82730  1.0000 -0.2204399012
N   N7        1.0  0.92303  0.45111  0.68864  1.0000 -0.2274623454
N   N8        1.0  0.63336  0.74876  0.32730  1.0000 -0.2204399012
O   O1        1.0  0.88560  0.47264  0.38618  1.0000 -0.5335034519
O   O2        1.0  0.77134  0.48536  0.31810  1.0000 -0.5497277022
O   O3        1.0  0.51558  0.10830  0.67455  1.0000 -0.5371325139
O   O4        1.0  0.47869  0.20387  0.60439  1.0000 -0.5497277022
O   O5        1.0  0.04265  0.68307  0.16754  1.0000 -0.5497277022
O   O6        1.0  0.94611  0.71871  0.13679  1.0000 -0.5371325139
O   O7        1.0  0.32889  0.96547  0.88312  1.0000 -0.5335034519
O   O8        1.0  0.32099  0.08303  0.84762  1.0000 -0.5497277022
O   O9        1.0  0.52736  0.11440  0.88618  1.0000 -0.5335034519
O   O10       1.0  0.51464  0.22866  0.81810  1.0000 -0.5497277022
O   O11       1.0  0.89170  0.48442  0.17455  1.0000 -0.5371325139
O   O12       1.0  0.79613  0.52131  0.10439  1.0000 -0.5497277022
O   O13       1.0  0.31693  0.95735  0.66754  1.0000 -0.5497277022
O   O14       1.0  0.28129  0.05389  0.63679  1.0000 -0.5371325139
O   O15       1.0  0.03453  0.67111  0.38312  1.0000 -0.5335034519
O   O16       1.0  0.91697  0.67901  0.34762  1.0000 -0.5497277022
O   O17       1.0  0.47264  0.88560  0.11382  1.0000 -0.5335034519
O   O18       1.0  0.48536  0.77134  0.18190  1.0000 -0.5497277022
O   O19       1.0  0.10830  0.51558  0.82545  1.0000 -0.5371325139
O   O20       1.0  0.20387  0.47869  0.89561  1.0000 -0.5497277022
O   O21       1.0  0.68307  0.04265  0.33246  1.0000 -0.5497277022
O   O22       1.0  0.71871  0.94611  0.36321  1.0000 -0.5371325139
O   O23       1.0  0.96547  0.32889  0.61688  1.0000 -0.5335034519
O   O24       1.0  0.08303  0.32099  0.65238  1.0000 -0.5497277022
O   O25       1.0  0.11440  0.52736  0.61382  1.0000 -0.5335034519
O   O26       1.0  0.22866  0.51464  0.68190  1.0000 -0.5497277022
O   O27       1.0  0.48442  0.89170  0.32545  1.0000 -0.5371325139
O   O28       1.0  0.52131  0.79613  0.39561  1.0000 -0.5497277022
O   O29       1.0  0.95735  0.31693  0.83246  1.0000 -0.5497277022
O   O30       1.0  0.05389  0.28129  0.86321  1.0000 -0.5371325139
O   O31       1.0  0.67111  0.03453  0.11688  1.0000 -0.5371325139
O   O32       1.0  0.67901  0.91697  0.15238  1.0000 -0.5497277022
