# DDEC6 charges by PACMAN v1.1 (https://github.com/mtap-research/PACMAN-charge/)
data_2018[Co][sql]2[FSR]2
_chemical_formula_sum              "Co2 H44 C68 N4 O16"
_cell_length_a       13.9528
_cell_length_b       13.9528
_cell_length_c       13.9528
_cell_angle_alpha    143.374
_cell_angle_beta     113.067
_cell_angle_gamma    78.7929

_symmetry_space_group_name_H-M    "P 1"
_symmetry_Int_Tables_number       1

loop_
  _symmetry_equiv_pos_as_xyz
  'x, y, z'

loop_
  _atom_site_type_symbol
  _atom_site_label
  _atom_site_symmetry_multiplicity
  _atom_site_fract_x
  _atom_site_fract_y
  _atom_site_fract_z
  _atom_site_occupancy
  _atom_site_charge
Co  Co1       1.0  0.75000  0.50000  0.25000  1.0000 0.9958191624
Co  Co2       1.0  0.25000  0.50000  0.75000  1.0000 0.9958191624
H   H1        1.0  0.05250  0.07360  0.76050  1.0000 0.1290853889
H   H2        1.0  0.29450  0.32470  0.13240  1.0000 0.1290853889
H   H3        1.0  0.43990  0.22930  0.04460  1.0000 0.1378011627
H   H4        1.0  0.52630  0.15490  0.88840  1.0000 0.1538388988
H   H5        1.0  0.59270  0.05540  0.72330  1.0000 0.1290853889
H   H6        1.0  0.68690  0.92640  0.97890  1.0000 0.1290853889
H   H7        1.0  0.80770  0.67530  0.96980  1.0000 0.1290853889
H   H8        1.0  0.81530  0.77070  0.21060  1.0000 0.1378011627
H   H9        1.0  0.73350  0.84510  0.37140  1.0000 0.1538388988
H   H10       1.0  0.66790  0.94460  0.53730  1.0000 0.1290853889
H   H11       1.0  0.81310  0.29200  0.73950  1.0000 0.1290853889
H   H12       1.0  0.69230  0.16210  0.36760  1.0000 0.1290853889
H   H13       1.0  0.68470  0.39530  0.45540  1.0000 0.1378011627
H   H14       1.0  0.76650  0.63790  0.61160  1.0000 0.1538388988
H   H15       1.0  0.83210  0.86940  0.77670  1.0000 0.1290853889
H   H16       1.0  0.44750  0.70800  0.52110  1.0000 0.1290853889
H   H17       1.0  0.20550  0.83790  0.53020  1.0000 0.1290853889
H   H18       1.0  0.06010  0.60470  0.28940  1.0000 0.1378011627
H   H19       1.0  0.97370  0.36210  0.12860  1.0000 0.1538388988
H   H20       1.0  0.90730  0.13060  0.96270  1.0000 0.1290853889
H   H21       1.0  0.94750  0.92640  0.23950  1.0000 0.1290853889
H   H22       1.0  0.70550  0.67530  0.86760  1.0000 0.1290853889
H   H23       1.0  0.56010  0.77070  0.95540  1.0000 0.1378011627
H   H24       1.0  0.47370  0.84510  0.11160  1.0000 0.1538388988
H   H25       1.0  0.40730  0.94460  0.27670  1.0000 0.1290853889
H   H26       1.0  0.31310  0.07360  0.02110  1.0000 0.1290853889
H   H27       1.0  0.19230  0.32470  0.03020  1.0000 0.1290853889
H   H28       1.0  0.18470  0.22930  0.78940  1.0000 0.1378011627
H   H29       1.0  0.26650  0.15490  0.62860  1.0000 0.1538388988
H   H30       1.0  0.33210  0.05540  0.46270  1.0000 0.1290853889
H   H31       1.0  0.18690  0.70800  0.26050  1.0000 0.1290853889
H   H32       1.0  0.30770  0.83790  0.63240  1.0000 0.1290853889
H   H33       1.0  0.31530  0.60470  0.54460  1.0000 0.1378011627
H   H34       1.0  0.23350  0.36210  0.38840  1.0000 0.1538388988
H   H35       1.0  0.16790  0.13060  0.22330  1.0000 0.1290853889
H   H36       1.0  0.55250  0.29200  0.47890  1.0000 0.1290853889
H   H37       1.0  0.79450  0.16210  0.46980  1.0000 0.1290853889
H   H38       1.0  0.93990  0.39530  0.71060  1.0000 0.1378011627
H   H39       1.0  0.02630  0.63790  0.87140  1.0000 0.1538388988
H   H40       1.0  0.09270  0.86940  0.03730  1.0000 0.1290853889
H   H41       1.0  0.06100  0.69110  0.63010  1.0000 0.1290853889
H   H42       1.0  0.93900  0.30890  0.36990  1.0000 0.1290853889
H   H43       1.0  0.56100  0.43090  0.86990  1.0000 0.1290853889
H   H44       1.0  0.43900  0.56910  0.13010  1.0000 0.1290853889
C   C1        1.0  0.92956  0.78625  0.52771  1.0000 0.5452043226
C   C2        1.0  0.03935  0.86857  0.67258  1.0000 -0.0124643037
C   C3        1.0  0.08845  0.02254  0.77811  1.0000 -0.192279013
C   C4        1.0  0.40452  0.21153  0.95799  1.0000 0.0323918423
C   C5        1.0  0.45601  0.16557  0.86344  1.0000 -0.1574605593
C   C6        1.0  0.55507  0.03341  0.63366  1.0000 -0.1181431377
C   C7        1.0  0.74146  0.21375  0.14331  1.0000 0.5452043226
C   C8        1.0  0.80401  0.13143  0.17078  1.0000 -0.0124643037
C   C9        1.0  0.75557  0.97746  0.06591  1.0000 -0.192279013
C   C10       1.0  0.74646  0.78847  0.19299  1.0000 0.0323918423
C   C11       1.0  0.69787  0.83443  0.29044  1.0000 -0.1574605593
C   C12       1.0  0.60025  0.96659  0.52166  1.0000 -0.1181431377
C   C13       1.0  0.75854  0.40185  0.97229  1.0000 0.5452043226
C   C14       1.0  0.69599  0.36677  0.82742  1.0000 -0.0124643037
C   C15       1.0  0.74443  0.31034  0.72189  1.0000 -0.192279013
C   C16       1.0  0.75354  0.44653  0.54201  1.0000 0.0323918423
C   C17       1.0  0.80213  0.59257  0.63656  1.0000 -0.1574605593
C   C18       1.0  0.89975  0.92141  0.86634  1.0000 -0.1181431377
C   C19       1.0  0.57044  0.59815  0.35669  1.0000 0.5452043226
C   C20       1.0  0.46065  0.63323  0.32922  1.0000 -0.0124643037
C   C21       1.0  0.41155  0.68966  0.43409  1.0000 -0.192279013
C   C22       1.0  0.09548  0.55347  0.30701  1.0000 0.0323918423
C   C23       1.0  0.04399  0.40743  0.20956  1.0000 -0.1574605593
C   C24       1.0  0.94493  0.07859  0.97834  1.0000 -0.1181431377
C   C25       1.0  0.07044  0.21375  0.47229  1.0000 0.5452043226
C   C26       1.0  0.96065  0.13143  0.32742  1.0000 -0.0124643037
C   C27       1.0  0.91155  0.97746  0.22189  1.0000 -0.192279013
C   C28       1.0  0.59548  0.78847  0.04201  1.0000 0.0323918423
C   C29       1.0  0.54399  0.83443  0.13656  1.0000 -0.1574605593
C   C30       1.0  0.44493  0.96659  0.36634  1.0000 -0.1181431377
C   C31       1.0  0.25854  0.78625  0.85669  1.0000 0.5452043226
C   C32       1.0  0.19599  0.86857  0.82922  1.0000 -0.0124643037
C   C33       1.0  0.24443  0.02254  0.93409  1.0000 -0.192279013
C   C34       1.0  0.25354  0.21153  0.80701  1.0000 0.0323918423
C   C35       1.0  0.30213  0.16557  0.70956  1.0000 -0.1574605593
C   C36       1.0  0.39975  0.03341  0.47834  1.0000 -0.1181431377
C   C37       1.0  0.24146  0.59815  0.02771  1.0000 0.5452043226
C   C38       1.0  0.30401  0.63323  0.17258  1.0000 -0.0124643037
C   C39       1.0  0.25557  0.68966  0.27811  1.0000 -0.192279013
C   C40       1.0  0.24646  0.55347  0.45799  1.0000 0.0323918423
C   C41       1.0  0.19787  0.40743  0.36344  1.0000 -0.1574605593
C   C42       1.0  0.10025  0.07859  0.13366  1.0000 -0.1181431377
C   C43       1.0  0.42956  0.40185  0.64331  1.0000 0.5452043226
C   C44       1.0  0.53935  0.36677  0.67078  1.0000 -0.0124643037
C   C45       1.0  0.58845  0.31034  0.56591  1.0000 -0.192279013
C   C46       1.0  0.90452  0.44653  0.69299  1.0000 0.0323918423
C   C47       1.0  0.95601  0.59257  0.79044  1.0000 -0.1574605593
C   C48       1.0  0.05507  0.92141  0.02166  1.0000 -0.1181431377
C   C49       1.0  0.09356  0.79306  0.69950  1.0000 -0.1353760103
C   C50       1.0  0.19058  0.09978  0.90920  1.0000 0.0835545397
C   C51       1.0  0.24500  0.26150  0.01650  1.0000 -0.1971730927
C   C52       1.0  0.40436  0.13436  0.73000  1.0000 0.1208935229
C   C53       1.0  0.45395  0.06825  0.61430  1.0000 0.0618514975
C   C54       1.0  0.90644  0.20694  0.30050  1.0000 -0.1346356014
C   C55       1.0  0.80942  0.90022  0.09080  1.0000 0.0835545397
C   C56       1.0  0.75500  0.73850  0.98350  1.0000 -0.1971730927
C   C57       1.0  0.59564  0.86564  0.27000  1.0000 0.1208935229
C   C58       1.0  0.54605  0.93175  0.38570  1.0000 0.0618514975
C   C59       1.0  0.59356  0.39406  0.80050  1.0000 -0.1346356014
C   C60       1.0  0.69058  0.28138  0.59080  1.0000 0.0835545397
C   C61       1.0  0.74500  0.22850  0.48350  1.0000 -0.1971730927
C   C62       1.0  0.90436  0.67436  0.77000  1.0000 0.1208935229
C   C63       1.0  0.95395  0.83965  0.88570  1.0000 0.0618514975
C   C64       1.0  0.40644  0.60594  0.19950  1.0000 -0.1346356014
C   C65       1.0  0.30942  0.71862  0.40920  1.0000 0.0835545397
C   C66       1.0  0.25500  0.77150  0.51650  1.0000 -0.1971730927
C   C67       1.0  0.09564  0.32564  0.23000  1.0000 0.1208935229
C   C68       1.0  0.04605  0.16035  0.11430  1.0000 0.0618514975
N   N1        1.0  0.30366  0.23136  0.92770  1.0000 0.0887668876
N   N2        1.0  0.69634  0.76864  0.07230  1.0000 0.0887668876
N   N3        1.0  0.80366  0.37596  0.57230  1.0000 0.0887668876
N   N4        1.0  0.19634  0.62404  0.42770  1.0000 0.0887668876
O   O1        1.0  0.88284  0.66243  0.45701  1.0000 -0.5599622169
O   O2        1.0  0.89527  0.83840  0.48407  1.0000 -0.5412169734
O   O3        1.0  0.79458  0.33757  0.22041  1.0000 -0.5599622169
O   O4        1.0  0.64567  0.16160  0.05687  1.0000 -0.5412169734
O   O5        1.0  0.70542  0.42583  0.04299  1.0000 -0.5599622169
O   O6        1.0  0.85433  0.41120  0.01593  1.0000 -0.5412169734
O   O7        1.0  0.61716  0.57417  0.27959  1.0000 -0.5599622169
O   O8        1.0  0.60473  0.58880  0.44313  1.0000 -0.5412169734
O   O9        1.0  0.11716  0.33757  0.54299  1.0000 -0.5599622169
O   O10       1.0  0.10473  0.16160  0.51593  1.0000 -0.5412169734
O   O11       1.0  0.20542  0.66243  0.77959  1.0000 -0.5599622169
O   O12       1.0  0.35433  0.83840  0.94313  1.0000 -0.5412169734
O   O13       1.0  0.29458  0.57417  0.95701  1.0000 -0.5599622169
O   O14       1.0  0.14567  0.58880  0.98407  1.0000 -0.5412169734
O   O15       1.0  0.38284  0.42583  0.72041  1.0000 -0.5599622169
O   O16       1.0  0.39527  0.41120  0.55687  1.0000 -0.5412169734
