# DDEC6 charges by PACMAN v1.1 (https://github.com/mtap-research/PACMAN-charge/)
data_2018[Cd][nan]2[FSR]2
_chemical_formula_sum              "Cd4 H72 C104 N16 O28"
_cell_length_a       13.5021
_cell_length_b       13.5021
_cell_length_c       16.7804
_cell_angle_alpha    67.0668
_cell_angle_beta     112.933
_cell_angle_gamma    107.049

_symmetry_space_group_name_H-M    "P 1"
_symmetry_Int_Tables_number       1

loop_
  _symmetry_equiv_pos_as_xyz
  'x, y, z'

loop_
  _atom_site_type_symbol
  _atom_site_label
  _atom_site_symmetry_multiplicity
  _atom_site_fract_x
  _atom_site_fract_y
  _atom_site_fract_z
  _atom_site_occupancy
  _atom_site_charge
Cd  Cd1       1.0  0.21121  0.60841  0.95852  1.0000 0.8031785119
Cd  Cd2       1.0  0.60841  0.21121  0.54148  1.0000 0.8031785119
Cd  Cd3       1.0  0.78879  0.39159  0.04148  1.0000 0.8031785119
Cd  Cd4       1.0  0.39159  0.78879  0.45852  1.0000 0.8031785119
H   H1        1.0  0.48430  0.50410  0.88450  1.0000 0.3519008387
H   H2        1.0  0.28010  0.02830  0.87080  1.0000 0.2868645307
H   H3        1.0  0.08530  0.36390  0.90170  1.0000 0.2868645307
H   H4        1.0  0.45360  0.33720  0.21400  1.0000 0.1193976138
H   H5        1.0  0.47410  0.16190  0.30870  1.0000 0.1106330434
H   H6        1.0  0.16880  0.05120  0.17680  1.0000 0.1372217093
H   H7        1.0  0.15020  0.22580  0.07840  1.0000 0.1193976138
H   H8        1.0  0.45530  0.68270  0.92680  1.0000 0.1106330434
H   H9        1.0  0.57750  0.84010  0.89660  1.0000 0.1193976138
H   H10       1.0  0.53500  0.00740  0.86960  1.0000 0.1372217093
H   H11       1.0  0.25310  0.84610  0.91630  1.0000 0.1193976138
H   H12       1.0  0.48110  0.33910  0.86940  1.0000 0.1372217093
H   H13       1.0  0.22140  0.43680  0.85910  1.0000 0.1324605523
H   H14       1.0  0.19920  0.13000  0.86620  1.0000 0.1193976138
H   H15       1.0  0.97450  0.36550  0.98060  1.0000 0.1324605523
H   H16       1.0  0.67590  0.22750  0.78160  1.0000 0.1372217093
H   H17       1.0  0.65800  0.29600  0.87950  1.0000 0.1106330434
H   H18       1.0  0.84800  0.23160  0.77930  1.0000 0.1324605523
H   H19       1.0  0.50410  0.48430  0.61550  1.0000 0.3519008387
H   H20       1.0  0.02830  0.28010  0.62920  1.0000 0.2868645307
H   H21       1.0  0.36390  0.08530  0.59830  1.0000 0.2868645307
H   H22       1.0  0.33720  0.45360  0.28600  1.0000 0.1193976138
H   H23       1.0  0.16190  0.47410  0.19130  1.0000 0.1106330434
H   H24       1.0  0.05120  0.16880  0.32320  1.0000 0.1372217093
H   H25       1.0  0.22580  0.15020  0.42160  1.0000 0.1193976138
H   H26       1.0  0.68270  0.45530  0.57320  1.0000 0.1106330434
H   H27       1.0  0.84010  0.57750  0.60340  1.0000 0.1193976138
H   H28       1.0  0.00740  0.53500  0.63040  1.0000 0.1372217093
H   H29       1.0  0.84610  0.25310  0.58370  1.0000 0.1193976138
H   H30       1.0  0.33910  0.48110  0.63060  1.0000 0.1372217093
H   H31       1.0  0.43680  0.22140  0.64090  1.0000 0.1324605523
H   H32       1.0  0.13000  0.19920  0.63380  1.0000 0.1193976138
H   H33       1.0  0.36550  0.97450  0.51940  1.0000 0.1324605523
H   H34       1.0  0.22750  0.67590  0.71840  1.0000 0.1372217093
H   H35       1.0  0.29600  0.65800  0.62050  1.0000 0.1106330434
H   H36       1.0  0.23160  0.84800  0.72070  1.0000 0.1324605523
H   H37       1.0  0.51570  0.49590  0.11550  1.0000 0.3519008387
H   H38       1.0  0.71990  0.97170  0.12920  1.0000 0.2868645307
H   H39       1.0  0.91470  0.63610  0.09830  1.0000 0.2868645307
H   H40       1.0  0.54640  0.66280  0.78600  1.0000 0.1193976138
H   H41       1.0  0.52590  0.83810  0.69130  1.0000 0.1106330434
H   H42       1.0  0.83120  0.94880  0.82320  1.0000 0.1372217093
H   H43       1.0  0.84980  0.77420  0.92160  1.0000 0.1193976138
H   H44       1.0  0.54470  0.31730  0.07320  1.0000 0.1106330434
H   H45       1.0  0.42250  0.15990  0.10340  1.0000 0.1193976138
H   H46       1.0  0.46500  0.99260  0.13040  1.0000 0.1372217093
H   H47       1.0  0.74690  0.15390  0.08370  1.0000 0.1193976138
H   H48       1.0  0.51890  0.66090  0.13060  1.0000 0.1372217093
H   H49       1.0  0.77860  0.56320  0.14090  1.0000 0.1324605523
H   H50       1.0  0.80080  0.87000  0.13380  1.0000 0.1193976138
H   H51       1.0  0.02550  0.63450  0.01940  1.0000 0.1324605523
H   H52       1.0  0.32410  0.77250  0.21840  1.0000 0.1372217093
H   H53       1.0  0.34200  0.70400  0.12050  1.0000 0.1106330434
H   H54       1.0  0.15200  0.76840  0.22070  1.0000 0.1324605523
H   H55       1.0  0.49590  0.51570  0.38450  1.0000 0.3519008387
H   H56       1.0  0.97170  0.71990  0.37080  1.0000 0.2868645307
H   H57       1.0  0.63610  0.91470  0.40170  1.0000 0.2868645307
H   H58       1.0  0.66280  0.54640  0.71400  1.0000 0.1193976138
H   H59       1.0  0.83810  0.52590  0.80870  1.0000 0.1106330434
H   H60       1.0  0.94880  0.83120  0.67680  1.0000 0.1372217093
H   H61       1.0  0.77420  0.84980  0.57840  1.0000 0.1193976138
H   H62       1.0  0.31730  0.54470  0.42680  1.0000 0.1106330434
H   H63       1.0  0.15990  0.42250  0.39660  1.0000 0.1193976138
H   H64       1.0  0.99260  0.46500  0.36960  1.0000 0.1372217093
H   H65       1.0  0.15390  0.74690  0.41630  1.0000 0.1193976138
H   H66       1.0  0.66090  0.51890  0.36940  1.0000 0.1372217093
H   H67       1.0  0.56320  0.77860  0.35910  1.0000 0.1324605523
H   H68       1.0  0.87000  0.80080  0.36620  1.0000 0.1193976138
H   H69       1.0  0.63450  0.02550  0.48060  1.0000 0.1324605523
H   H70       1.0  0.77250  0.32410  0.28160  1.0000 0.1372217093
H   H71       1.0  0.70400  0.34200  0.37950  1.0000 0.1106330434
H   H72       1.0  0.76840  0.15200  0.27930  1.0000 0.1324605523
C   C1        1.0  0.28522  0.41356  0.07398  1.0000 0.5528459777
C   C2        1.0  0.29977  0.29941  0.13576  1.0000 -0.028355559
C   C3        1.0  0.39655  0.27971  0.20564  1.0000 -0.1186767216
C   C4        1.0  0.40829  0.17473  0.26297  1.0000 -0.1186767216
C   C5        1.0  0.32364  0.08880  0.25322  1.0000 -0.0114140548
C   C6        1.0  0.33625  0.97603  0.31855  1.0000 0.5240563382
C   C7        1.0  0.22651  0.10835  0.18396  1.0000 -0.1042833101
C   C8        1.0  0.21528  0.21320  0.12530  1.0000 -0.1055644076
C   C9        1.0  0.43785  0.74877  0.91795  1.0000 0.0560444011
C   C10       1.0  0.51093  0.84329  0.89905  1.0000 -0.1186767216
C   C11       1.0  0.48653  0.94321  0.88370  1.0000 -0.1276165243
C   C12       1.0  0.38706  0.94442  0.89000  1.0000 0.1937328171
C   C13       1.0  0.31894  0.84586  0.91092  1.0000 -0.028355559
C   C14       1.0  0.40652  0.13820  0.87393  1.0000 0.4566312287
C   C15       1.0  0.34806  0.22082  0.86835  1.0000 -0.019489009
C   C16       1.0  0.40881  0.32385  0.86818  1.0000 -0.2382206192
C   C17       1.0  0.36208  0.40372  0.86621  1.0000 0.3036416997
C   C18       1.0  0.25320  0.38258  0.86198  1.0000 -0.2382206192
C   C19       1.0  0.19255  0.27987  0.86207  1.0000 -0.0114140548
C   C20       1.0  0.24005  0.19883  0.86565  1.0000 -0.1902054619
C   C21       1.0  0.07474  0.24960  0.85768  1.0000 0.4534393479
C   C22       1.0  0.93020  0.30148  0.87996  1.0000 0.1937328171
C   C23       1.0  0.91392  0.33826  0.93930  1.0000 -0.019489009
C   C24       1.0  0.73782  0.25624  0.82095  1.0000 -0.1186767216
C   C25       1.0  0.72751  0.29655  0.88050  1.0000 0.0514503647
C   C26       1.0  0.83981  0.25827  0.81943  1.0000 -0.1186767216
C   C27       1.0  0.41356  0.28522  0.42602  1.0000 0.5528459777
C   C28       1.0  0.29941  0.29977  0.36424  1.0000 -0.028355559
C   C29       1.0  0.27971  0.39655  0.29436  1.0000 -0.1186767216
C   C30       1.0  0.17473  0.40829  0.23703  1.0000 -0.1186767216
C   C31       1.0  0.08880  0.32364  0.24678  1.0000 -0.0114140548
C   C32       1.0  0.97603  0.33625  0.18145  1.0000 0.5240563382
C   C33       1.0  0.10835  0.22651  0.31604  1.0000 -0.1042833101
C   C34       1.0  0.21320  0.21528  0.37470  1.0000 -0.1055644076
C   C35       1.0  0.74877  0.43785  0.58205  1.0000 0.0560444011
C   C36       1.0  0.84329  0.51093  0.60095  1.0000 -0.1186767216
C   C37       1.0  0.94321  0.48653  0.61630  1.0000 -0.1276165243
C   C38       1.0  0.94442  0.38706  0.61000  1.0000 0.1937328171
C   C39       1.0  0.84586  0.31894  0.58908  1.0000 -0.028355559
C   C40       1.0  0.13820  0.40652  0.62607  1.0000 0.4566312287
C   C41       1.0  0.22082  0.34806  0.63165  1.0000 -0.019489009
C   C42       1.0  0.32385  0.40881  0.63182  1.0000 -0.2382206192
C   C43       1.0  0.40372  0.36208  0.63379  1.0000 0.3036416997
C   C44       1.0  0.38258  0.25320  0.63802  1.0000 -0.2382206192
C   C45       1.0  0.27987  0.19255  0.63793  1.0000 -0.0114140548
C   C46       1.0  0.19883  0.24005  0.63435  1.0000 -0.1902054619
C   C47       1.0  0.24960  0.07474  0.64232  1.0000 0.4534393479
C   C48       1.0  0.30148  0.93020  0.62004  1.0000 0.1937328171
C   C49       1.0  0.33826  0.91392  0.56070  1.0000 -0.019489009
C   C50       1.0  0.25624  0.73782  0.67905  1.0000 -0.1186767216
C   C51       1.0  0.29655  0.72751  0.61950  1.0000 0.0514503647
C   C52       1.0  0.25827  0.83981  0.68057  1.0000 -0.1186767216
C   C53       1.0  0.71478  0.58644  0.92602  1.0000 0.5528459777
C   C54       1.0  0.70023  0.70059  0.86424  1.0000 -0.028355559
C   C55       1.0  0.60345  0.72029  0.79436  1.0000 -0.1186767216
C   C56       1.0  0.59171  0.82527  0.73703  1.0000 -0.1186767216
C   C57       1.0  0.67636  0.91120  0.74678  1.0000 -0.0114140548
C   C58       1.0  0.66375  0.02397  0.68145  1.0000 0.5240563382
C   C59       1.0  0.77349  0.89165  0.81604  1.0000 -0.1042833101
C   C60       1.0  0.78472  0.78680  0.87470  1.0000 -0.1055644076
C   C61       1.0  0.56215  0.25123  0.08205  1.0000 0.0560444011
C   C62       1.0  0.48907  0.15671  0.10095  1.0000 -0.1186767216
C   C63       1.0  0.51347  0.05679  0.11630  1.0000 -0.1276165243
C   C64       1.0  0.61294  0.05558  0.11000  1.0000 0.1937328171
C   C65       1.0  0.68106  0.15414  0.08908  1.0000 -0.028355559
C   C66       1.0  0.59348  0.86180  0.12607  1.0000 0.4566312287
C   C67       1.0  0.65194  0.77918  0.13165  1.0000 -0.019489009
C   C68       1.0  0.59119  0.67615  0.13182  1.0000 -0.2382206192
C   C69       1.0  0.63792  0.59628  0.13379  1.0000 0.3036416997
C   C70       1.0  0.74680  0.61742  0.13802  1.0000 -0.2382206192
C   C71       1.0  0.80745  0.72013  0.13793  1.0000 -0.0114140548
C   C72       1.0  0.75995  0.80117  0.13435  1.0000 -0.1902054619
C   C73       1.0  0.92526  0.75040  0.14232  1.0000 0.4534393479
C   C74       1.0  0.06980  0.69852  0.12004  1.0000 0.1937328171
C   C75       1.0  0.08608  0.66174  0.06070  1.0000 -0.019489009
C   C76       1.0  0.26218  0.74376  0.17905  1.0000 -0.1186767216
C   C77       1.0  0.27249  0.70345  0.11950  1.0000 0.0514503647
C   C78       1.0  0.16019  0.74173  0.18057  1.0000 -0.1186767216
C   C79       1.0  0.58644  0.71478  0.57398  1.0000 0.5528459777
C   C80       1.0  0.70059  0.70023  0.63576  1.0000 -0.028355559
C   C81       1.0  0.72029  0.60345  0.70564  1.0000 -0.1186767216
C   C82       1.0  0.82527  0.59171  0.76297  1.0000 -0.1186767216
C   C83       1.0  0.91120  0.67636  0.75322  1.0000 -0.0114140548
C   C84       1.0  0.02397  0.66375  0.81855  1.0000 0.5240563382
C   C85       1.0  0.89165  0.77349  0.68396  1.0000 -0.1042833101
C   C86       1.0  0.78680  0.78472  0.62530  1.0000 -0.1055644076
C   C87       1.0  0.25123  0.56215  0.41795  1.0000 0.0560444011
C   C88       1.0  0.15671  0.48907  0.39905  1.0000 -0.1186767216
C   C89       1.0  0.05679  0.51347  0.38370  1.0000 -0.1276165243
C   C90       1.0  0.05558  0.61294  0.39000  1.0000 0.1937328171
C   C91       1.0  0.15414  0.68106  0.41092  1.0000 -0.028355559
C   C92       1.0  0.86180  0.59348  0.37393  1.0000 0.4566312287
C   C93       1.0  0.77918  0.65194  0.36835  1.0000 -0.019489009
C   C94       1.0  0.67615  0.59119  0.36818  1.0000 -0.2382206192
C   C95       1.0  0.59628  0.63792  0.36621  1.0000 0.3036416997
C   C96       1.0  0.61742  0.74680  0.36198  1.0000 -0.2382206192
C   C97       1.0  0.72013  0.80745  0.36207  1.0000 -0.0114140548
C   C98       1.0  0.80117  0.75995  0.36565  1.0000 -0.1902054619
C   C99       1.0  0.75040  0.92526  0.35768  1.0000 0.4534393479
C   C100      1.0  0.69852  0.06980  0.37996  1.0000 0.1937328171
C   C101      1.0  0.66174  0.08608  0.43930  1.0000 -0.019489009
C   C102      1.0  0.74376  0.26218  0.32095  1.0000 -0.1186767216
C   C103      1.0  0.70345  0.27249  0.38050  1.0000 0.0514503647
C   C104      1.0  0.74173  0.16019  0.31943  1.0000 -0.1186767216
N   N1        1.0  0.34246  0.74982  0.92382  1.0000 -0.2298765216
N   N2        1.0  0.34818  0.03678  0.87724  1.0000 -0.3582488667
N   N3        1.0  0.03841  0.31267  0.88264  1.0000 -0.3674373026
N   N4        1.0  0.81391  0.33637  0.93971  1.0000 -0.2382206192
N   N5        1.0  0.74982  0.34246  0.57618  1.0000 -0.2298765216
N   N6        1.0  0.03678  0.34818  0.62276  1.0000 -0.3582488667
N   N7        1.0  0.31267  0.03841  0.61736  1.0000 -0.3674373026
N   N8        1.0  0.33637  0.81391  0.56029  1.0000 -0.2382206192
N   N9        1.0  0.65754  0.25018  0.07618  1.0000 -0.2298765216
N   N10       1.0  0.65182  0.96322  0.12276  1.0000 -0.3582488667
N   N11       1.0  0.96159  0.68733  0.11736  1.0000 -0.3674373026
N   N12       1.0  0.18609  0.66363  0.06029  1.0000 -0.2382206192
N   N13       1.0  0.25018  0.65754  0.42382  1.0000 -0.2298765216
N   N14       1.0  0.96322  0.65182  0.37724  1.0000 -0.3582488667
N   N15       1.0  0.68733  0.96159  0.38264  1.0000 -0.3674373026
N   N16       1.0  0.66363  0.18609  0.43971  1.0000 -0.2382206192
O   O1        1.0  0.36104  0.49206  0.08133  1.0000 -0.5497319471
O   O2        1.0  0.19229  0.42745  0.01545  1.0000 -0.5413076054
O   O3        1.0  0.25444  0.91032  0.33308  1.0000 -0.5216646861
O   O4        1.0  0.42799  0.95145  0.35926  1.0000 -0.5029817294
O   O5        1.0  0.50127  0.16105  0.87653  1.0000 -0.4536277051
O   O6        1.0  0.41876  0.50496  0.86812  1.0000 -0.4536277051
O   O7        1.0  0.01610  0.17234  0.83308  1.0000 -0.4568026136
O   O8        1.0  0.49206  0.36104  0.41867  1.0000 -0.5497319471
O   O9        1.0  0.42745  0.19229  0.48455  1.0000 -0.5413076054
O   O10       1.0  0.91032  0.25444  0.16692  1.0000 -0.5216646861
O   O11       1.0  0.95145  0.42799  0.14074  1.0000 -0.5029817294
O   O12       1.0  0.16105  0.50127  0.62347  1.0000 -0.4536277051
O   O13       1.0  0.50496  0.41876  0.63188  1.0000 -0.4536277051
O   O14       1.0  0.17234  0.01610  0.66692  1.0000 -0.4568026136
O   O15       1.0  0.63896  0.50794  0.91867  1.0000 -0.5497319471
O   O16       1.0  0.80771  0.57255  0.98455  1.0000 -0.5413076054
O   O17       1.0  0.74556  0.08968  0.66692  1.0000 -0.5216646861
O   O18       1.0  0.57201  0.04855  0.64074  1.0000 -0.5029817294
O   O19       1.0  0.49873  0.83895  0.12347  1.0000 -0.4536277051
O   O20       1.0  0.58124  0.49504  0.13188  1.0000 -0.4536277051
O   O21       1.0  0.98390  0.82766  0.16692  1.0000 -0.4568026136
O   O22       1.0  0.50794  0.63896  0.58133  1.0000 -0.5497319471
O   O23       1.0  0.57255  0.80771  0.51545  1.0000 -0.5413076054
O   O24       1.0  0.08968  0.74556  0.83308  1.0000 -0.5216646861
O   O25       1.0  0.04855  0.57201  0.85926  1.0000 -0.5029817294
O   O26       1.0  0.83895  0.49873  0.37653  1.0000 -0.4536277051
O   O27       1.0  0.49504  0.58124  0.36812  1.0000 -0.4536277051
O   O28       1.0  0.82766  0.98390  0.33308  1.0000 -0.4568026136
