# DDEC6 charges by PACMAN v1.1 (https://github.com/mtap-research/PACMAN-charge/)
data_2018[Cu][nan]3[FSR]12
_chemical_formula_sum              "Cu4 H72 C96 N24 O24"
_cell_length_a       14.6044
_cell_length_b       14.6044
_cell_length_c       18.9
_cell_angle_alpha    82.3493
_cell_angle_beta     97.6507
_cell_angle_gamma    136.19

_symmetry_space_group_name_H-M    "P 1"
_symmetry_Int_Tables_number       1

loop_
  _symmetry_equiv_pos_as_xyz
  'x, y, z'

loop_
  _atom_site_type_symbol
  _atom_site_label
  _atom_site_symmetry_multiplicity
  _atom_site_fract_x
  _atom_site_fract_y
  _atom_site_fract_z
  _atom_site_occupancy
  _atom_site_charge
Cu  Cu1       1.0  0.77235  0.03643  0.93625  1.0000 0.7870980464
Cu  Cu2       1.0  0.03643  0.77235  0.56375  1.0000 0.7870980464
Cu  Cu3       1.0  0.22765  0.96357  0.06375  1.0000 0.7870980464
Cu  Cu4       1.0  0.96357  0.22765  0.43625  1.0000 0.7870980464
H   H1        1.0  0.95770  0.00210  0.91850  1.0000 0.1139349527
H   H2        1.0  0.94520  0.83500  0.93220  1.0000 0.1505282782
H   H3        1.0  0.59070  0.59990  0.01120  1.0000 0.1295856101
H   H4        1.0  0.61010  0.77030  0.99370  1.0000 0.1211372553
H   H5        1.0  0.57180  0.03200  0.94410  1.0000 0.1211372553
H   H6        1.0  0.54650  0.16550  0.96090  1.0000 0.1505282782
H   H7        1.0  0.93450  0.47970  0.92970  1.0000 0.138225872
H   H8        1.0  0.94650  0.33410  0.91720  1.0000 0.1295856101
H   H9        1.0  0.85110  0.11170  0.21510  1.0000 0.1295856101
H   H10       1.0  0.57140  0.77080  0.11680  1.0000 0.138225872
H   H11       1.0  0.60920  0.76460  0.33070  1.0000 0.138225872
H   H12       1.0  0.18320  0.32840  0.29940  1.0000 0.138225872
H   H13       1.0  0.03520  0.10980  0.27380  1.0000 0.1211372553
H   H14       1.0  0.51960  0.56140  0.30970  1.0000 0.1139349527
H   H15       1.0  0.39810  0.53870  0.31680  1.0000 0.1211372553
H   H16       1.0  0.87820  0.56580  0.87270  1.0000 0.2681044899
H   H17       1.0  0.81840  0.61280  0.84870  1.0000 0.2750281654
H   H18       1.0  0.53030  0.89170  0.86100  1.0000 0.3490630872
H   H19       1.0  0.00210  0.95770  0.58150  1.0000 0.1139349527
H   H20       1.0  0.83500  0.94520  0.56780  1.0000 0.1505282782
H   H21       1.0  0.59990  0.59070  0.48880  1.0000 0.1295856101
H   H22       1.0  0.77030  0.61010  0.50630  1.0000 0.1211372553
H   H23       1.0  0.03200  0.57180  0.55590  1.0000 0.1211372553
H   H24       1.0  0.16550  0.54650  0.53910  1.0000 0.1505282782
H   H25       1.0  0.47970  0.93450  0.57030  1.0000 0.138225872
H   H26       1.0  0.33410  0.94650  0.58280  1.0000 0.1295856101
H   H27       1.0  0.11170  0.85110  0.28490  1.0000 0.1295856101
H   H28       1.0  0.77080  0.57140  0.38320  1.0000 0.138225872
H   H29       1.0  0.76460  0.60920  0.16930  1.0000 0.138225872
H   H30       1.0  0.32840  0.18320  0.20060  1.0000 0.138225872
H   H31       1.0  0.10980  0.03520  0.22620  1.0000 0.1211372553
H   H32       1.0  0.56140  0.51960  0.19030  1.0000 0.1139349527
H   H33       1.0  0.53870  0.39810  0.18320  1.0000 0.1211372553
H   H34       1.0  0.56580  0.87820  0.62730  1.0000 0.2681044899
H   H35       1.0  0.61280  0.81840  0.65130  1.0000 0.2750281654
H   H36       1.0  0.89170  0.53030  0.63900  1.0000 0.3490630872
H   H37       1.0  0.04230  0.99790  0.08150  1.0000 0.1139349527
H   H38       1.0  0.05480  0.16500  0.06780  1.0000 0.1505282782
H   H39       1.0  0.40930  0.40010  0.98880  1.0000 0.1295856101
H   H40       1.0  0.38990  0.22970  0.00630  1.0000 0.1211372553
H   H41       1.0  0.42820  0.96800  0.05590  1.0000 0.1211372553
H   H42       1.0  0.45350  0.83450  0.03910  1.0000 0.1505282782
H   H43       1.0  0.06550  0.52030  0.07030  1.0000 0.138225872
H   H44       1.0  0.05350  0.66590  0.08280  1.0000 0.1295856101
H   H45       1.0  0.14890  0.88830  0.78490  1.0000 0.1295856101
H   H46       1.0  0.42860  0.22920  0.88320  1.0000 0.138225872
H   H47       1.0  0.39080  0.23540  0.66930  1.0000 0.138225872
H   H48       1.0  0.81680  0.67160  0.70060  1.0000 0.138225872
H   H49       1.0  0.96480  0.89020  0.72620  1.0000 0.1211372553
H   H50       1.0  0.48040  0.43860  0.69030  1.0000 0.1139349527
H   H51       1.0  0.60190  0.46130  0.68320  1.0000 0.1211372553
H   H52       1.0  0.12180  0.43420  0.12730  1.0000 0.2681044899
H   H53       1.0  0.18160  0.38720  0.15130  1.0000 0.2750281654
H   H54       1.0  0.46970  0.10830  0.13900  1.0000 0.3490630872
H   H55       1.0  0.99790  0.04230  0.41850  1.0000 0.1139349527
H   H56       1.0  0.16500  0.05480  0.43220  1.0000 0.1505282782
H   H57       1.0  0.40010  0.40930  0.51120  1.0000 0.1295856101
H   H58       1.0  0.22970  0.38990  0.49370  1.0000 0.1211372553
H   H59       1.0  0.96800  0.42820  0.44410  1.0000 0.1211372553
H   H60       1.0  0.83450  0.45350  0.46090  1.0000 0.1505282782
H   H61       1.0  0.52030  0.06550  0.42970  1.0000 0.138225872
H   H62       1.0  0.66590  0.05350  0.41720  1.0000 0.1295856101
H   H63       1.0  0.88830  0.14890  0.71510  1.0000 0.1295856101
H   H64       1.0  0.22920  0.42860  0.61680  1.0000 0.138225872
H   H65       1.0  0.23540  0.39080  0.83070  1.0000 0.138225872
H   H66       1.0  0.67160  0.81680  0.79940  1.0000 0.138225872
H   H67       1.0  0.89020  0.96480  0.77380  1.0000 0.1211372553
H   H68       1.0  0.43860  0.48040  0.80970  1.0000 0.1139349527
H   H69       1.0  0.46130  0.60190  0.81680  1.0000 0.1211372553
H   H70       1.0  0.43420  0.12180  0.37270  1.0000 0.2681044899
H   H71       1.0  0.38720  0.18160  0.34870  1.0000 0.2750281654
H   H72       1.0  0.10830  0.46970  0.36100  1.0000 0.3490630872
C   C1        1.0  0.88165  0.91935  0.93650  1.0000 0.0800176616
C   C2        1.0  0.87496  0.81904  0.94450  1.0000 -0.1588364728
C   C3        1.0  0.76281  0.69499  0.97070  1.0000 0.0905787423
C   C4        1.0  0.66562  0.68038  0.99070  1.0000 -0.1588364728
C   C5        1.0  0.67845  0.78375  0.98070  1.0000 0.1022797785
C   C6        1.0  0.64604  0.12316  0.94260  1.0000 0.0905787423
C   C7        1.0  0.62947  0.20253  0.95300  1.0000 -0.1497510535
C   C8        1.0  0.73991  0.33889  0.95110  1.0000 0.0905787423
C   C9        1.0  0.85979  0.38881  0.93480  1.0000 -0.2003646637
C   C10       1.0  0.86535  0.30025  0.92640  1.0000 0.0905787423
C   C11       1.0  0.73901  0.94979  0.28350  1.0000 0.0064908173
C   C12       1.0  0.80119  0.02301  0.35050  1.0000 0.5366517864
C   C13       1.0  0.76949  0.02951  0.08330  1.0000 0.545673009
C   C14       1.0  0.72078  0.95342  0.15470  1.0000 0.0031433102
C   C15       1.0  0.78137  0.01963  0.21710  1.0000 -0.1497510535
C   C16       1.0  0.61523  0.81597  0.15860  1.0000 -0.2102047483
C   C17       1.0  0.63616  0.81184  0.28660  1.0000 -0.2250283696
C   C18       1.0  0.57457  0.74563  0.22430  1.0000 0.2536717392
C   C19       1.0  0.34570  0.38930  0.26520  1.0000 0.0394301377
C   C20       1.0  0.21282  0.29918  0.27930  1.0000 -0.1497510535
C   C21       1.0  0.12400  0.16820  0.26450  1.0000 -0.0942098014
C   C22       1.0  0.43960  0.53140  0.28530  1.0000 -0.0656648856
C   C23       1.0  0.73749  0.57671  0.98280  1.0000 0.2041999064
C   C24       1.0  0.72476  0.42144  0.97250  1.0000 0.1659407876
C   C25       1.0  0.91935  0.88165  0.56350  1.0000 0.0800176616
C   C26       1.0  0.81904  0.87496  0.55550  1.0000 -0.1588364728
C   C27       1.0  0.69499  0.76281  0.52930  1.0000 0.0905787423
C   C28       1.0  0.68038  0.66562  0.50930  1.0000 -0.1588364728
C   C29       1.0  0.78375  0.67845  0.51930  1.0000 0.1022797785
C   C30       1.0  0.12316  0.64604  0.55740  1.0000 0.0905787423
C   C31       1.0  0.20253  0.62947  0.54700  1.0000 -0.1497510535
C   C32       1.0  0.33889  0.73991  0.54890  1.0000 0.0905787423
C   C33       1.0  0.38881  0.85979  0.56520  1.0000 -0.2003646637
C   C34       1.0  0.30025  0.86535  0.57360  1.0000 0.0905787423
C   C35       1.0  0.94979  0.73901  0.21650  1.0000 0.0064908173
C   C36       1.0  0.02301  0.80119  0.14950  1.0000 0.5366517864
C   C37       1.0  0.02951  0.76949  0.41670  1.0000 0.545673009
C   C38       1.0  0.95342  0.72078  0.34530  1.0000 0.0031433102
C   C39       1.0  0.01963  0.78137  0.28290  1.0000 -0.1497510535
C   C40       1.0  0.81597  0.61523  0.34140  1.0000 -0.2102047483
C   C41       1.0  0.81184  0.63616  0.21340  1.0000 -0.224486474
C   C42       1.0  0.74563  0.57457  0.27570  1.0000 0.2536717392
C   C43       1.0  0.38930  0.34570  0.23480  1.0000 0.0394301377
C   C44       1.0  0.29918  0.21282  0.22070  1.0000 -0.1497510535
C   C45       1.0  0.16820  0.12400  0.23550  1.0000 -0.0942098014
C   C46       1.0  0.53140  0.43960  0.21470  1.0000 -0.0656648856
C   C47       1.0  0.57671  0.73749  0.51720  1.0000 0.2041999064
C   C48       1.0  0.42144  0.72476  0.52750  1.0000 0.1659407876
C   C49       1.0  0.11835  0.08065  0.06350  1.0000 0.0800176616
C   C50       1.0  0.12504  0.18096  0.05550  1.0000 -0.1588364728
C   C51       1.0  0.23719  0.30501  0.02930  1.0000 0.0905787423
C   C52       1.0  0.33438  0.31962  0.00930  1.0000 -0.1588364728
C   C53       1.0  0.32155  0.21625  0.01930  1.0000 0.1022797785
C   C54       1.0  0.35396  0.87684  0.05740  1.0000 0.0905787423
C   C55       1.0  0.37053  0.79747  0.04700  1.0000 -0.1497510535
C   C56       1.0  0.26009  0.66111  0.04890  1.0000 0.0905787423
C   C57       1.0  0.14021  0.61119  0.06520  1.0000 -0.2003646637
C   C58       1.0  0.13465  0.69975  0.07360  1.0000 0.0905787423
C   C59       1.0  0.26099  0.05021  0.71650  1.0000 0.0064908173
C   C60       1.0  0.19881  0.97699  0.64950  1.0000 0.5366517864
C   C61       1.0  0.23051  0.97049  0.91670  1.0000 0.545673009
C   C62       1.0  0.27922  0.04658  0.84530  1.0000 0.0031433102
C   C63       1.0  0.21863  0.98037  0.78290  1.0000 -0.1497510535
C   C64       1.0  0.38477  0.18403  0.84140  1.0000 -0.2102047483
C   C65       1.0  0.36384  0.18816  0.71340  1.0000 -0.224486474
C   C66       1.0  0.42543  0.25437  0.77570  1.0000 0.2536717392
C   C67       1.0  0.65430  0.61070  0.73480  1.0000 0.0394301377
C   C68       1.0  0.78718  0.70082  0.72070  1.0000 -0.1497510535
C   C69       1.0  0.87600  0.83180  0.73550  1.0000 -0.0942098014
C   C70       1.0  0.56040  0.46860  0.71470  1.0000 -0.0656648856
C   C71       1.0  0.26251  0.42329  0.01720  1.0000 0.2041999064
C   C72       1.0  0.27524  0.57856  0.02750  1.0000 0.1659407876
C   C73       1.0  0.08065  0.11835  0.43650  1.0000 0.0800176616
C   C74       1.0  0.18096  0.12504  0.44450  1.0000 -0.1588364728
C   C75       1.0  0.30501  0.23719  0.47070  1.0000 0.0905787423
C   C76       1.0  0.31962  0.33438  0.49070  1.0000 -0.1588364728
C   C77       1.0  0.21625  0.32155  0.48070  1.0000 0.1022797785
C   C78       1.0  0.87684  0.35396  0.44260  1.0000 0.0905787423
C   C79       1.0  0.79747  0.37053  0.45300  1.0000 -0.1497510535
C   C80       1.0  0.66111  0.26009  0.45110  1.0000 0.0905787423
C   C81       1.0  0.61119  0.14021  0.43480  1.0000 -0.2003646637
C   C82       1.0  0.69975  0.13465  0.42640  1.0000 0.0905787423
C   C83       1.0  0.05021  0.26099  0.78350  1.0000 0.0064908173
C   C84       1.0  0.97699  0.19881  0.85050  1.0000 0.5366517864
C   C85       1.0  0.97049  0.23051  0.58330  1.0000 0.545673009
C   C86       1.0  0.04658  0.27922  0.65470  1.0000 0.0031433102
C   C87       1.0  0.98037  0.21863  0.71710  1.0000 -0.1497510535
C   C88       1.0  0.18403  0.38477  0.65860  1.0000 -0.2102047483
C   C89       1.0  0.18816  0.36384  0.78660  1.0000 -0.224486474
C   C90       1.0  0.25437  0.42543  0.72430  1.0000 0.2536717392
C   C91       1.0  0.61070  0.65430  0.76520  1.0000 0.0394301377
C   C92       1.0  0.70082  0.78718  0.77930  1.0000 -0.1497510535
C   C93       1.0  0.83180  0.87600  0.76450  1.0000 -0.0942098014
C   C94       1.0  0.46860  0.56040  0.78530  1.0000 -0.0656648856
C   C95       1.0  0.42329  0.26251  0.48280  1.0000 0.2041999064
C   C96       1.0  0.57856  0.27524  0.47250  1.0000 0.1659407876
N   N1        1.0  0.78551  0.90389  0.95310  1.0000 -0.2102047483
N   N2        1.0  0.76085  0.16875  0.93090  1.0000 -0.2003646637
N   N3        1.0  0.65644  0.48016  0.03040  1.0000 -0.2392695584
N   N4        1.0  0.64865  0.38155  0.02320  1.0000 -0.2102047483
N   N5        1.0  0.78388  0.54372  0.94490  1.0000 0.0800176616
N   N6        1.0  0.86222  0.60998  0.88480  1.0000 -0.4397716411
N   N7        1.0  0.90389  0.78551  0.54690  1.0000 -0.2102047483
N   N8        1.0  0.16875  0.76085  0.56910  1.0000 -0.2102047483
N   N9        1.0  0.48016  0.65644  0.46960  1.0000 -0.2392695584
N   N10       1.0  0.38155  0.64865  0.47680  1.0000 -0.2102047483
N   N11       1.0  0.54372  0.78388  0.55510  1.0000 0.0800176616
N   N12       1.0  0.60998  0.86222  0.61520  1.0000 -0.4397716411
N   N13       1.0  0.21449  0.09611  0.04690  1.0000 -0.2102047483
N   N14       1.0  0.23915  0.83125  0.06910  1.0000 -0.2003646637
N   N15       1.0  0.34356  0.51984  0.96960  1.0000 -0.2392695584
N   N16       1.0  0.35135  0.61845  0.97680  1.0000 -0.2102047483
N   N17       1.0  0.21612  0.45628  0.05510  1.0000 0.0800176616
N   N18       1.0  0.13778  0.39002  0.11520  1.0000 -0.4397716411
N   N19       1.0  0.09611  0.21449  0.45310  1.0000 -0.2102047483
N   N20       1.0  0.83125  0.23915  0.43090  1.0000 -0.2003646637
N   N21       1.0  0.51984  0.34356  0.53040  1.0000 -0.2392695584
N   N22       1.0  0.61845  0.35135  0.52320  1.0000 -0.2102047483
N   N23       1.0  0.45628  0.21612  0.44490  1.0000 0.0800176616
N   N24       1.0  0.39002  0.13778  0.38480  1.0000 -0.4397716411
O   O1        1.0  0.90091  0.14909  0.34438  1.0000 -0.5184189268
O   O2        1.0  0.75603  0.96057  0.40928  1.0000 -0.559129972
O   O3        1.0  0.69131  0.96749  0.02904  1.0000 -0.5331257694
O   O4        1.0  0.88103  0.14377  0.08034  1.0000 -0.5331257694
O   O5        1.0  0.47042  0.60918  0.22014  1.0000 -0.1883618124
O   O6        1.0  0.55590  0.86110  0.88390  1.0000 -0.817831371
O   O7        1.0  0.14909  0.90091  0.15562  1.0000 -0.5184189268
O   O8        1.0  0.96057  0.75603  0.09072  1.0000 -0.559129972
O   O9        1.0  0.96749  0.69131  0.47096  1.0000 -0.5331257694
O   O10       1.0  0.14377  0.88103  0.41966  1.0000 -0.5331257694
O   O11       1.0  0.60918  0.47042  0.27986  1.0000 -0.1883618124
O   O12       1.0  0.86110  0.55590  0.61610  1.0000 -0.817831371
O   O13       1.0  0.09909  0.85091  0.65562  1.0000 -0.5184189268
O   O14       1.0  0.24397  0.03943  0.59072  1.0000 -0.559129972
O   O15       1.0  0.30869  0.03251  0.97096  1.0000 -0.5331257694
O   O16       1.0  0.11897  0.85623  0.91966  1.0000 -0.5331257694
O   O17       1.0  0.52958  0.39082  0.77986  1.0000 -0.1883618124
O   O18       1.0  0.44410  0.13890  0.11610  1.0000 -0.817831371
O   O19       1.0  0.85091  0.09909  0.84438  1.0000 -0.5184189268
O   O20       1.0  0.03943  0.24397  0.90928  1.0000 -0.559129972
O   O21       1.0  0.03251  0.30869  0.52904  1.0000 -0.5331257694
O   O22       1.0  0.85623  0.11897  0.58034  1.0000 -0.5331257694
O   O23       1.0  0.39082  0.52958  0.72014  1.0000 -0.1883618124
O   O24       1.0  0.13890  0.44410  0.38390  1.0000 -0.817831371
