# DDEC6 charges by PACMAN v1.1 (https://github.com/mtap-research/PACMAN-charge/)
data_2018[Zn][sql]2[FSR]16
_chemical_formula_sum              "Zn2 P2 H14 C12 N2 O6"
_cell_length_a       5.0749
_cell_length_b       8.9262
_cell_length_c       11.5579
_cell_angle_alpha    82.773
_cell_angle_beta     79.467
_cell_angle_gamma    76.632

_symmetry_space_group_name_H-M    "P 1"
_symmetry_Int_Tables_number       1

loop_
  _symmetry_equiv_pos_as_xyz
  'x, y, z'

loop_
  _atom_site_type_symbol
  _atom_site_label
  _atom_site_symmetry_multiplicity
  _atom_site_fract_x
  _atom_site_fract_y
  _atom_site_fract_z
  _atom_site_occupancy
  _atom_site_charge
Zn  Zn1       1.0  0.16002  0.15818  0.91686  1.0000 0.9330567257
Zn  Zn2       1.0  0.83998  0.84182  0.08314  1.0000 0.9330567257
P   P1        1.0  0.58924  0.20004  0.06127  1.0000 1.3645874397
P   P2        1.0  0.41076  0.79996  0.93873  1.0000 1.3655139343
H   H1        1.0  0.78400  0.34880  0.15600  1.0000 0.1879138039
H   H2        1.0  0.48340  0.33940  0.22450  1.0000 0.1713919179
H   H3        1.0  0.51930  0.45190  0.10610  1.0000 0.1879138039
H   H4        1.0  0.93380  0.44160  0.76600  1.0000 0.1202966892
H   H5        1.0  0.06970  0.58930  0.59570  1.0000 0.1325843023
H   H6        1.0  0.79800  0.28200  0.55370  1.0000 0.1325843023
H   H7        1.0  0.64680  0.14440  0.72620  1.0000 0.1325843023
H   H8        1.0  0.21600  0.65120  0.84400  1.0000 0.1879138039
H   H9        1.0  0.51660  0.66060  0.77550  1.0000 0.1713919179
H   H10       1.0  0.48070  0.54810  0.89390  1.0000 0.1879138039
H   H11       1.0  0.06620  0.55840  0.23400  1.0000 0.1202966892
H   H12       1.0  0.93030  0.41070  0.40430  1.0000 0.1325843023
H   H13       1.0  0.20200  0.71800  0.44630  1.0000 0.1325843023
H   H14       1.0  0.35320  0.85560  0.27380  1.0000 0.1325843023
C   C1        1.0  0.59460  0.35220  0.14660  1.0000 -0.756533043
C   C2        1.0  0.11220  0.41020  0.72260  1.0000 0.0930489511
C   C3        1.0  0.19220  0.49850  0.62090  1.0000 -0.1948741837
C   C4        1.0  0.45220  0.45460  0.55510  1.0000 0.107736601
C   C5        1.0  0.62050  0.31800  0.59650  1.0000 -0.1993013783
C   C6        1.0  0.52910  0.23610  0.69910  1.0000 0.107736601
C   C7        1.0  0.40540  0.64780  0.85340  1.0000 -0.756533043
C   C8        1.0  0.88780  0.58980  0.27740  1.0000 0.0930489511
C   C9        1.0  0.80780  0.50150  0.37910  1.0000 -0.1948741837
C   C10       1.0  0.54780  0.54540  0.44490  1.0000 0.107736601
C   C11       1.0  0.37950  0.68200  0.40350  1.0000 -0.1993013783
C   C12       1.0  0.47090  0.76390  0.30090  1.0000 0.107736601
N   N1        1.0  0.27910  0.28120  0.76220  1.0000 -0.2191962762
N   N2        1.0  0.72090  0.71880  0.23780  1.0000 -0.2191962762
O   O1        1.0  0.29320  0.20750  0.04910  1.0000 -0.7532521351
O   O2        1.0  0.71350  0.05040  0.13140  1.0000 -0.765963064
O   O3        1.0  0.76430  0.22150  0.94040  1.0000 -0.7827786072
O   O4        1.0  0.70680  0.79250  0.95090  1.0000 -0.7532521351
O   O5        1.0  0.28650  0.94960  0.86860  1.0000 -0.765963064
O   O6        1.0  0.23570  0.77850  0.05960  1.0000 -0.7827786072
