# DDEC6 charges by PACMAN v1.1 (https://github.com/mtap-research/PACMAN-charge/)
data_2018[Cu][nan]2[FSR]2
_chemical_formula_sum              "Cu4 H80 C108 N8 O24"
_cell_length_a       15.9658
_cell_length_b       15.9658
_cell_length_c       19.186
_cell_angle_alpha    75.8477
_cell_angle_beta     104.152
_cell_angle_gamma    134.026

_symmetry_space_group_name_H-M    "P 1"
_symmetry_Int_Tables_number       1

loop_
  _symmetry_equiv_pos_as_xyz
  'x, y, z'

loop_
  _atom_site_type_symbol
  _atom_site_label
  _atom_site_symmetry_multiplicity
  _atom_site_fract_x
  _atom_site_fract_y
  _atom_site_fract_z
  _atom_site_occupancy
  _atom_site_charge
Cu  Cu1       1.0  0.44893  0.40076  0.97593  1.0000 0.8550611788
Cu  Cu2       1.0  0.40076  0.44893  0.52407  1.0000 0.8544198328
Cu  Cu3       1.0  0.55107  0.59924  0.02407  1.0000 0.8550611788
Cu  Cu4       1.0  0.59924  0.55107  0.47593  1.0000 0.8550611788
H   H1        1.0  0.60610  0.06189  0.07450  1.0000 0.2604011127
H   H2        1.0  0.48860  0.97300  0.14400  1.0000 0.2651651555
H   H3        1.0  0.08330  0.22349  0.98890  1.0000 0.1288871084
H   H4        1.0  0.90750  0.17370  0.97850  1.0000 0.1191259538
H   H5        1.0  0.07390  0.51289  0.95570  1.0000 0.1095865497
H   H6        1.0  0.25170  0.56269  0.97490  1.0000 0.1191259538
H   H7        1.0  0.79490  0.18669  0.04440  1.0000 0.1288871084
H   H8        1.0  0.57100  0.22320  0.93710  1.0000 0.1288871084
H   H9        1.0  0.88470  0.41630  0.86770  1.0000 0.1191259538
H   H10       1.0  0.57830  0.36590  0.87000  1.0000 0.1288871084
H   H11       1.0  0.51910  0.42830  0.76610  1.0000 0.1288871084
H   H12       1.0  0.73520  0.47459  0.65740  1.0000 0.1191259538
H   H13       1.0  0.79090  0.40790  0.76010  1.0000 0.1095865497
H   H14       1.0  0.30930  0.03170  0.10500  1.0000 0.1288871084
H   H15       1.0  0.16640  0.95479  0.17610  1.0000 0.1191259538
H   H16       1.0  0.14570  0.84089  0.28440  1.0000 0.1095865497
H   H17       1.0  0.26810  0.80410  0.32160  1.0000 0.1095865497
H   H18       1.0  0.41100  0.88100  0.25050  1.0000 0.1288871084
H   H19       1.0  0.40220  0.19379  0.98900  1.0000 0.3996763208
H   H20       1.0  0.29830  0.19470  0.96400  1.0000 0.3996763208
H   H21       1.0  0.06190  0.60610  0.42550  1.0000 0.2604011127
H   H22       1.0  0.97300  0.48860  0.35600  1.0000 0.2651651555
H   H23       1.0  0.22349  0.08330  0.51110  1.0000 0.1288871084
H   H24       1.0  0.17369  0.90750  0.52150  1.0000 0.1191259538
H   H25       1.0  0.51290  0.07390  0.54430  1.0000 0.1095865497
H   H26       1.0  0.56270  0.25170  0.52510  1.0000 0.1191259538
H   H27       1.0  0.18670  0.79490  0.45560  1.0000 0.1288871084
H   H28       1.0  0.22319  0.57100  0.56290  1.0000 0.1288871084
H   H29       1.0  0.41630  0.88470  0.63230  1.0000 0.1191259538
H   H30       1.0  0.36590  0.57830  0.63000  1.0000 0.1288871084
H   H31       1.0  0.42829  0.51910  0.73390  1.0000 0.1288871084
H   H32       1.0  0.47459  0.73520  0.84260  1.0000 0.1191259538
H   H33       1.0  0.40790  0.79090  0.73990  1.0000 0.1095865497
H   H34       1.0  0.03169  0.30930  0.39500  1.0000 0.1288871084
H   H35       1.0  0.95480  0.16640  0.32390  1.0000 0.1191259538
H   H36       1.0  0.84090  0.14570  0.21560  1.0000 0.1095865497
H   H37       1.0  0.80410  0.26810  0.17840  1.0000 0.1095865497
H   H38       1.0  0.88099  0.41100  0.24950  1.0000 0.1288871084
H   H39       1.0  0.19379  0.40220  0.51100  1.0000 0.3996763208
H   H40       1.0  0.19470  0.29830  0.53600  1.0000 0.3996763208
H   H41       1.0  0.39390  0.93810  0.92550  1.0000 0.2604011127
H   H42       1.0  0.51140  0.02701  0.85600  1.0000 0.2651651555
H   H43       1.0  0.91670  0.77651  0.01110  1.0000 0.1288871084
H   H44       1.0  0.09250  0.82630  0.02150  1.0000 0.1191259538
H   H45       1.0  0.92610  0.48711  0.04430  1.0000 0.1095865497
H   H46       1.0  0.74830  0.43730  0.02510  1.0000 0.1191259538
H   H47       1.0  0.20510  0.81330  0.95560  1.0000 0.1288871084
H   H48       1.0  0.42900  0.77680  0.06290  1.0000 0.1288871084
H   H49       1.0  0.11530  0.58371  0.13230  1.0000 0.1191259538
H   H50       1.0  0.42170  0.63411  0.13000  1.0000 0.1288871084
H   H51       1.0  0.48090  0.57171  0.23390  1.0000 0.1288871084
H   H52       1.0  0.26480  0.52541  0.34260  1.0000 0.1191259538
H   H53       1.0  0.20910  0.59210  0.23990  1.0000 0.1095865497
H   H54       1.0  0.69070  0.96831  0.89500  1.0000 0.1288871084
H   H55       1.0  0.83360  0.04521  0.82390  1.0000 0.1191259538
H   H56       1.0  0.85430  0.15910  0.71560  1.0000 0.1095865497
H   H57       1.0  0.73190  0.19591  0.67840  1.0000 0.1095865497
H   H58       1.0  0.58900  0.11900  0.74950  1.0000 0.1288871084
H   H59       1.0  0.59780  0.80620  0.01100  1.0000 0.3996763208
H   H60       1.0  0.70170  0.80531  0.03600  1.0000 0.3996763208
H   H61       1.0  0.93810  0.39390  0.57450  1.0000 0.2604011127
H   H62       1.0  0.02701  0.51140  0.64400  1.0000 0.2651651555
H   H63       1.0  0.77651  0.91670  0.48890  1.0000 0.1288871084
H   H64       1.0  0.82630  0.09250  0.47850  1.0000 0.1191259538
H   H65       1.0  0.48711  0.92610  0.45570  1.0000 0.1095865497
H   H66       1.0  0.43730  0.74830  0.47490  1.0000 0.1191259538
H   H67       1.0  0.81331  0.20510  0.54440  1.0000 0.1288871084
H   H68       1.0  0.77680  0.42900  0.43710  1.0000 0.1288871084
H   H69       1.0  0.58371  0.11530  0.36770  1.0000 0.1191259538
H   H70       1.0  0.63411  0.42170  0.37000  1.0000 0.1288871084
H   H71       1.0  0.57171  0.48090  0.26610  1.0000 0.1288871084
H   H72       1.0  0.52541  0.26480  0.15740  1.0000 0.1191259538
H   H73       1.0  0.59210  0.20910  0.26010  1.0000 0.1095865497
H   H74       1.0  0.96830  0.69070  0.60500  1.0000 0.1288871084
H   H75       1.0  0.04521  0.83360  0.67610  1.0000 0.1191259538
H   H76       1.0  0.15911  0.85430  0.78440  1.0000 0.1095865497
H   H77       1.0  0.19590  0.73190  0.82160  1.0000 0.1095865497
H   H78       1.0  0.11900  0.58900  0.75050  1.0000 0.1288871084
H   H79       1.0  0.80620  0.59780  0.48900  1.0000 0.3996763208
H   H80       1.0  0.80531  0.70170  0.46400  1.0000 0.3996763208
C   C1        1.0  0.30129  0.43090  0.99440  1.0000 0.5782693131
C   C2        1.0  0.18589  0.39791  0.98440  1.0000 -0.0197755138
C   C3        1.0  0.08188  0.28192  0.98400  1.0000 -0.0977350457
C   C4        1.0  0.97656  0.25223  0.97630  1.0000 -0.1489247477
C   C5        1.0  0.97178  0.33822  0.96530  1.0000 0.0696757713
C   C6        1.0  0.07575  0.45425  0.96390  1.0000 -0.1559872667
C   C7        1.0  0.18232  0.48441  0.97440  1.0000 -0.0977350457
C   C8        1.0  0.85693  0.30567  0.95710  1.0000 0.0972457889
C   C9        1.0  0.77713  0.22287  0.00640  1.0000 -0.2681552118
C   C10       1.0  0.67039  0.19281  0.00010  1.0000 0.2282679656
C   C11       1.0  0.64295  0.24425  0.94220  1.0000 -0.261741007
C   C12       1.0  0.72255  0.32805  0.89080  1.0000 0.0972457889
C   C13       1.0  0.83003  0.35897  0.90020  1.0000 -0.2050111688
C   C14       1.0  0.68937  0.37662  0.82620  1.0000 0.0626323574
C   C15       1.0  0.60870  0.38570  0.82720  1.0000 -0.1301919671
C   C16       1.0  0.57378  0.42401  0.76460  1.0000 -0.0793839081
C   C17       1.0  0.61804  0.45615  0.70000  1.0000 -0.0320481493
C   C18       1.0  0.70194  0.45106  0.69970  1.0000 -0.0977350457
C   C19       1.0  0.73570  0.41150  0.76160  1.0000 -0.1559872667
C   C20       1.0  0.57585  0.48795  0.63027  1.0000 0.5782693131
C   C21       1.0  0.50895  0.09044  0.07430  1.0000 0.5782693131
C   C22       1.0  0.37430  0.96390  0.17072  1.0000 0.2352219687
C   C23       1.0  0.30101  0.98599  0.14844  1.0000 -0.1922499186
C   C24       1.0  0.21544  0.93995  0.19103  1.0000 -0.0793839081
C   C25       1.0  0.20306  0.87174  0.25589  1.0000 -0.1301919671
C   C26       1.0  0.27636  0.84964  0.27817  1.0000 -0.0898301157
C   C27       1.0  0.36203  0.89577  0.23558  1.0000 -0.2212746351
C   C28       1.0  0.43090  0.30129  0.50560  1.0000 0.5782693131
C   C29       1.0  0.39791  0.18589  0.51560  1.0000 -0.0197755138
C   C30       1.0  0.28192  0.08188  0.51600  1.0000 -0.0977350457
C   C31       1.0  0.25223  0.97656  0.52370  1.0000 -0.1489247477
C   C32       1.0  0.33822  0.97178  0.53470  1.0000 0.0696757713
C   C33       1.0  0.45425  0.07575  0.53610  1.0000 -0.1559872667
C   C34       1.0  0.48441  0.18232  0.52560  1.0000 -0.0977350457
C   C35       1.0  0.30566  0.85693  0.54290  1.0000 0.0972457889
C   C36       1.0  0.22287  0.77713  0.49360  1.0000 -0.2681552118
C   C37       1.0  0.19281  0.67039  0.49990  1.0000 0.2282679656
C   C38       1.0  0.24424  0.64295  0.55780  1.0000 -0.261741007
C   C39       1.0  0.32805  0.72255  0.60920  1.0000 0.0972457889
C   C40       1.0  0.35896  0.83003  0.59980  1.0000 -0.2050111688
C   C41       1.0  0.37662  0.68937  0.67380  1.0000 0.0626323574
C   C42       1.0  0.38569  0.60870  0.67280  1.0000 -0.1301919671
C   C43       1.0  0.42401  0.57378  0.73540  1.0000 -0.0793839081
C   C44       1.0  0.45615  0.61804  0.80000  1.0000 -0.0320481493
C   C45       1.0  0.45105  0.70194  0.80030  1.0000 -0.0977350457
C   C46       1.0  0.41149  0.73570  0.73840  1.0000 -0.1559872667
C   C47       1.0  0.48795  0.57585  0.86973  1.0000 0.5782693131
C   C48       1.0  0.09044  0.50895  0.42570  1.0000 0.5782693131
C   C49       1.0  0.96389  0.37430  0.32928  1.0000 0.2352219687
C   C50       1.0  0.98599  0.30101  0.35156  1.0000 -0.1922499186
C   C51       1.0  0.93995  0.21544  0.30897  1.0000 -0.0793839081
C   C52       1.0  0.87174  0.20306  0.24411  1.0000 -0.1301919671
C   C53       1.0  0.84964  0.27636  0.22183  1.0000 -0.0898301157
C   C54       1.0  0.89577  0.36203  0.26442  1.0000 -0.2212746351
C   C55       1.0  0.69871  0.56910  0.00560  1.0000 0.5782693131
C   C56       1.0  0.81411  0.60210  0.01560  1.0000 -0.0197755138
C   C57       1.0  0.91812  0.71808  0.01600  1.0000 -0.0977350457
C   C58       1.0  0.02344  0.74777  0.02370  1.0000 -0.1489247477
C   C59       1.0  0.02822  0.66178  0.03470  1.0000 0.0696757713
C   C60       1.0  0.92425  0.54575  0.03610  1.0000 -0.1559872667
C   C61       1.0  0.81768  0.51559  0.02560  1.0000 -0.0977350457
C   C62       1.0  0.14307  0.69434  0.04290  1.0000 0.0972457889
C   C63       1.0  0.22287  0.77714  0.99360  1.0000 -0.2681552118
C   C64       1.0  0.32961  0.80720  0.99990  1.0000 0.2282679656
C   C65       1.0  0.35705  0.75576  0.05780  1.0000 -0.261741007
C   C66       1.0  0.27745  0.67195  0.10920  1.0000 0.0972457889
C   C67       1.0  0.16997  0.64104  0.09980  1.0000 -0.2050111688
C   C68       1.0  0.31063  0.62338  0.17380  1.0000 0.0626323574
C   C69       1.0  0.39130  0.61430  0.17280  1.0000 -0.1301919671
C   C70       1.0  0.42622  0.57598  0.23540  1.0000 -0.0793839081
C   C71       1.0  0.38196  0.54385  0.30000  1.0000 -0.0320481493
C   C72       1.0  0.29806  0.54895  0.30030  1.0000 -0.0977350457
C   C73       1.0  0.26430  0.58850  0.23840  1.0000 -0.1559872667
C   C74       1.0  0.42415  0.51206  0.36973  1.0000 0.5782693131
C   C75       1.0  0.49105  0.90956  0.92570  1.0000 0.5782693131
C   C76       1.0  0.62570  0.03610  0.82928  1.0000 0.2352219687
C   C77       1.0  0.69899  0.01402  0.85156  1.0000 -0.1922499186
C   C78       1.0  0.78456  0.06005  0.80897  1.0000 -0.0793839081
C   C79       1.0  0.79694  0.12826  0.74411  1.0000 -0.1301919671
C   C80       1.0  0.72364  0.15037  0.72183  1.0000 -0.0898301157
C   C81       1.0  0.63797  0.10424  0.76442  1.0000 -0.2212746351
C   C82       1.0  0.56910  0.69871  0.49440  1.0000 0.5782693131
C   C83       1.0  0.60210  0.81411  0.48440  1.0000 -0.0197755138
C   C84       1.0  0.71809  0.91812  0.48400  1.0000 -0.0977350457
C   C85       1.0  0.74777  0.02344  0.47630  1.0000 -0.1489247477
C   C86       1.0  0.66178  0.02822  0.46530  1.0000 0.0696757713
C   C87       1.0  0.54575  0.92425  0.46390  1.0000 -0.1559872667
C   C88       1.0  0.51559  0.81768  0.47440  1.0000 -0.0977350457
C   C89       1.0  0.69434  0.14307  0.45710  1.0000 0.0972457889
C   C90       1.0  0.77714  0.22287  0.50640  1.0000 -0.2681552118
C   C91       1.0  0.80719  0.32961  0.50010  1.0000 0.2282679656
C   C92       1.0  0.75575  0.35705  0.44220  1.0000 -0.261741007
C   C93       1.0  0.67195  0.27745  0.39080  1.0000 0.0972457889
C   C94       1.0  0.64104  0.16997  0.40020  1.0000 -0.2050111688
C   C95       1.0  0.62338  0.31063  0.32620  1.0000 0.0626323574
C   C96       1.0  0.61430  0.39130  0.32720  1.0000 -0.1301919671
C   C97       1.0  0.57598  0.42622  0.26460  1.0000 -0.0793839081
C   C98       1.0  0.54385  0.38196  0.20000  1.0000 -0.0320481493
C   C99       1.0  0.54895  0.29806  0.19970  1.0000 -0.0977350457
C   C100      1.0  0.58850  0.26430  0.26160  1.0000 -0.1559872667
C   C101      1.0  0.51206  0.42415  0.13027  1.0000 0.5782693131
C   C102      1.0  0.90956  0.49105  0.57430  1.0000 0.5782693131
C   C103      1.0  0.03611  0.62570  0.67072  1.0000 0.2352219687
C   C104      1.0  0.01402  0.69899  0.64844  1.0000 -0.1922499186
C   C105      1.0  0.06004  0.78456  0.69103  1.0000 -0.0793839081
C   C106      1.0  0.12827  0.79694  0.75589  1.0000 -0.1301919671
C   C107      1.0  0.15037  0.72364  0.77817  1.0000 -0.0898301157
C   C108      1.0  0.10424  0.63797  0.73558  1.0000 -0.2212746351
N   N1        1.0  0.59574  0.10845  0.05286  1.0000 -0.4089130468
N   N2        1.0  0.46089  0.00591  0.13070  1.0000 -0.4089130468
N   N3        1.0  0.10846  0.59574  0.44714  1.0000 -0.4161781615
N   N4        1.0  0.00590  0.46089  0.36930  1.0000 -0.4089130468
N   N5        1.0  0.40426  0.89155  0.94714  1.0000 -0.4161781615
N   N6        1.0  0.53911  0.99409  0.86930  1.0000 -0.4089130468
N   N7        1.0  0.89154  0.40426  0.55286  1.0000 -0.4161781615
N   N8        1.0  0.99409  0.53911  0.63070  1.0000 -0.4089130468
O   O1        1.0  0.30181  0.35919  0.97740  1.0000 -0.5432218856
O   O2        1.0  0.38936  0.52763  0.01805  1.0000 -0.5182277656
O   O3        1.0  0.64283  0.54417  0.58083  1.0000 -0.5475797004
O   O4        1.0  0.47616  0.45364  0.62364  1.0000 -0.5035145379
O   O5        1.0  0.47762  0.14297  0.04658  1.0000 -0.5035145379
O   O6        1.0  0.37620  0.23180  0.95488  1.0000 -0.7384278125
O   O7        1.0  0.35918  0.30181  0.52260  1.0000 -0.5432218856
O   O8        1.0  0.52764  0.38936  0.48195  1.0000 -0.5182277656
O   O9        1.0  0.54416  0.64283  0.91917  1.0000 -0.5475797004
O   O10       1.0  0.45364  0.47616  0.87636  1.0000 -0.5035145379
O   O11       1.0  0.14298  0.47762  0.45342  1.0000 -0.5035145379
O   O12       1.0  0.23180  0.37620  0.54512  1.0000 -0.7384278125
O   O13       1.0  0.69819  0.64082  0.02260  1.0000 -0.5432218856
O   O14       1.0  0.61064  0.47236  0.98195  1.0000 -0.5182277656
O   O15       1.0  0.35717  0.45583  0.41917  1.0000 -0.5475797004
O   O16       1.0  0.52384  0.54636  0.37636  1.0000 -0.5035145379
O   O17       1.0  0.52238  0.85703  0.95342  1.0000 -0.5035145379
O   O18       1.0  0.62380  0.76821  0.04512  1.0000 -0.7384278125
O   O19       1.0  0.64082  0.69819  0.47740  1.0000 -0.5432218856
O   O20       1.0  0.47236  0.61064  0.51805  1.0000 -0.5182277656
O   O21       1.0  0.45584  0.35717  0.08083  1.0000 -0.5475797004
O   O22       1.0  0.54636  0.52384  0.12364  1.0000 -0.5035145379
O   O23       1.0  0.85703  0.52238  0.54658  1.0000 -0.5035145379
O   O24       1.0  0.76821  0.62380  0.45488  1.0000 -0.7384278125
