# DDEC6 charges by PACMAN v1.1 (https://github.com/mtap-research/PACMAN-charge/)
data_2018[Mg][ant]3[FSR]1
_chemical_formula_sum              "Mg2 H24 C36 N28 O4"
_cell_length_a       15.7106
_cell_length_b       15.7106
_cell_length_c       15.7106
_cell_angle_alpha    130.317
_cell_angle_beta     130.317
_cell_angle_gamma    72.9009

_symmetry_space_group_name_H-M    "P 1"
_symmetry_Int_Tables_number       1

loop_
  _symmetry_equiv_pos_as_xyz
  'x, y, z'

loop_
  _atom_site_type_symbol
  _atom_site_label
  _atom_site_symmetry_multiplicity
  _atom_site_fract_x
  _atom_site_fract_y
  _atom_site_fract_z
  _atom_site_occupancy
  _atom_site_charge
Mg  Mg1       1.0  0.00000  0.00000  0.00000  1.0000 1.2076386512
Mg  Mg2       1.0  0.75000  0.25000  0.50000  1.0000 1.2076386512
H   H1        1.0  0.71720  0.81221  0.15617  1.0000 0.1320785899
H   H2        1.0  0.82813  0.10678  0.29599  1.0000 0.1234781761
H   H3        1.0  0.70130  0.97048  0.34154  1.0000 0.1234781761
H   H4        1.0  0.65604  0.56103  0.84383  1.0000 0.1320785899
H   H5        1.0  0.81079  0.53214  0.70401  1.0000 0.1234781761
H   H6        1.0  0.62894  0.35976  0.65846  1.0000 0.1234781761
H   H7        1.0  0.56221  0.90604  0.59501  1.0000 0.1320785899
H   H8        1.0  0.85678  0.06079  0.77865  1.0000 0.1234781761
H   H9        1.0  0.72048  0.87894  0.76918  1.0000 0.1234781761
H   H10       1.0  0.31103  0.96720  0.40499  1.0000 0.1320785899
H   H11       1.0  0.28214  0.07813  0.22135  1.0000 0.1234781761
H   H12       1.0  0.10976  0.95130  0.23082  1.0000 0.1234781761
H   H13       1.0  0.03280  0.43779  0.34383  1.0000 0.1320785899
H   H14       1.0  0.92187  0.14322  0.20401  1.0000 0.1234781761
H   H15       1.0  0.04870  0.27952  0.15846  1.0000 0.1234781761
H   H16       1.0  0.09396  0.68897  0.65617  1.0000 0.1320785899
H   H17       1.0  0.93921  0.71786  0.79599  1.0000 0.1234781761
H   H18       1.0  0.12106  0.89024  0.84154  1.0000 0.1234781761
H   H19       1.0  0.18779  0.34396  0.90499  1.0000 0.1320785899
H   H20       1.0  0.89322  0.18921  0.72135  1.0000 0.1234781761
H   H21       1.0  0.02952  0.37106  0.73082  1.0000 0.1234781761
H   H22       1.0  0.43897  0.28280  0.09501  1.0000 0.1320785899
H   H23       1.0  0.46786  0.17187  0.27865  1.0000 0.1234781761
H   H24       1.0  0.64024  0.29870  0.26918  1.0000 0.1234781761
C   C1        1.0  0.80211  0.87726  0.09075  1.0000 0.4817110226
C   C2        1.0  0.73720  0.88962  0.20602  1.0000 -0.1186064556
C   C3        1.0  0.79839  0.05414  0.28475  1.0000 0.1320785899
C   C4        1.0  0.72857  0.97763  0.30822  1.0000 -0.0092307293
C   C5        1.0  0.78651  0.71136  0.90925  1.0000 0.4817110226
C   C6        1.0  0.68360  0.53118  0.79398  1.0000 -0.1186064556
C   C7        1.0  0.76939  0.51364  0.71525  1.0000 0.1320785899
C   C8        1.0  0.66941  0.42035  0.69178  1.0000 -0.0092307293
C   C9        1.0  0.62726  0.03651  0.57515  1.0000 0.4817110226
C   C10       1.0  0.63962  0.93360  0.65242  1.0000 -0.1186064556
C   C11       1.0  0.80414  0.01939  0.75575  1.0000 0.1320785899
C   C12       1.0  0.72763  0.91941  0.74906  1.0000 -0.0092307293
C   C13       1.0  0.46136  0.05211  0.42485  1.0000 0.4817110226
C   C14       1.0  0.28118  0.98720  0.34758  1.0000 -0.1186064556
C   C15       1.0  0.26364  0.04839  0.24425  1.0000 0.1320785899
C   C16       1.0  0.17035  0.97857  0.25094  1.0000 -0.0092307293
C   C17       1.0  0.94789  0.37274  0.40925  1.0000 0.4817110226
C   C18       1.0  0.01280  0.36038  0.29398  1.0000 -0.1186064556
C   C19       1.0  0.95161  0.19586  0.21525  1.0000 0.1320785899
C   C20       1.0  0.02143  0.27237  0.19178  1.0000 -0.0092307293
C   C21       1.0  0.96349  0.53864  0.59075  1.0000 0.4817110226
C   C22       1.0  0.06640  0.71882  0.70602  1.0000 -0.1186064556
C   C23       1.0  0.98061  0.73636  0.78475  1.0000 0.1320785899
C   C24       1.0  0.08059  0.82965  0.80822  1.0000 -0.0092307293
C   C25       1.0  0.12274  0.21349  0.92485  1.0000 0.4817110226
C   C26       1.0  0.11038  0.31640  0.84758  1.0000 -0.1186064556
C   C27       1.0  0.94586  0.23061  0.74425  1.0000 0.1320785899
C   C28       1.0  0.02237  0.33059  0.75094  1.0000 -0.0092307293
C   C29       1.0  0.28864  0.19789  0.07515  1.0000 0.4817110226
C   C30       1.0  0.46882  0.26280  0.15242  1.0000 -0.1186064556
C   C31       1.0  0.48636  0.20161  0.25575  1.0000 0.1320785899
C   C32       1.0  0.57965  0.27143  0.24906  1.0000 -0.0092307293
C   C33       1.0  0.87231  0.87231  0.00000  1.0000 0.6535636634
C   C34       1.0  0.62231  0.12231  0.50000  1.0000 0.6535636634
C   C35       1.0  0.87769  0.37769  0.50000  1.0000 0.6535636634
C   C36       1.0  0.12769  0.12769  0.00000  1.0000 0.6535636634
N   N1        1.0  0.85497  0.93683  0.09956  1.0000 -0.5463635964
N   N2        1.0  0.78224  0.93805  0.19039  1.0000 -0.0320544431
N   N3        1.0  0.76622  0.08114  0.35722  1.0000 -0.3478207662
N   N4        1.0  0.83727  0.75541  0.90044  1.0000 -0.5463635964
N   N5        1.0  0.74766  0.59185  0.80961  1.0000 -0.0320544431
N   N6        1.0  0.72392  0.40900  0.64278  1.0000 -0.3478207662
N   N7        1.0  0.68683  0.08727  0.58186  1.0000 -0.5463635964
N   N8        1.0  0.68805  0.99766  0.65581  1.0000 -0.0320544431
N   N9        1.0  0.83114  0.97392  0.81492  1.0000 -0.3478207662
N   N10       1.0  0.50541  0.10497  0.41814  1.0000 -0.5463635964
N   N11       1.0  0.34185  0.03224  0.34419  1.0000 -0.0320544431
N   N12       1.0  0.15900  0.01622  0.18508  1.0000 -0.3478207662
N   N13       1.0  0.89503  0.31317  0.40044  1.0000 -0.5463635964
N   N14       1.0  0.96776  0.31195  0.30961  1.0000 -0.0320544431
N   N15       1.0  0.98378  0.16886  0.14278  1.0000 -0.3478207662
N   N16       1.0  0.91273  0.49459  0.59956  1.0000 -0.5463635964
N   N17       1.0  0.00234  0.65815  0.69039  1.0000 -0.0320544431
N   N18       1.0  0.02608  0.84100  0.85722  1.0000 -0.3478207662
N   N19       1.0  0.06317  0.16273  0.91814  1.0000 -0.5463635964
N   N20       1.0  0.06195  0.25234  0.84419  1.0000 -0.0320544431
N   N21       1.0  0.91886  0.27608  0.68508  1.0000 -0.3478207662
N   N22       1.0  0.24459  0.14503  0.08186  1.0000 -0.5432378947
N   N23       1.0  0.40815  0.21776  0.15581  1.0000 -0.0320544431
N   N24       1.0  0.59100  0.23378  0.31492  1.0000 -0.3478207662
N   N25       1.0  0.76482  0.76482  0.00000  1.0000 -0.5088573694
N   N26       1.0  0.51482  0.01482  0.50000  1.0000 -0.5088573694
N   N27       1.0  0.98518  0.48518  0.50000  1.0000 -0.5088573694
N   N28       1.0  0.23518  0.23518  0.00000  1.0000 -0.5088573694
O   O1        1.0  0.92149  0.92149  0.00000  1.0000 -0.6268041729
O   O2        1.0  0.67149  0.17149  0.50000  1.0000 -0.6268041729
O   O3        1.0  0.82851  0.32851  0.50000  1.0000 -0.6268041729
O   O4        1.0  0.07851  0.07851  0.00000  1.0000 -0.6268041729
