# DDEC6 charges by PACMAN v1.1 (https://github.com/mtap-research/PACMAN-charge/)
data_2018[MoCu][nan]2[FSR]1
_chemical_formula_sum              "Cu1 Mo4 H12 C14 N8 O13"
_cell_length_a       7.681
_cell_length_b       8.1954
_cell_length_c       11.1174
_cell_angle_alpha    104.754
_cell_angle_beta     93.668
_cell_angle_gamma    100.439

_symmetry_space_group_name_H-M    "P 1"
_symmetry_Int_Tables_number       1

loop_
  _symmetry_equiv_pos_as_xyz
  'x, y, z'

loop_
  _atom_site_type_symbol
  _atom_site_label
  _atom_site_symmetry_multiplicity
  _atom_site_fract_x
  _atom_site_fract_y
  _atom_site_fract_z
  _atom_site_occupancy
  _atom_site_charge
Cu  Cu1       1.0  0.00000  0.50000  0.00000  1.0000 0.9363719921
Mo  Mo1       1.0  0.15256  0.11964  0.91034  1.0000 2.1328374248
Mo  Mo2       1.0  0.57587  0.15210  0.93289  1.0000 2.1015426021
Mo  Mo3       1.0  0.84744  0.88036  0.08966  1.0000 2.1328374248
Mo  Mo4       1.0  0.42413  0.84790  0.06711  1.0000 2.1015426021
H   H1        1.0  0.30520  0.20630  0.24600  1.0000 0.1384281467
H   H2        1.0  0.10030  0.62320  0.30200  1.0000 0.1323968869
H   H3        1.0  0.20120  0.68910  0.51560  1.0000 0.1384281467
H   H4        1.0  0.26190  0.70620  0.72720  1.0000 0.1211745243
H   H5        1.0  0.34230  0.47560  0.78510  1.0000 0.1464083295
H   H6        1.0  0.36980  0.23730  0.63120  1.0000 0.1211745243
H   H7        1.0  0.69480  0.79370  0.75400  1.0000 0.1384281467
H   H8        1.0  0.89970  0.37680  0.69800  1.0000 0.1323968869
H   H9        1.0  0.79880  0.31090  0.48440  1.0000 0.1384281467
H   H10       1.0  0.73810  0.29380  0.27280  1.0000 0.1211745243
H   H11       1.0  0.65770  0.52440  0.21490  1.0000 0.1464083295
H   H12       1.0  0.63020  0.76270  0.36880  1.0000 0.1211745243
C   C1        1.0  0.25230  0.29440  0.23240  1.0000 0.1618536215
C   C2        1.0  0.13890  0.52340  0.26390  1.0000 0.1323968869
C   C3        1.0  0.25270  0.44770  0.45650  1.0000 0.2834981184
C   C4        1.0  0.23520  0.59890  0.54140  1.0000 -0.2284802247
C   C5        1.0  0.27090  0.60760  0.66620  1.0000 -0.031613705
C   C6        1.0  0.31960  0.47140  0.70110  1.0000 -0.14361762
C   C7        1.0  0.33380  0.32840  0.60790  1.0000 0.082633714
C   C8        1.0  0.74770  0.70560  0.76760  1.0000 0.1618536215
C   C9        1.0  0.86110  0.47660  0.73610  1.0000 0.1323968869
C   C10       1.0  0.74730  0.55230  0.54350  1.0000 0.2834981184
C   C11       1.0  0.76480  0.40110  0.45860  1.0000 -0.2284802247
C   C12       1.0  0.72910  0.39240  0.33380  1.0000 -0.031613705
C   C13       1.0  0.68040  0.52860  0.29890  1.0000 -0.14361762
C   C14       1.0  0.66620  0.67160  0.39210  1.0000 0.082633714
N   N1        1.0  0.20180  0.30970  0.12340  1.0000 -0.2356507827
N   N2        1.0  0.12700  0.45460  0.14400  1.0000 -0.1685349096
N   N3        1.0  0.21710  0.42590  0.32480  1.0000 -0.0565236409
N   N4        1.0  0.29850  0.31400  0.48550  1.0000 -0.3097861309
N   N5        1.0  0.79820  0.69030  0.87660  1.0000 -0.2356507827
N   N6        1.0  0.87300  0.54540  0.85600  1.0000 -0.1685349096
N   N7        1.0  0.78290  0.57410  0.67520  1.0000 -0.0565236409
N   N8        1.0  0.70150  0.68600  0.51450  1.0000 -0.3097861309
O   O1        1.0  0.04130  0.28190  0.89270  1.0000 -0.7479329903
O   O2        1.0  0.38550  0.25090  0.89270  1.0000 -0.8477929432
O   O3        1.0  0.35320  0.02060  0.98860  1.0000 -0.980685373
O   O4        1.0  0.72750  0.32800  0.02230  1.0000 -0.7158450384
O   O5        1.0  0.64690  0.08150  0.79070  1.0000 -0.6568097968
O   O6        1.0  0.10740  0.97420  0.76790  1.0000 -0.6176794667
O   O7        1.0  0.95870  0.71810  0.10730  1.0000 -0.7479329903
O   O8        1.0  0.61450  0.74910  0.10730  1.0000 -0.8477929432
O   O9        1.0  0.64680  0.97940  0.01140  1.0000 -0.980685373
O   O10       1.0  0.27250  0.67200  0.97770  1.0000 -0.7158450384
O   O11       1.0  0.35310  0.91850  0.20930  1.0000 -0.6568097968
O   O12       1.0  0.89260  0.02580  0.23210  1.0000 -0.6176794667
O   O13       1.0  0.00000  0.00000  0.00000  1.0000 -0.8400125999
