# DDEC6 charges by PACMAN v1.1 (https://github.com/mtap-research/PACMAN-charge/)
data_2018[Zn][sod]3[FSR]22
_chemical_formula_sum              "Zn6 H60 C48 N24"
_cell_length_a       14.8041
_cell_length_b       14.8041
_cell_length_c       14.8041
_cell_angle_alpha    109.471
_cell_angle_beta     109.471
_cell_angle_gamma    109.471

_symmetry_space_group_name_H-M    "P 1"
_symmetry_Int_Tables_number       1

loop_
  _symmetry_equiv_pos_as_xyz
  'x, y, z'

loop_
  _atom_site_type_symbol
  _atom_site_label
  _atom_site_symmetry_multiplicity
  _atom_site_fract_x
  _atom_site_fract_y
  _atom_site_fract_z
  _atom_site_occupancy
  _atom_site_charge
Zn  Zn1       1.0  0.75000  0.25000  0.50000  1.0000 0.6365217749
Zn  Zn2       1.0  0.25000  0.75000  0.50000  1.0000 0.6365217749
Zn  Zn3       1.0  0.50000  0.75000  0.25000  1.0000 0.6365217749
Zn  Zn4       1.0  0.50000  0.25000  0.75000  1.0000 0.6365217749
Zn  Zn5       1.0  0.25000  0.50000  0.75000  1.0000 0.6365217749
Zn  Zn6       1.0  0.75000  0.50000  0.25000  1.0000 0.6365217749
H   H1        1.0  0.73750  0.93620  0.43630  1.0000 0.1379500344
H   H2        1.0  0.53270  0.10170  0.26640  1.0000 0.1124743256
H   H3        1.0  0.49990  0.30120  0.56370  1.0000 0.1379500344
H   H4        1.0  0.83530  0.26630  0.73360  1.0000 0.1124743256
H   H5        1.0  0.50010  0.06380  0.80130  1.0000 0.1379500344
H   H6        1.0  0.16470  0.89830  0.43100  1.0000 0.1124743256
H   H7        1.0  0.26250  0.69880  0.19870  1.0000 0.1379500344
H   H8        1.0  0.46730  0.73370  0.56900  1.0000 0.1124743256
H   H9        1.0  0.43630  0.73750  0.93620  1.0000 0.1379500344
H   H10       1.0  0.26640  0.53270  0.10170  1.0000 0.1124743256
H   H11       1.0  0.56370  0.49990  0.30120  1.0000 0.1379500344
H   H12       1.0  0.73360  0.83530  0.26630  1.0000 0.1124743256
H   H13       1.0  0.80130  0.50010  0.06380  1.0000 0.1379500344
H   H14       1.0  0.43100  0.16470  0.89830  1.0000 0.1124743256
H   H15       1.0  0.19870  0.26250  0.69880  1.0000 0.1379500344
H   H16       1.0  0.56900  0.46730  0.73370  1.0000 0.1124743256
H   H17       1.0  0.93620  0.43630  0.73750  1.0000 0.1379500344
H   H18       1.0  0.10170  0.26640  0.53270  1.0000 0.1124743256
H   H19       1.0  0.30120  0.56370  0.49990  1.0000 0.1379500344
H   H20       1.0  0.26630  0.73360  0.83530  1.0000 0.1124743256
H   H21       1.0  0.06380  0.80130  0.50010  1.0000 0.1379500344
H   H22       1.0  0.89830  0.43100  0.16470  1.0000 0.1124743256
H   H23       1.0  0.69880  0.19870  0.26250  1.0000 0.1379500344
H   H24       1.0  0.73370  0.56900  0.46730  1.0000 0.1124743256
H   H25       1.0  0.93620  0.73750  0.43630  1.0000 0.1379500344
H   H26       1.0  0.10170  0.53270  0.26640  1.0000 0.1124743256
H   H27       1.0  0.30120  0.49990  0.56370  1.0000 0.1379500344
H   H28       1.0  0.26630  0.83530  0.73360  1.0000 0.1124743256
H   H29       1.0  0.06380  0.50010  0.80130  1.0000 0.1379500344
H   H30       1.0  0.89830  0.16470  0.43100  1.0000 0.1124743256
H   H31       1.0  0.69880  0.26250  0.19870  1.0000 0.1379500344
H   H32       1.0  0.73370  0.46730  0.56900  1.0000 0.1124743256
H   H33       1.0  0.73750  0.43630  0.93620  1.0000 0.1379500344
H   H34       1.0  0.53270  0.26640  0.10170  1.0000 0.1124743256
H   H35       1.0  0.49990  0.56370  0.30120  1.0000 0.1379500344
H   H36       1.0  0.83530  0.73360  0.26630  1.0000 0.1124743256
H   H37       1.0  0.50010  0.80130  0.06380  1.0000 0.1379500344
H   H38       1.0  0.16470  0.43100  0.89830  1.0000 0.1124743256
H   H39       1.0  0.26250  0.19870  0.69880  1.0000 0.1379500344
H   H40       1.0  0.46730  0.56900  0.73370  1.0000 0.1124743256
H   H41       1.0  0.43630  0.93620  0.73750  1.0000 0.1379500344
H   H42       1.0  0.26640  0.10170  0.53270  1.0000 0.1124743256
H   H43       1.0  0.56370  0.30120  0.49990  1.0000 0.1379500344
H   H44       1.0  0.73360  0.26630  0.83530  1.0000 0.1124743256
H   H45       1.0  0.80130  0.06380  0.50010  1.0000 0.1379500344
H   H46       1.0  0.43100  0.89830  0.16470  1.0000 0.1124743256
H   H47       1.0  0.19870  0.69880  0.26250  1.0000 0.1379500344
H   H48       1.0  0.56900  0.73370  0.46730  1.0000 0.1124743256
H   H49       1.0  0.71400  0.00000  0.52320  1.0000 0.1559397189
H   H50       1.0  0.47680  0.19080  0.47680  1.0000 0.1559397189
H   H51       1.0  0.52320  0.00000  0.71400  1.0000 0.1559397189
H   H52       1.0  0.28600  0.80920  0.28600  1.0000 0.1559397189
H   H53       1.0  0.52320  0.71400  0.00000  1.0000 0.1559397189
H   H54       1.0  0.47680  0.47680  0.19080  1.0000 0.1559397189
H   H55       1.0  0.71400  0.52320  0.00000  1.0000 0.1559397189
H   H56       1.0  0.28600  0.28600  0.80920  1.0000 0.1559397189
H   H57       1.0  0.00000  0.52320  0.71400  1.0000 0.1559397189
H   H58       1.0  0.19080  0.47680  0.47680  1.0000 0.1559397189
H   H59       1.0  0.00000  0.71400  0.52320  1.0000 0.1559397189
H   H60       1.0  0.80920  0.28600  0.28600  1.0000 0.1559397189
C   C1        1.0  0.55500  0.05650  0.28630  1.0000 -0.0647365567
C   C2        1.0  0.77020  0.26870  0.71370  1.0000 -0.0647365567
C   C3        1.0  0.22980  0.94350  0.49850  1.0000 -0.0652974475
C   C4        1.0  0.44500  0.73130  0.50150  1.0000 -0.0647365567
C   C5        1.0  0.28630  0.55500  0.05650  1.0000 -0.0652974475
C   C6        1.0  0.71370  0.77020  0.26870  1.0000 -0.0647365567
C   C7        1.0  0.49850  0.22980  0.94350  1.0000 -0.0647365567
C   C8        1.0  0.50150  0.44500  0.73130  1.0000 -0.0647365567
C   C9        1.0  0.05650  0.28630  0.55500  1.0000 -0.0652974475
C   C10       1.0  0.26870  0.71370  0.77020  1.0000 -0.0647365567
C   C11       1.0  0.94350  0.49850  0.22980  1.0000 -0.0647365567
C   C12       1.0  0.73130  0.50150  0.44500  1.0000 -0.0647365567
C   C13       1.0  0.05650  0.55500  0.28630  1.0000 -0.0652974475
C   C14       1.0  0.26870  0.77020  0.71370  1.0000 -0.0647365567
C   C15       1.0  0.94350  0.22980  0.49850  1.0000 -0.0647365567
C   C16       1.0  0.73130  0.44500  0.50150  1.0000 -0.0647365567
C   C17       1.0  0.55500  0.28630  0.05650  1.0000 -0.0647365567
C   C18       1.0  0.77020  0.71370  0.26870  1.0000 -0.0647365567
C   C19       1.0  0.22980  0.49850  0.94350  1.0000 -0.0647365567
C   C20       1.0  0.44500  0.50150  0.73130  1.0000 -0.0647365567
C   C21       1.0  0.28630  0.05650  0.55500  1.0000 -0.0647365567
C   C22       1.0  0.71370  0.26870  0.77020  1.0000 -0.0647365567
C   C23       1.0  0.49850  0.94350  0.22980  1.0000 -0.0652974475
C   C24       1.0  0.50150  0.73130  0.44500  1.0000 -0.0647365567
C   C25       1.0  0.64181  0.00000  0.37619  1.0000 0.3715677146
C   C26       1.0  0.73196  0.00000  0.46744  1.0000 -0.5167856034
C   C27       1.0  0.62381  0.26562  0.62381  1.0000 0.3715677146
C   C28       1.0  0.53256  0.26452  0.53256  1.0000 -0.5167856034
C   C29       1.0  0.37619  0.00000  0.64181  1.0000 0.3715677146
C   C30       1.0  0.46744  0.00000  0.73196  1.0000 -0.5167856034
C   C31       1.0  0.35819  0.73438  0.35819  1.0000 0.3715677146
C   C32       1.0  0.26804  0.73548  0.26804  1.0000 -0.5167856034
C   C33       1.0  0.37619  0.64181  0.00000  1.0000 0.3715677146
C   C34       1.0  0.46744  0.73196  0.00000  1.0000 -0.5167856034
C   C35       1.0  0.62381  0.62381  0.26562  1.0000 0.3715677146
C   C36       1.0  0.53256  0.53256  0.26452  1.0000 -0.5167856034
C   C37       1.0  0.64181  0.37619  0.00000  1.0000 0.3715677146
C   C38       1.0  0.73196  0.46744  0.00000  1.0000 -0.5167856034
C   C39       1.0  0.35819  0.35819  0.73438  1.0000 0.3715677146
C   C40       1.0  0.26804  0.26804  0.73548  1.0000 -0.5167856034
C   C41       1.0  0.00000  0.37619  0.64181  1.0000 0.3715677146
C   C42       1.0  0.00000  0.46744  0.73196  1.0000 -0.5167856034
C   C43       1.0  0.26562  0.62381  0.62381  1.0000 0.3715677146
C   C44       1.0  0.26452  0.53256  0.53256  1.0000 -0.5167856034
C   C45       1.0  0.00000  0.64181  0.37619  1.0000 0.3715677146
C   C46       1.0  0.00000  0.73196  0.46744  1.0000 -0.5167856034
C   C47       1.0  0.73438  0.35819  0.35819  1.0000 0.3715677146
C   C48       1.0  0.73548  0.26804  0.26804  1.0000 -0.5167856034
N   N1        1.0  0.64740  0.09170  0.37850  1.0000 -0.3500623099
N   N2        1.0  0.71320  0.26890  0.62150  1.0000 -0.3500623099
N   N3        1.0  0.28680  0.90830  0.55570  1.0000 -0.3500623099
N   N4        1.0  0.35260  0.73110  0.44430  1.0000 -0.3500623099
N   N5        1.0  0.37850  0.64740  0.09170  1.0000 -0.3500623099
N   N6        1.0  0.62150  0.71320  0.26890  1.0000 -0.3500623099
N   N7        1.0  0.55570  0.28680  0.90830  1.0000 -0.3500623099
N   N8        1.0  0.44430  0.35260  0.73110  1.0000 -0.3500623099
N   N9        1.0  0.09170  0.37850  0.64740  1.0000 -0.3500623099
N   N10       1.0  0.26890  0.62150  0.71320  1.0000 -0.3500623099
N   N11       1.0  0.90830  0.55570  0.28680  1.0000 -0.3500623099
N   N12       1.0  0.73110  0.44430  0.35260  1.0000 -0.3500623099
N   N13       1.0  0.09170  0.64740  0.37850  1.0000 -0.3500623099
N   N14       1.0  0.26890  0.71320  0.62150  1.0000 -0.3500623099
N   N15       1.0  0.90830  0.28680  0.55570  1.0000 -0.3500623099
N   N16       1.0  0.73110  0.35260  0.44430  1.0000 -0.3500623099
N   N17       1.0  0.64740  0.37850  0.09170  1.0000 -0.3500623099
N   N18       1.0  0.71320  0.62150  0.26890  1.0000 -0.3500623099
N   N19       1.0  0.28680  0.55570  0.90830  1.0000 -0.3500623099
N   N20       1.0  0.35260  0.44430  0.73110  1.0000 -0.3500623099
N   N21       1.0  0.37850  0.09170  0.64740  1.0000 -0.3500623099
N   N22       1.0  0.62150  0.26890  0.71320  1.0000 -0.3500623099
N   N23       1.0  0.55570  0.90830  0.28680  1.0000 -0.3500623099
N   N24       1.0  0.44430  0.73110  0.35260  1.0000 -0.3500623099
