# DDEC6 charges by PACMAN v1.1 (https://github.com/mtap-research/PACMAN-charge/)
data_2018[Cd][sql]2[FSR]3
_chemical_formula_sum              "Cd2 H40 C30 N8 O8"
_cell_length_a       8.73597
_cell_length_b       8.73597
_cell_length_c       15.9057
_cell_angle_alpha    84.1233
_cell_angle_beta     95.8767
_cell_angle_gamma    66.1612

_symmetry_space_group_name_H-M    "P 1"
_symmetry_Int_Tables_number       1

loop_
  _symmetry_equiv_pos_as_xyz
  'x, y, z'

loop_
  _atom_site_type_symbol
  _atom_site_label
  _atom_site_symmetry_multiplicity
  _atom_site_fract_x
  _atom_site_fract_y
  _atom_site_fract_z
  _atom_site_occupancy
  _atom_site_charge
Cd  Cd1       1.0  0.19246  0.19246  0.25000  1.0000 0.8082141614
Cd  Cd2       1.0  0.80754  0.80754  0.75000  1.0000 0.8082141614
H   H1        1.0  0.60544  0.37122  0.20497  1.0000 0.1185795403
H   H2        1.0  0.64598  0.34504  0.30500  1.0000 0.1185795403
H   H3        1.0  0.63938  0.61316  0.30010  1.0000 0.0877685676
H   H4        1.0  0.26720  0.39762  0.41483  1.0000 0.1325743756
H   H5        1.0  0.52553  0.29071  0.51903  1.0000 0.1325743756
H   H6        1.0  0.78744  0.96736  0.55470  1.0000 0.1117437238
H   H7        1.0  0.82399  0.87461  0.47474  1.0000 0.1117437238
H   H8        1.0  0.91639  0.07173  0.41501  1.0000 0.1117437238
H   H9        1.0  0.87612  0.16854  0.49359  1.0000 0.1117437238
H   H10       1.0  0.58519  0.98117  0.34986  1.0000 0.1185795403
H   H11       1.0  0.37122  0.60544  0.29503  1.0000 0.1185795403
H   H12       1.0  0.34504  0.64598  0.19500  1.0000 0.1185795403
H   H13       1.0  0.61317  0.63938  0.19990  1.0000 0.0877685676
H   H14       1.0  0.39762  0.26720  0.08517  1.0000 0.1325743756
H   H15       1.0  0.29071  0.52553  0.98097  1.0000 0.1325743756
H   H16       1.0  0.96736  0.78744  0.94530  1.0000 0.1117437238
H   H17       1.0  0.87461  0.82399  0.02526  1.0000 0.1117437238
H   H18       1.0  0.07173  0.91639  0.08499  1.0000 0.1117437238
H   H19       1.0  0.16854  0.87612  0.00641  1.0000 0.1117437238
H   H20       1.0  0.98117  0.58519  0.15014  1.0000 0.1185795403
H   H21       1.0  0.39456  0.62878  0.79503  1.0000 0.1185795403
H   H22       1.0  0.35402  0.65496  0.69500  1.0000 0.1185795403
H   H23       1.0  0.36063  0.38683  0.69990  1.0000 0.0877685676
H   H24       1.0  0.73280  0.60238  0.58517  1.0000 0.1325743756
H   H25       1.0  0.47447  0.70929  0.48097  1.0000 0.1325743756
H   H26       1.0  0.21256  0.03264  0.44530  1.0000 0.1117437238
H   H27       1.0  0.17601  0.12539  0.52526  1.0000 0.1117437238
H   H28       1.0  0.08361  0.92827  0.58499  1.0000 0.1117437238
H   H29       1.0  0.12388  0.83146  0.50641  1.0000 0.1117437238
H   H30       1.0  0.41481  0.01883  0.65014  1.0000 0.1185795403
H   H31       1.0  0.62878  0.39456  0.70497  1.0000 0.1185795403
H   H32       1.0  0.65496  0.35402  0.80500  1.0000 0.1185795403
H   H33       1.0  0.38684  0.36062  0.80010  1.0000 0.0877685676
H   H34       1.0  0.60238  0.73280  0.91483  1.0000 0.1325743756
H   H35       1.0  0.70929  0.47447  0.01903  1.0000 0.1325743756
H   H36       1.0  0.03264  0.21256  0.05470  1.0000 0.1117437238
H   H37       1.0  0.12539  0.17601  0.97474  1.0000 0.1117437238
H   H38       1.0  0.92827  0.08361  0.91501  1.0000 0.1117437238
H   H39       1.0  0.83146  0.12388  0.99359  1.0000 0.1117437238
H   H40       1.0  0.01883  0.41481  0.84986  1.0000 0.1185795403
C   C1        1.0  0.85039  0.32339  0.24799  1.0000 0.5829751229
C   C2        1.0  0.66392  0.39792  0.25250  1.0000 -0.3429948205
C   C3        1.0  0.36407  0.29967  0.41461  1.0000 -0.048141692
C   C4        1.0  0.50587  0.24127  0.47243  1.0000 -0.1096438149
C   C5        1.0  0.78811  0.98431  0.49353  1.0000 -0.1096438149
C   C6        1.0  0.91258  0.05778  0.47593  1.0000 -0.1775767469
C   C7        1.0  0.53723  0.07203  0.37894  1.0000 0.0877685676
C   C8        1.0  0.32339  0.85039  0.25201  1.0000 0.5829751229
C   C9        1.0  0.39792  0.66392  0.24750  1.0000 -0.3429948205
C   C10       1.0  0.29967  0.36407  0.08539  1.0000 -0.048141692
C   C11       1.0  0.24127  0.50587  0.02757  1.0000 -0.1096438149
C   C12       1.0  0.98431  0.78811  0.00647  1.0000 -0.1096438149
C   C13       1.0  0.05778  0.91258  0.02407  1.0000 -0.1775767469
C   C14       1.0  0.07203  0.53723  0.12106  1.0000 0.0877685676
C   C15       1.0  0.14961  0.67661  0.75201  1.0000 0.5829751229
C   C16       1.0  0.33608  0.60208  0.74750  1.0000 -0.3429948205
C   C17       1.0  0.63593  0.70033  0.58539  1.0000 -0.048141692
C   C18       1.0  0.49413  0.75873  0.52757  1.0000 -0.1096438149
C   C19       1.0  0.21189  0.01569  0.50647  1.0000 -0.1096438149
C   C20       1.0  0.08742  0.94222  0.52407  1.0000 -0.1775767469
C   C21       1.0  0.46277  0.92797  0.62106  1.0000 0.0877685676
C   C22       1.0  0.67661  0.14961  0.74799  1.0000 0.5829751229
C   C23       1.0  0.60208  0.33608  0.75250  1.0000 -0.3429948205
C   C24       1.0  0.70033  0.63593  0.91461  1.0000 -0.048141692
C   C25       1.0  0.75873  0.49413  0.97243  1.0000 -0.1096438149
C   C26       1.0  0.01569  0.21189  0.99353  1.0000 -0.1096438149
C   C27       1.0  0.94222  0.08742  0.97593  1.0000 -0.1775767469
C   C28       1.0  0.92797  0.46277  0.87894  1.0000 0.0877685676
C   C29       1.0  0.58720  0.58720  0.25000  1.0000 -0.1096438149
C   C30       1.0  0.41280  0.41280  0.75000  1.0000 -0.1096438149
N   N1        1.0  0.61528  0.09548  0.44949  1.0000 0.0374083219
N   N2        1.0  0.38380  0.19340  0.35549  1.0000 -0.3023285234
N   N3        1.0  0.09548  0.61528  0.05051  1.0000 0.0374083219
N   N4        1.0  0.19340  0.38380  0.14451  1.0000 -0.3023285234
N   N5        1.0  0.38472  0.90452  0.55051  1.0000 0.0374083219
N   N6        1.0  0.61620  0.80660  0.64451  1.0000 -0.3023285234
N   N7        1.0  0.90452  0.38472  0.94949  1.0000 0.0374083219
N   N8        1.0  0.80660  0.61620  0.85549  1.0000 -0.3023285234
O   O1        1.0  0.94848  0.35138  0.30116  1.0000 -0.5613693038
O   O2        1.0  0.90410  0.23470  0.19284  1.0000 -0.5613693038
O   O3        1.0  0.35138  0.94848  0.19884  1.0000 -0.5613693038
O   O4        1.0  0.23470  0.90410  0.30716  1.0000 -0.5613693038
O   O5        1.0  0.05152  0.64862  0.69884  1.0000 -0.5613693038
O   O6        1.0  0.09590  0.76530  0.80716  1.0000 -0.5613693038
O   O7        1.0  0.64862  0.05152  0.80116  1.0000 -0.5613693038
O   O8        1.0  0.76530  0.09590  0.69284  1.0000 -0.5613693038
