# DDEC6 charges by PACMAN v1.1 (https://github.com/mtap-research/PACMAN-charge/)
data_2018[Zr][pcu]3[FSR]4
_chemical_formula_sum              "Zr6 H72 C120 O32"
_cell_length_a       18.1977
_cell_length_b       18.1977
_cell_length_c       18.1977
_cell_angle_alpha    112.696
_cell_angle_beta     112.696
_cell_angle_gamma    112.696

_symmetry_space_group_name_H-M    "P 1"
_symmetry_Int_Tables_number       1

loop_
  _symmetry_equiv_pos_as_xyz
  'x, y, z'

loop_
  _atom_site_type_symbol
  _atom_site_label
  _atom_site_symmetry_multiplicity
  _atom_site_fract_x
  _atom_site_fract_y
  _atom_site_fract_z
  _atom_site_occupancy
  _atom_site_charge
Zr  Zr1       1.0  0.16772  0.03668  0.08048  1.0000 2.3987669759
Zr  Zr2       1.0  0.03668  0.08048  0.16772  1.0000 2.3987669759
Zr  Zr3       1.0  0.08048  0.16772  0.03668  1.0000 2.3987669759
Zr  Zr4       1.0  0.83228  0.96332  0.91952  1.0000 2.3987669759
Zr  Zr5       1.0  0.96332  0.91952  0.83228  1.0000 2.3987669759
Zr  Zr6       1.0  0.91952  0.83228  0.96332  1.0000 2.3987669759
H   H1        1.0  0.39063  0.11199  0.38189  1.0000 0.1263251533
H   H2        1.0  0.52772  0.19421  0.54668  1.0000 0.1211156788
H   H3        1.0  0.46349  0.37676  0.65779  1.0000 0.1115154613
H   H4        1.0  0.31917  0.28627  0.49327  1.0000 0.1211156788
H   H5        1.0  0.60727  0.24176  0.70888  1.0000 0.1211156788
H   H6        1.0  0.85569  0.51768  0.98674  1.0000 0.1211156788
H   H7        1.0  0.79670  0.59595  0.93702  1.0000 0.1211156788
H   H8        1.0  0.64283  0.49874  0.77644  1.0000 0.1115154613
H   H9        1.0  0.64048  0.19490  0.81838  1.0000 0.1211156788
H   H10       1.0  0.70067  0.11136  0.85438  1.0000 0.1263251533
H   H11       1.0  0.98480  0.34526  0.98564  1.0000 0.1263251533
H   H12       1.0  0.92403  0.42848  0.95051  1.0000 0.1115154613
H   H13       1.0  0.11199  0.38189  0.39063  1.0000 0.1263251533
H   H14       1.0  0.19421  0.54668  0.52772  1.0000 0.1211156788
H   H15       1.0  0.37676  0.65779  0.46349  1.0000 0.1115154613
H   H16       1.0  0.28627  0.49327  0.31917  1.0000 0.1211156788
H   H17       1.0  0.24176  0.70888  0.60727  1.0000 0.1211156788
H   H18       1.0  0.51768  0.98674  0.85569  1.0000 0.1211156788
H   H19       1.0  0.59595  0.93702  0.79670  1.0000 0.1211156788
H   H20       1.0  0.49874  0.77644  0.64283  1.0000 0.1115154613
H   H21       1.0  0.19490  0.81838  0.64048  1.0000 0.1211156788
H   H22       1.0  0.11136  0.85438  0.70067  1.0000 0.1263251533
H   H23       1.0  0.34526  0.98564  0.98480  1.0000 0.1263251533
H   H24       1.0  0.42848  0.95051  0.92403  1.0000 0.1115154613
H   H25       1.0  0.38189  0.39063  0.11199  1.0000 0.1263251533
H   H26       1.0  0.54668  0.52772  0.19421  1.0000 0.1211156788
H   H27       1.0  0.65779  0.46349  0.37676  1.0000 0.1115154613
H   H28       1.0  0.49327  0.31917  0.28627  1.0000 0.1211156788
H   H29       1.0  0.70888  0.60727  0.24176  1.0000 0.1211156788
H   H30       1.0  0.98674  0.85569  0.51768  1.0000 0.1211156788
H   H31       1.0  0.93702  0.79670  0.59595  1.0000 0.1211156788
H   H32       1.0  0.77644  0.64283  0.49874  1.0000 0.1115154613
H   H33       1.0  0.81838  0.64048  0.19490  1.0000 0.1211156788
H   H34       1.0  0.85438  0.70067  0.11136  1.0000 0.1263251533
H   H35       1.0  0.98564  0.98480  0.34526  1.0000 0.1263251533
H   H36       1.0  0.95051  0.92403  0.42848  1.0000 0.1115154613
H   H37       1.0  0.60937  0.88801  0.61811  1.0000 0.1263251533
H   H38       1.0  0.47228  0.80579  0.45332  1.0000 0.1211156788
H   H39       1.0  0.53651  0.62324  0.34221  1.0000 0.1115154613
H   H40       1.0  0.68083  0.71373  0.50673  1.0000 0.1211156788
H   H41       1.0  0.39273  0.75824  0.29112  1.0000 0.1211156788
H   H42       1.0  0.14431  0.48232  0.01326  1.0000 0.1211156788
H   H43       1.0  0.20330  0.40405  0.06298  1.0000 0.1211156788
H   H44       1.0  0.35717  0.50126  0.22356  1.0000 0.1115154613
H   H45       1.0  0.35952  0.80510  0.18162  1.0000 0.1211156788
H   H46       1.0  0.29933  0.88864  0.14562  1.0000 0.1263251533
H   H47       1.0  0.01520  0.65474  0.01436  1.0000 0.1263251533
H   H48       1.0  0.07597  0.57152  0.04949  1.0000 0.1115154613
H   H49       1.0  0.88801  0.61811  0.60937  1.0000 0.1263251533
H   H50       1.0  0.80579  0.45332  0.47228  1.0000 0.1211156788
H   H51       1.0  0.62324  0.34221  0.53651  1.0000 0.1115154613
H   H52       1.0  0.71373  0.50673  0.68083  1.0000 0.1211156788
H   H53       1.0  0.75824  0.29112  0.39273  1.0000 0.1211156788
H   H54       1.0  0.48232  0.01326  0.14431  1.0000 0.1211156788
H   H55       1.0  0.40405  0.06298  0.20330  1.0000 0.1211156788
H   H56       1.0  0.50126  0.22356  0.35717  1.0000 0.1115154613
H   H57       1.0  0.80510  0.18162  0.35952  1.0000 0.1211156788
H   H58       1.0  0.88864  0.14562  0.29933  1.0000 0.1263251533
H   H59       1.0  0.65474  0.01436  0.01520  1.0000 0.1263251533
H   H60       1.0  0.57152  0.04949  0.07597  1.0000 0.1115154613
H   H61       1.0  0.61811  0.60937  0.88801  1.0000 0.1263251533
H   H62       1.0  0.45332  0.47228  0.80579  1.0000 0.1211156788
H   H63       1.0  0.34221  0.53651  0.62324  1.0000 0.1115154613
H   H64       1.0  0.50673  0.68083  0.71373  1.0000 0.1211156788
H   H65       1.0  0.29112  0.39273  0.75824  1.0000 0.1211156788
H   H66       1.0  0.01326  0.14431  0.48232  1.0000 0.1211156788
H   H67       1.0  0.06298  0.20330  0.40405  1.0000 0.1211156788
H   H68       1.0  0.22356  0.35717  0.50126  1.0000 0.1115154613
H   H69       1.0  0.18162  0.35952  0.80510  1.0000 0.1211156788
H   H70       1.0  0.14562  0.29933  0.88864  1.0000 0.1263251533
H   H71       1.0  0.01436  0.01520  0.65474  1.0000 0.1263251533
H   H72       1.0  0.04949  0.07597  0.57152  1.0000 0.1115154613
C   C1        1.0  0.25746  0.14547  0.31494  1.0000 0.6395937615
C   C2        1.0  0.34405  0.19472  0.42147  1.0000 -0.0285990447
C   C3        1.0  0.40554  0.16641  0.43836  1.0000 -0.0985825086
C   C4        1.0  0.48801  0.21649  0.53630  1.0000 -0.1590656161
C   C5        1.0  0.51459  0.29903  0.62047  1.0000 0.0788907
C   C6        1.0  0.44931  0.32271  0.60168  1.0000 -0.1590656161
C   C7        1.0  0.36407  0.26997  0.50356  1.0000 -0.0897178016
C   C8        1.0  0.60892  0.35974  0.72547  1.0000 0.0788907
C   C9        1.0  0.64548  0.31371  0.75546  1.0000 -0.1948561556
C   C10       1.0  0.73706  0.37117  0.85254  1.0000 0.0788907
C   C11       1.0  0.79322  0.47744  0.92039  1.0000 -0.1590656161
C   C12       1.0  0.75791  0.52384  0.89100  1.0000 -0.0730887427
C   C13       1.0  0.66675  0.46606  0.79529  1.0000 -0.1447887159
C   C14       1.0  0.77584  0.31953  0.87959  1.0000 0.0788907
C   C15       1.0  0.71085  0.22595  0.85231  1.0000 -0.1525552384
C   C16       1.0  0.74662  0.17603  0.87366  1.0000 -0.0897178016
C   C17       1.0  0.84822  0.21988  0.92258  1.0000 -0.0285990447
C   C18       1.0  0.91435  0.31402  0.95131  1.0000 -0.0897178016
C   C19       1.0  0.87777  0.36319  0.92996  1.0000 -0.1525552384
C   C20       1.0  0.88676  0.16557  0.94384  1.0000 0.6395937615
C   C21       1.0  0.14547  0.31494  0.25746  1.0000 0.6395937615
C   C22       1.0  0.19472  0.42147  0.34405  1.0000 -0.0285990447
C   C23       1.0  0.16641  0.43836  0.40554  1.0000 -0.0985825086
C   C24       1.0  0.21649  0.53630  0.48801  1.0000 -0.1590656161
C   C25       1.0  0.29903  0.62047  0.51459  1.0000 0.0788907
C   C26       1.0  0.32271  0.60168  0.44931  1.0000 -0.1590656161
C   C27       1.0  0.26997  0.50356  0.36407  1.0000 -0.0897178016
C   C28       1.0  0.35974  0.72547  0.60892  1.0000 0.0788907
C   C29       1.0  0.31371  0.75546  0.64548  1.0000 -0.1948561556
C   C30       1.0  0.37117  0.85254  0.73706  1.0000 0.0788907
C   C31       1.0  0.47744  0.92039  0.79322  1.0000 -0.1590656161
C   C32       1.0  0.52384  0.89100  0.75791  1.0000 -0.0730887427
C   C33       1.0  0.46606  0.79529  0.66675  1.0000 -0.1447887159
C   C34       1.0  0.31953  0.87959  0.77584  1.0000 0.0788907
C   C35       1.0  0.22595  0.85231  0.71085  1.0000 -0.1525552384
C   C36       1.0  0.17603  0.87366  0.74662  1.0000 -0.0897178016
C   C37       1.0  0.21988  0.92258  0.84822  1.0000 -0.0285990447
C   C38       1.0  0.31402  0.95131  0.91435  1.0000 -0.0897178016
C   C39       1.0  0.36319  0.92996  0.87777  1.0000 -0.1525552384
C   C40       1.0  0.16557  0.94384  0.88676  1.0000 0.6395937615
C   C41       1.0  0.31494  0.25746  0.14547  1.0000 0.6395937615
C   C42       1.0  0.42147  0.34405  0.19472  1.0000 -0.0285990447
C   C43       1.0  0.43836  0.40554  0.16641  1.0000 -0.0985825086
C   C44       1.0  0.53630  0.48801  0.21649  1.0000 -0.1590656161
C   C45       1.0  0.62047  0.51459  0.29903  1.0000 0.0788907
C   C46       1.0  0.60168  0.44931  0.32271  1.0000 -0.1590656161
C   C47       1.0  0.50356  0.36407  0.26997  1.0000 -0.0897178016
C   C48       1.0  0.72547  0.60892  0.35974  1.0000 0.0788907
C   C49       1.0  0.75546  0.64548  0.31371  1.0000 -0.1948561556
C   C50       1.0  0.85254  0.73706  0.37117  1.0000 0.0788907
C   C51       1.0  0.92039  0.79322  0.47744  1.0000 -0.1590656161
C   C52       1.0  0.89100  0.75791  0.52384  1.0000 -0.0730887427
C   C53       1.0  0.79529  0.66675  0.46606  1.0000 -0.1447887159
C   C54       1.0  0.87959  0.77584  0.31953  1.0000 0.0788907
C   C55       1.0  0.85231  0.71085  0.22595  1.0000 -0.1525552384
C   C56       1.0  0.87366  0.74662  0.17603  1.0000 -0.0897178016
C   C57       1.0  0.92258  0.84822  0.21988  1.0000 -0.0285990447
C   C58       1.0  0.95131  0.91435  0.31402  1.0000 -0.0897178016
C   C59       1.0  0.92996  0.87777  0.36319  1.0000 -0.1525552384
C   C60       1.0  0.94384  0.88676  0.16557  1.0000 0.6395937615
C   C61       1.0  0.74254  0.85453  0.68506  1.0000 0.6395937615
C   C62       1.0  0.65595  0.80528  0.57853  1.0000 -0.0285990447
C   C63       1.0  0.59446  0.83359  0.56164  1.0000 -0.0985825086
C   C64       1.0  0.51199  0.78351  0.46370  1.0000 -0.1590656161
C   C65       1.0  0.48541  0.70097  0.37953  1.0000 0.0788907
C   C66       1.0  0.55069  0.67729  0.39832  1.0000 -0.1590656161
C   C67       1.0  0.63593  0.73003  0.49644  1.0000 -0.0897178016
C   C68       1.0  0.39108  0.64026  0.27453  1.0000 0.0788907
C   C69       1.0  0.35452  0.68629  0.24454  1.0000 -0.1953287012
C   C70       1.0  0.26294  0.62883  0.14746  1.0000 0.0788907
C   C71       1.0  0.20678  0.52256  0.07961  1.0000 -0.1590656161
C   C72       1.0  0.24209  0.47616  0.10900  1.0000 -0.0730887427
C   C73       1.0  0.33325  0.53394  0.20471  1.0000 -0.1447887159
C   C74       1.0  0.22416  0.68047  0.12041  1.0000 0.0788907
C   C75       1.0  0.28915  0.77405  0.14769  1.0000 -0.1525552384
C   C76       1.0  0.25338  0.82397  0.12634  1.0000 -0.0897178016
C   C77       1.0  0.15178  0.78012  0.07742  1.0000 -0.0285990447
C   C78       1.0  0.08565  0.68598  0.04869  1.0000 -0.0897178016
C   C79       1.0  0.12223  0.63681  0.07004  1.0000 -0.1525552384
C   C80       1.0  0.11324  0.83443  0.05616  1.0000 0.6395937615
C   C81       1.0  0.85453  0.68506  0.74254  1.0000 0.6395937615
C   C82       1.0  0.80528  0.57853  0.65595  1.0000 -0.0285990447
C   C83       1.0  0.83359  0.56164  0.59446  1.0000 -0.0985825086
C   C84       1.0  0.78351  0.46370  0.51199  1.0000 -0.1590656161
C   C85       1.0  0.70097  0.37953  0.48541  1.0000 0.0788907
C   C86       1.0  0.67729  0.39832  0.55069  1.0000 -0.1590656161
C   C87       1.0  0.73003  0.49644  0.63593  1.0000 -0.0897178016
C   C88       1.0  0.64026  0.27453  0.39108  1.0000 0.0788907
C   C89       1.0  0.68629  0.24454  0.35452  1.0000 -0.1948561556
C   C90       1.0  0.62883  0.14746  0.26294  1.0000 0.0788907
C   C91       1.0  0.52256  0.07961  0.20678  1.0000 -0.1590656161
C   C92       1.0  0.47616  0.10900  0.24209  1.0000 -0.0730887427
C   C93       1.0  0.53394  0.20471  0.33325  1.0000 -0.1447887159
C   C94       1.0  0.68047  0.12041  0.22416  1.0000 0.0788907
C   C95       1.0  0.77405  0.14769  0.28915  1.0000 -0.1525552384
C   C96       1.0  0.82397  0.12634  0.25338  1.0000 -0.0897178016
C   C97       1.0  0.78012  0.07742  0.15178  1.0000 -0.0285990447
C   C98       1.0  0.68598  0.04869  0.08565  1.0000 -0.0897178016
C   C99       1.0  0.63681  0.07004  0.12223  1.0000 -0.1525552384
C   C100      1.0  0.83443  0.05616  0.11324  1.0000 0.6395937615
C   C101      1.0  0.68506  0.74254  0.85453  1.0000 0.6395937615
C   C102      1.0  0.57853  0.65595  0.80528  1.0000 -0.0285990447
C   C103      1.0  0.56164  0.59446  0.83359  1.0000 -0.0985825086
C   C104      1.0  0.46370  0.51199  0.78351  1.0000 -0.1590656161
C   C105      1.0  0.37953  0.48541  0.70097  1.0000 0.0788907
C   C106      1.0  0.39832  0.55069  0.67729  1.0000 -0.1590656161
C   C107      1.0  0.49644  0.63593  0.73003  1.0000 -0.0897178016
C   C108      1.0  0.27453  0.39108  0.64026  1.0000 0.0788907
C   C109      1.0  0.24454  0.35452  0.68629  1.0000 -0.1948561556
C   C110      1.0  0.14746  0.26294  0.62883  1.0000 0.0788907
C   C111      1.0  0.07961  0.20678  0.52256  1.0000 -0.1590656161
C   C112      1.0  0.10900  0.24209  0.47616  1.0000 -0.0730887427
C   C113      1.0  0.20471  0.33325  0.53394  1.0000 -0.1447887159
C   C114      1.0  0.12041  0.22416  0.68047  1.0000 0.0788907
C   C115      1.0  0.14769  0.28915  0.77405  1.0000 -0.1525552384
C   C116      1.0  0.12634  0.25338  0.82397  1.0000 -0.0897178016
C   C117      1.0  0.07742  0.15178  0.78012  1.0000 -0.0285990447
C   C118      1.0  0.04869  0.08565  0.68598  1.0000 -0.0897178016
C   C119      1.0  0.07004  0.12223  0.63681  1.0000 -0.1525552384
C   C120      1.0  0.05616  0.11324  0.83443  1.0000 0.6395937615
O   O1        1.0  0.26726  0.11183  0.24698  1.0000 -0.5904923863
O   O2        1.0  0.18416  0.14550  0.30355  1.0000 -0.5904923863
O   O3        1.0  0.82069  0.07804  0.91381  1.0000 -0.5904923863
O   O4        1.0  0.98155  0.21060  0.98912  1.0000 -0.5904923863
O   O5        1.0  0.10488  0.06156  0.97507  1.0000 -1.098618216
O   O6        1.0  0.11183  0.24698  0.26726  1.0000 -0.5904923863
O   O7        1.0  0.14550  0.30355  0.18416  1.0000 -0.5904923863
O   O8        1.0  0.07804  0.91381  0.82069  1.0000 -0.5904923863
O   O9        1.0  0.21060  0.98912  0.98155  1.0000 -0.5904923863
O   O10       1.0  0.06156  0.97507  0.10488  1.0000 -1.098618216
O   O11       1.0  0.24698  0.26726  0.11183  1.0000 -0.5904923863
O   O12       1.0  0.30355  0.18416  0.14550  1.0000 -0.5904923863
O   O13       1.0  0.91381  0.82069  0.07804  1.0000 -0.5904923863
O   O14       1.0  0.98912  0.98155  0.21060  1.0000 -0.5904923863
O   O15       1.0  0.97507  0.10488  0.06156  1.0000 -1.098618216
O   O16       1.0  0.73274  0.88817  0.75302  1.0000 -0.5904923863
O   O17       1.0  0.81584  0.85450  0.69645  1.0000 -0.5904923863
O   O18       1.0  0.17931  0.92196  0.08619  1.0000 -0.5904923863
O   O19       1.0  0.01845  0.78940  0.01088  1.0000 -0.5904923863
O   O20       1.0  0.89512  0.93844  0.02493  1.0000 -1.0944916195
O   O21       1.0  0.88817  0.75302  0.73274  1.0000 -0.5904923863
O   O22       1.0  0.85450  0.69645  0.81584  1.0000 -0.5904923863
O   O23       1.0  0.92196  0.08619  0.17931  1.0000 -0.5904923863
O   O24       1.0  0.78940  0.01088  0.01845  1.0000 -0.5904923863
O   O25       1.0  0.93844  0.02493  0.89512  1.0000 -1.098618216
O   O26       1.0  0.75302  0.73274  0.88817  1.0000 -0.5904923863
O   O27       1.0  0.69645  0.81584  0.85450  1.0000 -0.5904923863
O   O28       1.0  0.08619  0.17931  0.92196  1.0000 -0.5904923863
O   O29       1.0  0.01088  0.01845  0.78940  1.0000 -0.5904923863
O   O30       1.0  0.02493  0.89512  0.93844  1.0000 -1.098618216
O   O31       1.0  0.14121  0.14121  0.14121  1.0000 -1.0613385625
O   O32       1.0  0.85879  0.85879  0.85879  1.0000 -1.0613385625
