# DDEC6 charges by PACMAN v1.1 (https://github.com/mtap-research/PACMAN-charge/)
data_2018[Sm][rtl]3[FSR]1
_chemical_formula_sum              "Sm4 P4 H60 C84 N4 O44"
_cell_length_a       11.66
_cell_length_b       17.6914
_cell_length_c       18.6357
_cell_angle_alpha    90
_cell_angle_beta     127.328
_cell_angle_gamma    90

_symmetry_space_group_name_H-M    "P 1"
_symmetry_Int_Tables_number       1

loop_
  _symmetry_equiv_pos_as_xyz
  'x, y, z'

loop_
  _atom_site_type_symbol
  _atom_site_label
  _atom_site_symmetry_multiplicity
  _atom_site_fract_x
  _atom_site_fract_y
  _atom_site_fract_z
  _atom_site_occupancy
  _atom_site_charge
Sm  Sm1       1.0  0.98656  0.07109  0.90817  1.0000 2.1040296361
Sm  Sm2       1.0  0.01344  0.57109  0.59183  1.0000 2.1040296361
Sm  Sm3       1.0  0.01344  0.92891  0.09183  1.0000 2.1040296361
Sm  Sm4       1.0  0.98656  0.42891  0.40817  1.0000 2.1040296361
P   P1        1.0  0.08586  0.08287  0.74862  1.0000 0.8945255086
P   P2        1.0  0.91414  0.58287  0.75138  1.0000 0.8953699872
P   P3        1.0  0.91414  0.91713  0.25138  1.0000 0.8953699872
P   P4        1.0  0.08586  0.41713  0.24862  1.0000 0.8945255086
H   H1        1.0  0.48620  0.85230  0.36640  1.0000 0.3479199216
H   H2        1.0  0.17600  0.19610  0.02600  1.0000 0.4018232256
H   H3        1.0  0.24630  0.16440  0.98950  1.0000 0.4018232256
H   H4        1.0  0.28270  0.12890  0.71070  1.0000 0.111987428
H   H5        1.0  0.52010  0.10130  0.77370  1.0000 0.1208839193
H   H6        1.0  0.53760  0.96060  0.94740  1.0000 0.111987428
H   H7        1.0  0.29920  0.98580  0.88240  1.0000 0.1281759731
H   H8        1.0  0.11040  0.96210  0.65400  1.0000 0.1208839193
H   H9        1.0  0.95240  0.87890  0.54200  1.0000 0.1208839193
H   H10       1.0  0.62960  0.97260  0.52850  1.0000 0.1281759731
H   H11       1.0  0.78760  0.05470  0.64190  1.0000 0.1281759731
H   H12       1.0  0.98030  0.14980  0.57550  1.0000 0.111987428
H   H13       1.0  0.97350  0.27270  0.52950  1.0000 0.1281759731
H   H14       1.0  0.10610  0.34950  0.77010  1.0000 0.1208839193
H   H15       1.0  0.11540  0.22780  0.81740  1.0000 0.1208839193
H   H16       1.0  0.51380  0.35230  0.13360  1.0000 0.3479199216
H   H17       1.0  0.82400  0.69610  0.47400  1.0000 0.4018232256
H   H18       1.0  0.75370  0.66440  0.51050  1.0000 0.4018232256
H   H19       1.0  0.71730  0.62890  0.78930  1.0000 0.111987428
H   H20       1.0  0.47990  0.60130  0.72630  1.0000 0.1208839193
H   H21       1.0  0.46240  0.46060  0.55260  1.0000 0.111987428
H   H22       1.0  0.70080  0.48580  0.61760  1.0000 0.1281759731
H   H23       1.0  0.88960  0.46210  0.84600  1.0000 0.1208839193
H   H24       1.0  0.04760  0.37890  0.95800  1.0000 0.1208839193
H   H25       1.0  0.37040  0.47260  0.97150  1.0000 0.1281759731
H   H26       1.0  0.21240  0.55470  0.85810  1.0000 0.1281759731
H   H27       1.0  0.01970  0.64980  0.92450  1.0000 0.111987428
H   H28       1.0  0.02650  0.77270  0.97050  1.0000 0.1281759731
H   H29       1.0  0.89390  0.84950  0.72990  1.0000 0.1208839193
H   H30       1.0  0.88460  0.72780  0.68260  1.0000 0.1208839193
H   H31       1.0  0.51380  0.14770  0.63360  1.0000 0.3479199216
H   H32       1.0  0.82400  0.80390  0.97400  1.0000 0.4018232256
H   H33       1.0  0.75370  0.83560  0.01050  1.0000 0.4018232256
H   H34       1.0  0.71730  0.87110  0.28930  1.0000 0.111987428
H   H35       1.0  0.47990  0.89870  0.22630  1.0000 0.1208839193
H   H36       1.0  0.46240  0.03940  0.05260  1.0000 0.111987428
H   H37       1.0  0.70080  0.01420  0.11760  1.0000 0.1281759731
H   H38       1.0  0.88960  0.03790  0.34600  1.0000 0.1208839193
H   H39       1.0  0.04760  0.12110  0.45800  1.0000 0.1208839193
H   H40       1.0  0.37040  0.02740  0.47150  1.0000 0.1281759731
H   H41       1.0  0.21240  0.94530  0.35810  1.0000 0.1281759731
H   H42       1.0  0.01970  0.85020  0.42450  1.0000 0.111987428
H   H43       1.0  0.02650  0.72730  0.47050  1.0000 0.1281759731
H   H44       1.0  0.89390  0.65050  0.22990  1.0000 0.1208839193
H   H45       1.0  0.88460  0.77220  0.18260  1.0000 0.1208839193
H   H46       1.0  0.48620  0.64770  0.86640  1.0000 0.3479199216
H   H47       1.0  0.17600  0.30390  0.52600  1.0000 0.4018232256
H   H48       1.0  0.24630  0.33560  0.48950  1.0000 0.4018232256
H   H49       1.0  0.28270  0.37110  0.21070  1.0000 0.111987428
H   H50       1.0  0.52010  0.39870  0.27370  1.0000 0.1208839193
H   H51       1.0  0.53760  0.53940  0.44740  1.0000 0.111987428
H   H52       1.0  0.29920  0.51420  0.38240  1.0000 0.1281759731
H   H53       1.0  0.11040  0.53790  0.15400  1.0000 0.1208839193
H   H54       1.0  0.95240  0.62110  0.04200  1.0000 0.1208839193
H   H55       1.0  0.62960  0.52740  0.02850  1.0000 0.1281759731
H   H56       1.0  0.78760  0.44530  0.14190  1.0000 0.1281759731
H   H57       1.0  0.98030  0.35020  0.07550  1.0000 0.111987428
H   H58       1.0  0.97350  0.22730  0.02950  1.0000 0.1281759731
H   H59       1.0  0.10610  0.15050  0.27010  1.0000 0.1208839193
H   H60       1.0  0.11540  0.27220  0.31740  1.0000 0.1208839193
C   C1        1.0  0.26660  0.06022  0.79050  1.0000 -0.1571454301
C   C2        1.0  0.33380  0.09480  0.75840  1.0000 -0.0919711007
C   C3        1.0  0.47640  0.07900  0.79680  1.0000 -0.0919711007
C   C4        1.0  0.55460  0.03000  0.86980  1.0000 -0.0145314248
C   C5        1.0  0.48690  0.99500  0.90000  1.0000 -0.1062310606
C   C6        1.0  0.34370  0.00990  0.86090  1.0000 -0.0793506175
C   C7        1.0  0.71170  0.01730  0.91530  1.0000 0.6453757689
C   C8        1.0  0.96520  0.01788  0.65900  1.0000 -0.1482091703
C   C9        1.0  0.01300  0.96440  0.62870  1.0000 -0.0919711007
C   C10       1.0  0.91830  0.91470  0.56150  1.0000 -0.1004288242
C   C11       1.0  0.77440  0.91710  0.52300  1.0000 -0.0271036595
C   C12       1.0  0.72700  0.97030  0.55390  1.0000 -0.1004288242
C   C13       1.0  0.82130  0.01980  0.62140  1.0000 -0.0629150726
C   C14       1.0  0.67560  0.86290  0.44850  1.0000 0.5374630794
C   C15       1.0  0.05190  0.17616  0.70190  1.0000 -0.1482091703
C   C16       1.0  0.00750  0.18981  0.61520  1.0000 -0.0919711007
C   C17       1.0  0.00380  0.26350  0.58770  1.0000 -0.0919711007
C   C18       1.0  0.04500  0.32289  0.64650  1.0000 -0.0157170648
C   C19       1.0  0.08330  0.30920  0.73150  1.0000 -0.0919711007
C   C20       1.0  0.08800  0.23640  0.75970  1.0000 -0.0793506175
C   C21       1.0  0.04620  0.40230  0.62000  1.0000 0.6269252107
C   C22       1.0  0.73340  0.56022  0.70950  1.0000 -0.1571454301
C   C23       1.0  0.66620  0.59480  0.74160  1.0000 -0.0919711007
C   C24       1.0  0.52360  0.57900  0.70320  1.0000 -0.0919711007
C   C25       1.0  0.44540  0.53000  0.63020  1.0000 -0.0145314248
C   C26       1.0  0.51310  0.49500  0.60000  1.0000 -0.1062310606
C   C27       1.0  0.65630  0.50990  0.63910  1.0000 -0.0793506175
C   C28       1.0  0.28830  0.51730  0.58470  1.0000 0.6453757689
C   C29       1.0  0.03480  0.51788  0.84100  1.0000 -0.1482091703
C   C30       1.0  0.98700  0.46440  0.87130  1.0000 -0.0919711007
C   C31       1.0  0.08170  0.41470  0.93850  1.0000 -0.1004288242
C   C32       1.0  0.22560  0.41710  0.97700  1.0000 -0.0271036595
C   C33       1.0  0.27300  0.47030  0.94610  1.0000 -0.1004288242
C   C34       1.0  0.17870  0.51980  0.87860  1.0000 -0.0629150726
C   C35       1.0  0.32440  0.36290  0.05150  1.0000 0.5374630794
C   C36       1.0  0.94810  0.67616  0.79810  1.0000 -0.1482091703
C   C37       1.0  0.99250  0.68981  0.88480  1.0000 -0.0919711007
C   C38       1.0  0.99620  0.76350  0.91230  1.0000 -0.0919711007
C   C39       1.0  0.95500  0.82289  0.85350  1.0000 -0.0157170648
C   C40       1.0  0.91670  0.80920  0.76850  1.0000 -0.0919711007
C   C41       1.0  0.91200  0.73640  0.74030  1.0000 -0.0793506175
C   C42       1.0  0.95380  0.90230  0.88000  1.0000 0.6269252107
C   C43       1.0  0.73340  0.93978  0.20950  1.0000 -0.1571454301
C   C44       1.0  0.66620  0.90520  0.24160  1.0000 -0.0919711007
C   C45       1.0  0.52360  0.92100  0.20320  1.0000 -0.0919711007
C   C46       1.0  0.44540  0.97000  0.13020  1.0000 -0.0145314248
C   C47       1.0  0.51310  0.00500  0.10000  1.0000 -0.1062310606
C   C48       1.0  0.65630  0.99010  0.13910  1.0000 -0.0793506175
C   C49       1.0  0.28830  0.98270  0.08470  1.0000 0.6453757689
C   C50       1.0  0.03480  0.98212  0.34100  1.0000 -0.1482091703
C   C51       1.0  0.98700  0.03560  0.37130  1.0000 -0.0919711007
C   C52       1.0  0.08170  0.08530  0.43850  1.0000 -0.1004288242
C   C53       1.0  0.22560  0.08290  0.47700  1.0000 -0.0271036595
C   C54       1.0  0.27300  0.02970  0.44610  1.0000 -0.1004288242
C   C55       1.0  0.17870  0.98020  0.37860  1.0000 -0.0629150726
C   C56       1.0  0.32440  0.13710  0.55150  1.0000 0.5374630794
C   C57       1.0  0.94810  0.82384  0.29810  1.0000 -0.1482091703
C   C58       1.0  0.99250  0.81019  0.38480  1.0000 -0.0919711007
C   C59       1.0  0.99620  0.73650  0.41230  1.0000 -0.0919711007
C   C60       1.0  0.95500  0.67711  0.35350  1.0000 -0.0157170648
C   C61       1.0  0.91670  0.69080  0.26850  1.0000 -0.0919711007
C   C62       1.0  0.91200  0.76360  0.24030  1.0000 -0.0793506175
C   C63       1.0  0.95380  0.59770  0.38000  1.0000 0.6269252107
C   C64       1.0  0.26660  0.43978  0.29050  1.0000 -0.1571454301
C   C65       1.0  0.33380  0.40520  0.25840  1.0000 -0.0919711007
C   C66       1.0  0.47640  0.42100  0.29680  1.0000 -0.0919711007
C   C67       1.0  0.55460  0.47000  0.36980  1.0000 -0.0145314248
C   C68       1.0  0.48690  0.50500  0.40000  1.0000 -0.1062310606
C   C69       1.0  0.34370  0.49010  0.36090  1.0000 -0.0793506175
C   C70       1.0  0.71170  0.48270  0.41530  1.0000 0.6453757689
C   C71       1.0  0.96520  0.48212  0.15900  1.0000 -0.1482091703
C   C72       1.0  0.01300  0.53560  0.12870  1.0000 -0.0919711007
C   C73       1.0  0.91830  0.58530  0.06150  1.0000 -0.1004288242
C   C74       1.0  0.77440  0.58290  0.02300  1.0000 -0.0271036595
C   C75       1.0  0.72700  0.52970  0.05390  1.0000 -0.1004288242
C   C76       1.0  0.82130  0.48020  0.12140  1.0000 -0.0629150726
C   C77       1.0  0.67560  0.63710  0.94850  1.0000 0.5374630794
C   C78       1.0  0.05190  0.32384  0.20190  1.0000 -0.1482091703
C   C79       1.0  0.00750  0.31019  0.11520  1.0000 -0.0919711007
C   C80       1.0  0.00380  0.23650  0.08770  1.0000 -0.0919711007
C   C81       1.0  0.04500  0.17711  0.14650  1.0000 -0.0157170648
C   C82       1.0  0.08330  0.19080  0.23150  1.0000 -0.0919711007
C   C83       1.0  0.08800  0.26360  0.25970  1.0000 -0.0793506175
C   C84       1.0  0.04620  0.09770  0.12000  1.0000 0.6269252107
N   N1        1.0  0.75950  0.18365  0.78360  1.0000 0.6992860839
N   N2        1.0  0.24050  0.68365  0.71640  1.0000 0.6992860839
N   N3        1.0  0.24050  0.81635  0.21640  1.0000 0.6992860839
N   N4        1.0  0.75950  0.31635  0.28360  1.0000 0.6992860839
O   O1        1.0  0.07352  0.08146  0.82372  1.0000 -0.7699940994
O   O2        1.0  0.78236  0.98397  0.99026  1.0000 -0.6743975475
O   O3        1.0  0.76148  0.04114  0.87588  1.0000 -0.6600610807
O   O4        1.0  0.71510  0.81463  0.42250  1.0000 -0.4957613245
O   O5        1.0  0.53900  0.87394  0.41510  1.0000 -0.452830483
O   O6        1.0  0.02109  0.41464  0.54489  1.0000 -0.7469774678
O   O7        1.0  0.07116  0.45440  0.67276  1.0000 -0.6009595588
O   O8        1.0  0.78367  0.12806  0.75387  1.0000 -0.471595642
O   O9        1.0  0.84660  0.19593  0.86650  1.0000 -0.4826818898
O   O10       1.0  0.65000  0.22134  0.73280  1.0000 -0.3753393411
O   O11       1.0  0.15980  0.17825  0.97480  1.0000 -0.7906336978
O   O12       1.0  0.92648  0.58146  0.67628  1.0000 -0.7699940994
O   O13       1.0  0.21764  0.48397  0.50974  1.0000 -0.6743975475
O   O14       1.0  0.23852  0.54114  0.62412  1.0000 -0.6600610807
O   O15       1.0  0.28490  0.31463  0.07750  1.0000 -0.4957613245
O   O16       1.0  0.46100  0.37394  0.08490  1.0000 -0.452830483
O   O17       1.0  0.97891  0.91464  0.95511  1.0000 -0.7469774678
O   O18       1.0  0.92884  0.95440  0.82724  1.0000 -0.6009595588
O   O19       1.0  0.21633  0.62806  0.74613  1.0000 -0.471595642
O   O20       1.0  0.15340  0.69593  0.63350  1.0000 -0.4826818898
O   O21       1.0  0.35000  0.72134  0.76720  1.0000 -0.3753393411
O   O22       1.0  0.84020  0.67825  0.52520  1.0000 -0.7906336978
O   O23       1.0  0.92648  0.91854  0.17628  1.0000 -0.7699940994
O   O24       1.0  0.21764  0.01603  0.00974  1.0000 -0.6743975475
O   O25       1.0  0.23852  0.95886  0.12412  1.0000 -0.6600610807
O   O26       1.0  0.28490  0.18537  0.57750  1.0000 -0.4957613245
O   O27       1.0  0.46100  0.12606  0.58490  1.0000 -0.452830483
O   O28       1.0  0.97891  0.58536  0.45511  1.0000 -0.7469774678
O   O29       1.0  0.92884  0.54560  0.32724  1.0000 -0.6009595588
O   O30       1.0  0.21633  0.87194  0.24613  1.0000 -0.471595642
O   O31       1.0  0.15340  0.80407  0.13350  1.0000 -0.4826818898
O   O32       1.0  0.35000  0.77866  0.26720  1.0000 -0.3753393411
O   O33       1.0  0.84020  0.82175  0.02520  1.0000 -0.7906336978
O   O34       1.0  0.07352  0.41854  0.32372  1.0000 -0.7699940994
O   O35       1.0  0.78236  0.51603  0.49026  1.0000 -0.6743975475
O   O36       1.0  0.76148  0.45886  0.37588  1.0000 -0.6600610807
O   O37       1.0  0.71510  0.68537  0.92250  1.0000 -0.4957613245
O   O38       1.0  0.53900  0.62606  0.91510  1.0000 -0.452830483
O   O39       1.0  0.02109  0.08536  0.04489  1.0000 -0.7469774678
O   O40       1.0  0.07116  0.04560  0.17276  1.0000 -0.6009595588
O   O41       1.0  0.78367  0.37194  0.25387  1.0000 -0.471595642
O   O42       1.0  0.84660  0.30407  0.36650  1.0000 -0.4826818898
O   O43       1.0  0.65000  0.27866  0.23280  1.0000 -0.3753393411
O   O44       1.0  0.15980  0.32175  0.47480  1.0000 -0.7906336978
