# DDEC6 charges by PACMAN v1.1 (https://github.com/mtap-research/PACMAN-charge/)
data_2018[Fe][nan]3[FSR]4
_chemical_formula_sum              "Fe6 H6 C24 O30"
_cell_length_a       15.0356
_cell_length_b       15.0356
_cell_length_c       15.0356
_cell_angle_alpha    117.729
_cell_angle_beta     117.729
_cell_angle_gamma    117.729

_symmetry_space_group_name_H-M    "P 1"
_symmetry_Int_Tables_number       1

loop_
  _symmetry_equiv_pos_as_xyz
  'x, y, z'

loop_
  _atom_site_type_symbol
  _atom_site_label
  _atom_site_symmetry_multiplicity
  _atom_site_fract_x
  _atom_site_fract_y
  _atom_site_fract_z
  _atom_site_occupancy
  _atom_site_charge
Fe  Fe1       1.0  0.53920  0.79480  0.11420  1.0000 1.1310080959
Fe  Fe2       1.0  0.79480  0.11420  0.53920  1.0000 1.1310080959
Fe  Fe3       1.0  0.11420  0.53920  0.79480  1.0000 1.1310080959
Fe  Fe4       1.0  0.46080  0.20520  0.88580  1.0000 1.1310080959
Fe  Fe5       1.0  0.20520  0.88580  0.46080  1.0000 1.1310080959
Fe  Fe6       1.0  0.88580  0.46080  0.20520  1.0000 1.1310080959
H   H1        1.0  0.19365  0.63989  0.65556  1.0000 0.1941458259
H   H2        1.0  0.63989  0.65556  0.19365  1.0000 0.1941458259
H   H3        1.0  0.65556  0.19365  0.63989  1.0000 0.1941458259
H   H4        1.0  0.80635  0.36011  0.34444  1.0000 0.1941458259
H   H5        1.0  0.36011  0.34444  0.80635  1.0000 0.1941458259
H   H6        1.0  0.34444  0.80635  0.36011  1.0000 0.1941458259
C   C1        1.0  0.72742  0.16672  0.34186  1.0000 0.6740669681
C   C2        1.0  0.61540  0.08075  0.16305  1.0000 -0.0637721036
C   C3        1.0  0.42474  0.85943  0.96153  1.0000 0.3884549016
C   C4        1.0  0.32424  0.79021  0.79945  1.0000 -0.1597910971
C   C5        1.0  0.16672  0.34186  0.72742  1.0000 0.6740669681
C   C6        1.0  0.08075  0.16305  0.61540  1.0000 -0.0637721036
C   C7        1.0  0.85943  0.96153  0.42474  1.0000 0.3884549016
C   C8        1.0  0.79021  0.79945  0.32424  1.0000 -0.1597910971
C   C9        1.0  0.34186  0.72742  0.16672  1.0000 0.6740669681
C   C10       1.0  0.16305  0.61540  0.08075  1.0000 -0.0637721036
C   C11       1.0  0.96153  0.42474  0.85943  1.0000 0.3884549016
C   C12       1.0  0.79945  0.32424  0.79021  1.0000 -0.1597910971
C   C13       1.0  0.27258  0.83328  0.65814  1.0000 0.6740669681
C   C14       1.0  0.38460  0.91925  0.83695  1.0000 -0.0637721036
C   C15       1.0  0.57526  0.14057  0.03847  1.0000 0.3884549016
C   C16       1.0  0.67576  0.20979  0.20055  1.0000 -0.1597910971
C   C17       1.0  0.83328  0.65814  0.27258  1.0000 0.6740669681
C   C18       1.0  0.91925  0.83695  0.38460  1.0000 -0.0637721036
C   C19       1.0  0.14057  0.03847  0.57526  1.0000 0.3884549016
C   C20       1.0  0.20979  0.20055  0.67576  1.0000 -0.1597910971
C   C21       1.0  0.65814  0.27258  0.83328  1.0000 0.6740669681
C   C22       1.0  0.83695  0.38460  0.91925  1.0000 -0.0637721036
C   C23       1.0  0.03847  0.57526  0.14057  1.0000 0.3884549016
C   C24       1.0  0.20055  0.67576  0.20979  1.0000 -0.1597910971
O   O1        1.0  0.67798  0.05965  0.32707  1.0000 -0.5459905591
O   O2        1.0  0.88618  0.36663  0.51989  1.0000 -0.5295650091
O   O3        1.0  0.35680  0.72499  0.92091  1.0000 -0.5625142581
O   O4        1.0  0.76040  0.01500  0.19660  1.0000 -0.2686787025
O   O5        1.0  0.72880  0.87920  0.14800  1.0000 -0.2573640621
O   O6        1.0  0.05965  0.32707  0.67798  1.0000 -0.5459905591
O   O7        1.0  0.36663  0.51989  0.88618  1.0000 -0.5295650091
O   O8        1.0  0.72499  0.92091  0.35680  1.0000 -0.5625142581
O   O9        1.0  0.01500  0.19660  0.76040  1.0000 -0.2686787025
O   O10       1.0  0.87920  0.14800  0.72880  1.0000 -0.2573640621
O   O11       1.0  0.32707  0.67798  0.05965  1.0000 -0.5459905591
O   O12       1.0  0.51989  0.88618  0.36663  1.0000 -0.5295650091
O   O13       1.0  0.92091  0.35680  0.72499  1.0000 -0.5625142581
O   O14       1.0  0.19660  0.76040  0.01500  1.0000 -0.2686787025
O   O15       1.0  0.14800  0.72880  0.87920  1.0000 -0.2573640621
O   O16       1.0  0.32202  0.94035  0.67293  1.0000 -0.5459905591
O   O17       1.0  0.11382  0.63337  0.48011  1.0000 -0.5295650091
O   O18       1.0  0.64320  0.27501  0.07909  1.0000 -0.5625142581
O   O19       1.0  0.23960  0.98500  0.80340  1.0000 -0.2686787025
O   O20       1.0  0.27120  0.12080  0.85200  1.0000 -0.2573640621
O   O21       1.0  0.94035  0.67293  0.32202  1.0000 -0.5459905591
O   O22       1.0  0.63337  0.48011  0.11382  1.0000 -0.5295650091
O   O23       1.0  0.27501  0.07909  0.64320  1.0000 -0.5625142581
O   O24       1.0  0.98500  0.80340  0.23960  1.0000 -0.2686787025
O   O25       1.0  0.12080  0.85200  0.27120  1.0000 -0.2573640621
O   O26       1.0  0.67293  0.32202  0.94035  1.0000 -0.5459905591
O   O27       1.0  0.48011  0.11382  0.63337  1.0000 -0.5295650091
O   O28       1.0  0.07909  0.64320  0.27501  1.0000 -0.5625142581
O   O29       1.0  0.80340  0.23960  0.98500  1.0000 -0.2686787025
O   O30       1.0  0.85200  0.27120  0.12080  1.0000 -0.2573640621
