# DDEC6 charges by PACMAN v1.1 (https://github.com/mtap-research/PACMAN-charge/)
data_2018[Co][ant]3[FSR]1
_chemical_formula_sum              "Co2 H24 C36 N28 O4"
_cell_length_a       15.818
_cell_length_b       15.818
_cell_length_c       15.818
_cell_angle_alpha    131.006
_cell_angle_beta     131.006
_cell_angle_gamma    71.8028

_symmetry_space_group_name_H-M    "P 1"
_symmetry_Int_Tables_number       1

loop_
  _symmetry_equiv_pos_as_xyz
  'x, y, z'

loop_
  _atom_site_type_symbol
  _atom_site_label
  _atom_site_symmetry_multiplicity
  _atom_site_fract_x
  _atom_site_fract_y
  _atom_site_fract_z
  _atom_site_occupancy
  _atom_site_charge
Co  Co1       1.0  0.49432  0.99432  0.50000  1.0000 0.7792959466
Co  Co2       1.0  0.74432  0.74432  0.00000  1.0000 0.7792959466
H   H1        1.0  0.61340  0.82750  0.80870  1.0000 0.1202334239
H   H2        1.0  0.47590  0.70130  0.85320  1.0000 0.1202334239
H   H3        1.0  0.30880  0.71000  0.65460  1.0000 0.1301677405
H   H4        1.0  0.67660  0.89200  0.21900  1.0000 0.1202334239
H   H5        1.0  0.85930  0.02640  0.22870  1.0000 0.1202334239
H   H6        1.0  0.83320  0.18300  0.40560  1.0000 0.1301677405
H   H7        1.0  0.01880  0.80470  0.19130  1.0000 0.1202334239
H   H8        1.0  0.84810  0.62270  0.14680  1.0000 0.1202334239
H   H9        1.0  0.05540  0.65420  0.34540  1.0000 0.1301677405
H   H10       1.0  0.67300  0.45760  0.78100  1.0000 0.1202334239
H   H11       1.0  0.79770  0.63060  0.77130  1.0000 0.1202334239
H   H12       1.0  0.77740  0.42760  0.59440  1.0000 0.1301677405
H   H13       1.0  0.57750  0.26880  0.71410  1.0000 0.1202334239
H   H14       1.0  0.45130  0.09810  0.72540  1.0000 0.1202334239
H   H15       1.0  0.46000  0.30540  0.90120  1.0000 0.1301677405
H   H16       1.0  0.64200  0.92300  0.71540  1.0000 0.1202334239
H   H17       1.0  0.77640  0.04770  0.66710  1.0000 0.1202334239
H   H18       1.0  0.93300  0.02740  0.84980  1.0000 0.1301677405
H   H19       1.0  0.55470  0.86340  0.28590  1.0000 0.1202334239
H   H20       1.0  0.37270  0.72590  0.27460  1.0000 0.1202334239
H   H21       1.0  0.40420  0.55880  0.09880  1.0000 0.1301677405
H   H22       1.0  0.20760  0.92660  0.28460  1.0000 0.1202334239
H   H23       1.0  0.38060  0.10930  0.33290  1.0000 0.1202334239
H   H24       1.0  0.17760  0.08320  0.15020  1.0000 0.1301677405
C   C1        1.0  0.37430  0.79620  0.59250  1.0000 0.4901862546
C   C2        1.0  0.55770  0.79490  0.79160  1.0000 0.1202334239
C   C3        1.0  0.48010  0.72540  0.81450  1.0000 -0.005584797
C   C4        1.0  0.38780  0.73130  0.70630  1.0000 -0.1050396756
C   C5        1.0  0.70580  0.11900  0.42640  1.0000 0.4647052541
C   C6        1.0  0.72020  0.94330  0.24170  1.0000 0.1301677405
C   C7        1.0  0.81850  0.01770  0.24820  1.0000 -0.0388884236
C   C8        1.0  0.80550  0.10350  0.34520  1.0000 -0.1015210431
C   C9        1.0  0.20370  0.78180  0.40750  1.0000 0.4901862546
C   C10       1.0  0.00330  0.76610  0.20840  1.0000 0.1202334239
C   C11       1.0  0.91090  0.66560  0.18550  1.0000 -0.005584797
C   C12       1.0  0.02500  0.68150  0.29370  1.0000 -0.1015210431
C   C13       1.0  0.69260  0.27940  0.57360  1.0000 0.4647052541
C   C14       1.0  0.70160  0.47850  0.75830  1.0000 0.1301677405
C   C15       1.0  0.76950  0.57030  0.75180  1.0000 -0.0388884236
C   C16       1.0  0.75830  0.46030  0.65480  1.0000 -0.1015210431
C   C17       1.0  0.54620  0.45370  0.92190  1.0000 0.4901862546
C   C18       1.0  0.54490  0.25330  0.73720  1.0000 0.1202334239
C   C19       1.0  0.47540  0.16090  0.74530  1.0000 -0.0047352233
C   C20       1.0  0.48130  0.27500  0.84350  1.0000 -0.1015210431
C   C21       1.0  0.86900  0.94260  0.91320  1.0000 0.4664990559
C   C22       1.0  0.69330  0.95160  0.72310  1.0000 0.1301677405
C   C23       1.0  0.76770  0.01950  0.69920  1.0000 -0.0388884236
C   C24       1.0  0.85350  0.00830  0.79800  1.0000 -0.1015210431
C   C25       1.0  0.53180  0.62430  0.07810  1.0000 0.4901862546
C   C26       1.0  0.51610  0.80770  0.26280  1.0000 0.1202334239
C   C27       1.0  0.41560  0.73010  0.25470  1.0000 -0.0047352233
C   C28       1.0  0.43150  0.63780  0.15650  1.0000 -0.1015210431
C   C29       1.0  0.02940  0.95580  0.08680  1.0000 0.4664990559
C   C30       1.0  0.22850  0.97020  0.27690  1.0000 0.1301677405
C   C31       1.0  0.32030  0.06850  0.30080  1.0000 -0.0388884236
C   C32       1.0  0.21030  0.05550  0.20200  1.0000 -0.1015210431
C   C33       1.0  0.36560  0.86560  0.50000  1.0000 0.640228118
C   C34       1.0  0.62210  0.12210  0.50000  1.0000 0.6140129521
C   C35       1.0  0.61560  0.61560  0.00000  1.0000 0.640228118
C   C36       1.0  0.87210  0.87210  0.00000  1.0000 0.6140129521
N   N1        1.0  0.43330  0.84800  0.60070  1.0000 -0.5510176863
N   N2        1.0  0.43570  0.77550  0.68880  1.0000 -0.055504036
N   N3        1.0  0.57800  0.76000  0.85640  1.0000 -0.249647294
N   N4        1.0  0.65830  0.05970  0.41860  1.0000 -0.510331218
N   N5        1.0  0.74500  0.05480  0.34020  1.0000 -0.0191300947
N   N6        1.0  0.76350  0.91010  0.17640  1.0000 -0.3083543525
N   N7        1.0  0.24730  0.83260  0.39930  1.0000 -0.5510176863
N   N8        1.0  0.08670  0.74690  0.31120  1.0000 -0.055504036
N   N9        1.0  0.90360  0.72160  0.14360  1.0000 -0.249647294
N   N10       1.0  0.64110  0.23970  0.58140  1.0000 -0.510331218
N   N11       1.0  0.71460  0.40480  0.65980  1.0000 -0.0191300947
N   N12       1.0  0.73370  0.58710  0.82360  1.0000 -0.3083543525
N   N13       1.0  0.59800  0.49730  0.91470  1.0000 -0.5510176863
N   N14       1.0  0.52550  0.33670  0.83980  1.0000 -0.055504036
N   N15       1.0  0.51000  0.15360  0.68200  1.0000 -0.249647294
N   N16       1.0  0.80970  0.89110  0.90140  1.0000 -0.510331218
N   N17       1.0  0.80480  0.96460  0.80980  1.0000 -0.0191300947
N   N18       1.0  0.66010  0.98370  0.64660  1.0000 -0.3083543525
N   N19       1.0  0.58260  0.68330  0.08530  1.0000 -0.5510176863
N   N20       1.0  0.49690  0.68570  0.16020  1.0000 -0.055504036
N   N21       1.0  0.47160  0.82800  0.31800  1.0000 -0.249647294
N   N22       1.0  0.98970  0.90830  0.09860  1.0000 -0.510331218
N   N23       1.0  0.15480  0.99500  0.19020  1.0000 -0.0191300947
N   N24       1.0  0.33710  0.01350  0.35340  1.0000 -0.3083543525
N   N25       1.0  0.26160  0.76160  0.50000  1.0000 -0.510331218
N   N26       1.0  0.72940  0.22940  0.50000  1.0000 -0.489644383
N   N27       1.0  0.51160  0.51160  0.00000  1.0000 -0.510331218
N   N28       1.0  0.97940  0.97940  0.00000  1.0000 -0.4974586413
O   O1        1.0  0.57600  0.07600  0.50000  1.0000 -0.489644383
O   O2        1.0  0.41430  0.91430  0.50000  1.0000 -0.5510176863
O   O3        1.0  0.82600  0.82600  0.00000  1.0000 -0.489644383
O   O4        1.0  0.66430  0.66430  0.00000  1.0000 -0.5510176863
