# DDEC6 charges by PACMAN v1.1 (https://github.com/mtap-research/PACMAN-charge/)
data_2018[Zn][bbf]3[FSR]1
_chemical_formula_sum              "Zn4 H60 C76 N16 O16"
_cell_length_a       11.769
_cell_length_b       16.0746
_cell_length_c       12.0545
_cell_angle_alpha    90
_cell_angle_beta     92.02
_cell_angle_gamma    90

_symmetry_space_group_name_H-M    "P 1"
_symmetry_Int_Tables_number       1

loop_
  _symmetry_equiv_pos_as_xyz
  'x, y, z'

loop_
  _atom_site_type_symbol
  _atom_site_label
  _atom_site_symmetry_multiplicity
  _atom_site_fract_x
  _atom_site_fract_y
  _atom_site_fract_z
  _atom_site_occupancy
  _atom_site_charge
Zn  Zn1       1.0  0.84512  0.70313  0.15608  1.0000 0.7614056626
Zn  Zn2       1.0  0.15488  0.20313  0.34392  1.0000 0.7614056626
Zn  Zn3       1.0  0.15488  0.29687  0.84392  1.0000 0.7614056626
Zn  Zn4       1.0  0.84512  0.79687  0.65608  1.0000 0.7614056626
H   H1        1.0  0.65960  0.84830  0.11250  1.0000 0.1295024821
H   H2        1.0  0.48880  0.86130  0.22080  1.0000 0.1295024821
H   H3        1.0  0.66470  0.67200  0.33750  1.0000 0.1295024821
H   H4        1.0  0.39010  0.72960  0.35110  1.0000 0.1197065344
H   H5        1.0  0.48450  0.69460  0.43310  1.0000 0.1295024821
H   H6        1.0  0.60300  0.83790  0.50380  1.0000 0.1197065344
H   H7        1.0  0.57090  0.94210  0.62920  1.0000 0.1138901513
H   H8        1.0  0.38740  0.97590  0.67300  1.0000 0.1197065344
H   H9        1.0  0.27100  0.80910  0.45370  1.0000 0.1370521159
H   H10       1.0  0.17430  0.90630  0.66730  1.0000 0.1370521159
H   H11       1.0  0.13740  0.88220  0.54500  1.0000 0.1370521159
H   H12       1.0  0.13530  0.06280  0.71270  1.0000 0.1295024821
H   H13       1.0  0.12440  0.19010  0.60990  1.0000 0.1370521159
H   H14       1.0  0.18380  0.01320  0.39930  1.0000 0.1197065344
H   H15       1.0  0.02980  0.94200  0.17270  1.0000 0.1138901513
H   H16       1.0  0.34040  0.34830  0.38750  1.0000 0.1295024821
H   H17       1.0  0.51120  0.36130  0.27920  1.0000 0.1295024821
H   H18       1.0  0.33530  0.17200  0.16250  1.0000 0.1295024821
H   H19       1.0  0.60990  0.22960  0.14890  1.0000 0.1197065344
H   H20       1.0  0.51550  0.19460  0.06690  1.0000 0.1295024821
H   H21       1.0  0.39700  0.33790  0.99620  1.0000 0.1197065344
H   H22       1.0  0.42910  0.44210  0.87080  1.0000 0.1138901513
H   H23       1.0  0.61260  0.47590  0.82700  1.0000 0.1197065344
H   H24       1.0  0.72900  0.30910  0.04630  1.0000 0.1370521159
H   H25       1.0  0.82570  0.40630  0.83270  1.0000 0.1370521159
H   H26       1.0  0.86260  0.38220  0.95500  1.0000 0.1370521159
H   H27       1.0  0.86470  0.56280  0.78730  1.0000 0.1295024821
H   H28       1.0  0.87560  0.69010  0.89010  1.0000 0.1370521159
H   H29       1.0  0.81620  0.51320  0.10070  1.0000 0.1197065344
H   H30       1.0  0.97020  0.44200  0.32730  1.0000 0.1138901513
H   H31       1.0  0.34040  0.15170  0.88750  1.0000 0.1295024821
H   H32       1.0  0.51120  0.13870  0.77920  1.0000 0.1295024821
H   H33       1.0  0.33530  0.32800  0.66250  1.0000 0.1295024821
H   H34       1.0  0.60990  0.27040  0.64890  1.0000 0.1197065344
H   H35       1.0  0.51550  0.30540  0.56690  1.0000 0.1295024821
H   H36       1.0  0.39700  0.16210  0.49620  1.0000 0.1197065344
H   H37       1.0  0.42910  0.05790  0.37080  1.0000 0.1138901513
H   H38       1.0  0.61260  0.02410  0.32700  1.0000 0.1197065344
H   H39       1.0  0.72900  0.19090  0.54630  1.0000 0.1370521159
H   H40       1.0  0.82570  0.09370  0.33270  1.0000 0.1370521159
H   H41       1.0  0.86260  0.11780  0.45500  1.0000 0.1370521159
H   H42       1.0  0.86470  0.93720  0.28730  1.0000 0.1295024821
H   H43       1.0  0.87560  0.80990  0.39010  1.0000 0.1370521159
H   H44       1.0  0.81620  0.98680  0.60070  1.0000 0.1197065344
H   H45       1.0  0.97020  0.05800  0.82730  1.0000 0.1138901513
H   H46       1.0  0.65960  0.65170  0.61250  1.0000 0.1295024821
H   H47       1.0  0.48880  0.63870  0.72080  1.0000 0.1295024821
H   H48       1.0  0.66470  0.82800  0.83750  1.0000 0.1295024821
H   H49       1.0  0.39010  0.77040  0.85110  1.0000 0.1197065344
H   H50       1.0  0.48450  0.80540  0.93310  1.0000 0.1295024821
H   H51       1.0  0.60300  0.66210  0.00380  1.0000 0.1197065344
H   H52       1.0  0.57090  0.55790  0.12920  1.0000 0.1138901513
H   H53       1.0  0.38740  0.52410  0.17300  1.0000 0.1197065344
H   H54       1.0  0.27100  0.69090  0.95370  1.0000 0.1370521159
H   H55       1.0  0.17430  0.59370  0.16730  1.0000 0.1370521159
H   H56       1.0  0.13740  0.61780  0.04500  1.0000 0.1370521159
H   H57       1.0  0.13530  0.43720  0.21270  1.0000 0.1295024821
H   H58       1.0  0.12440  0.30990  0.10990  1.0000 0.1370521159
H   H59       1.0  0.18380  0.48680  0.89930  1.0000 0.1197065344
H   H60       1.0  0.02980  0.55800  0.67270  1.0000 0.1138901513
C   C1        1.0  0.63960  0.81410  0.17090  1.0000 -0.0416066731
C   C2        1.0  0.54530  0.82130  0.23080  1.0000 -0.1095807618
C   C3        1.0  0.64170  0.71740  0.29460  1.0000 0.1138901513
C   C4        1.0  0.46120  0.74300  0.39010  1.0000 -0.1791439904
C   C5        1.0  0.44150  0.81250  0.46680  1.0000 0.1018849645
C   C6        1.0  0.52870  0.85250  0.51920  1.0000 -0.1573674968
C   C7        1.0  0.50980  0.91440  0.59500  1.0000 -0.0844495734
C   C8        1.0  0.40040  0.93520  0.62020  1.0000 -0.1791439904
C   C9        1.0  0.30930  0.89520  0.56660  1.0000 0.1018849645
C   C10       1.0  0.33160  0.83550  0.49080  1.0000 -0.2152471235
C   C11       1.0  0.18840  0.91700  0.58980  1.0000 -0.169553577
C   C12       1.0  0.14360  0.06840  0.63660  1.0000 -0.1095807618
C   C13       1.0  0.13700  0.13760  0.58000  1.0000 -0.0416066731
C   C14       1.0  0.16940  0.04180  0.46440  1.0000 0.1018849645
C   C15       1.0  0.90460  0.83930  0.04990  1.0000 0.545353637
C   C16       1.0  0.95870  0.92050  0.02170  1.0000 -0.0329955411
C   C17       1.0  0.94090  0.95590  0.91690  1.0000 -0.0207419186
C   C18       1.0  0.01770  0.96550  0.10280  1.0000 -0.1443054556
C   C19       1.0  0.88210  0.91160  0.82260  1.0000 0.5670400271
C   C20       1.0  0.36040  0.31410  0.32910  1.0000 -0.0416066731
C   C21       1.0  0.45470  0.32130  0.26920  1.0000 -0.1095807618
C   C22       1.0  0.35830  0.21740  0.20540  1.0000 0.1197065344
C   C23       1.0  0.53880  0.24300  0.10990  1.0000 -0.1791439904
C   C24       1.0  0.55850  0.31250  0.03320  1.0000 0.1018849645
C   C25       1.0  0.47130  0.35250  0.98080  1.0000 -0.1573674968
C   C26       1.0  0.49020  0.41440  0.90500  1.0000 -0.0844495734
C   C27       1.0  0.59960  0.43520  0.87980  1.0000 -0.1791439904
C   C28       1.0  0.69070  0.39520  0.93340  1.0000 0.1018849645
C   C29       1.0  0.66840  0.33550  0.00920  1.0000 -0.214817687
C   C30       1.0  0.81160  0.41700  0.91020  1.0000 -0.169553577
C   C31       1.0  0.85640  0.56840  0.86340  1.0000 -0.1095807618
C   C32       1.0  0.86300  0.63760  0.92000  1.0000 -0.0416066731
C   C33       1.0  0.83060  0.54180  0.03560  1.0000 0.1018849645
C   C34       1.0  0.09540  0.33930  0.45010  1.0000 0.545353637
C   C35       1.0  0.04130  0.42050  0.47830  1.0000 -0.0329955411
C   C36       1.0  0.05910  0.45590  0.58310  1.0000 -0.0207419186
C   C37       1.0  0.98230  0.46550  0.39720  1.0000 -0.1443054556
C   C38       1.0  0.11790  0.41160  0.67740  1.0000 0.5670400271
C   C39       1.0  0.36040  0.18590  0.82910  1.0000 -0.0416066731
C   C40       1.0  0.45470  0.17870  0.76920  1.0000 -0.1095807618
C   C41       1.0  0.35830  0.28260  0.70540  1.0000 0.1197065344
C   C42       1.0  0.53880  0.25700  0.60990  1.0000 -0.1791439904
C   C43       1.0  0.55850  0.18750  0.53320  1.0000 0.1018849645
C   C44       1.0  0.47130  0.14750  0.48080  1.0000 -0.1573674968
C   C45       1.0  0.49020  0.08560  0.40500  1.0000 -0.0844495734
C   C46       1.0  0.59960  0.06480  0.37980  1.0000 -0.1791439904
C   C47       1.0  0.69070  0.10480  0.43340  1.0000 0.1018849645
C   C48       1.0  0.66840  0.16450  0.50920  1.0000 -0.2152471235
C   C49       1.0  0.81160  0.08300  0.41020  1.0000 -0.169553577
C   C50       1.0  0.85640  0.93160  0.36340  1.0000 -0.1095807618
C   C51       1.0  0.86300  0.86240  0.42000  1.0000 -0.0416066731
C   C52       1.0  0.83060  0.95820  0.53560  1.0000 0.1018849645
C   C53       1.0  0.09540  0.16070  0.95010  1.0000 0.545353637
C   C54       1.0  0.04130  0.07950  0.97830  1.0000 -0.0329955411
C   C55       1.0  0.05910  0.04410  0.08310  1.0000 -0.0207419186
C   C56       1.0  0.98230  0.03450  0.89720  1.0000 -0.1443054556
C   C57       1.0  0.11790  0.08840  0.17740  1.0000 0.5670400271
C   C58       1.0  0.63960  0.68590  0.67090  1.0000 -0.0416066731
C   C59       1.0  0.54530  0.67870  0.73080  1.0000 -0.1095807618
C   C60       1.0  0.64170  0.78260  0.79460  1.0000 0.1197065344
C   C61       1.0  0.46120  0.75700  0.89010  1.0000 -0.1791439904
C   C62       1.0  0.44150  0.68750  0.96680  1.0000 0.1018849645
C   C63       1.0  0.52870  0.64750  0.01920  1.0000 -0.1573674968
C   C64       1.0  0.50980  0.58560  0.09500  1.0000 -0.0844495734
C   C65       1.0  0.40040  0.56480  0.12020  1.0000 -0.1791439904
C   C66       1.0  0.30930  0.60480  0.06660  1.0000 0.1018849645
C   C67       1.0  0.33160  0.66450  0.99080  1.0000 -0.2152471235
C   C68       1.0  0.18840  0.58300  0.08980  1.0000 -0.169553577
C   C69       1.0  0.14360  0.43160  0.13660  1.0000 -0.1095807618
C   C70       1.0  0.13700  0.36240  0.08000  1.0000 -0.0416066731
C   C71       1.0  0.16940  0.45820  0.96440  1.0000 0.1018849645
C   C72       1.0  0.90460  0.66070  0.54990  1.0000 0.545353637
C   C73       1.0  0.95870  0.57950  0.52170  1.0000 -0.0329955411
C   C74       1.0  0.94090  0.54410  0.41690  1.0000 -0.0207419186
C   C75       1.0  0.01770  0.53450  0.60280  1.0000 -0.1443054556
C   C76       1.0  0.88210  0.58840  0.32260  1.0000 0.5670400271
N   N1        1.0  0.69960  0.74820  0.21130  1.0000 -0.2832550993
N   N2        1.0  0.54710  0.75990  0.30840  1.0000 0.0369916586
N   N3        1.0  0.15140  0.12110  0.46940  1.0000 -0.2869703314
N   N4        1.0  0.16490  0.00600  0.56430  1.0000 0.0369916586
N   N5        1.0  0.30040  0.24820  0.28870  1.0000 -0.2832550993
N   N6        1.0  0.45290  0.25990  0.19160  1.0000 0.0369916586
N   N7        1.0  0.84860  0.62110  0.03060  1.0000 -0.2869703314
N   N8        1.0  0.83510  0.50600  0.93570  1.0000 0.0369916586
N   N9        1.0  0.30040  0.25180  0.78870  1.0000 -0.2832550993
N   N10       1.0  0.45290  0.24010  0.69160  1.0000 0.0369916586
N   N11       1.0  0.84860  0.87890  0.53060  1.0000 -0.2869703314
N   N12       1.0  0.83510  0.99400  0.43570  1.0000 0.0369916586
N   N13       1.0  0.69960  0.75180  0.71130  1.0000 -0.2832550993
N   N14       1.0  0.54710  0.74010  0.80840  1.0000 0.0369916586
N   N15       1.0  0.15140  0.37890  0.96940  1.0000 -0.2869703314
N   N16       1.0  0.16490  0.49400  0.06430  1.0000 0.0369916586
O   O1        1.0  0.94830  0.79907  0.13080  1.0000 -0.5391368559
O   O2        1.0  0.81750  0.81750  0.99840  1.0000 -0.5490275463
O   O3        1.0  0.79280  0.93980  0.78110  1.0000 -0.581383734
O   O4        1.0  0.93160  0.84720  0.78570  1.0000 -0.5490275463
O   O5        1.0  0.05170  0.29907  0.36920  1.0000 -0.5391368559
O   O6        1.0  0.18250  0.31750  0.50160  1.0000 -0.5490275463
O   O7        1.0  0.20720  0.43980  0.71890  1.0000 -0.581383734
O   O8        1.0  0.06840  0.34720  0.71430  1.0000 -0.5490275463
O   O9        1.0  0.05170  0.20093  0.86920  1.0000 -0.5391368559
O   O10       1.0  0.18250  0.18250  0.00160  1.0000 -0.5490275463
O   O11       1.0  0.20720  0.06020  0.21890  1.0000 -0.581383734
O   O12       1.0  0.06840  0.15280  0.21430  1.0000 -0.5490275463
O   O13       1.0  0.94830  0.70093  0.63080  1.0000 -0.5391368559
O   O14       1.0  0.81750  0.68250  0.49840  1.0000 -0.5490275463
O   O15       1.0  0.79280  0.56020  0.28110  1.0000 -0.581383734
O   O16       1.0  0.93160  0.65280  0.28570  1.0000 -0.5490275463
