# DDEC6 charges by PACMAN v1.1 (https://github.com/mtap-research/PACMAN-charge/)
data_2018[Zr][pcu]3[FSR]7
_chemical_formula_sum              "Zr6 H72 C120 O32"
_cell_length_a       18.2157
_cell_length_b       18.2157
_cell_length_c       18.2157
_cell_angle_alpha    112.843
_cell_angle_beta     112.843
_cell_angle_gamma    112.843

_symmetry_space_group_name_H-M    "P 1"
_symmetry_Int_Tables_number       1

loop_
  _symmetry_equiv_pos_as_xyz
  'x, y, z'

loop_
  _atom_site_type_symbol
  _atom_site_label
  _atom_site_symmetry_multiplicity
  _atom_site_fract_x
  _atom_site_fract_y
  _atom_site_fract_z
  _atom_site_occupancy
  _atom_site_charge
Zr  Zr1       1.0  0.41983  0.46137  0.33087  1.0000 2.4094663819
Zr  Zr2       1.0  0.46137  0.33087  0.41983  1.0000 2.4094663819
Zr  Zr3       1.0  0.33087  0.41983  0.46137  1.0000 2.4094663819
Zr  Zr4       1.0  0.58017  0.53863  0.66913  1.0000 2.4094663819
Zr  Zr5       1.0  0.53863  0.66913  0.58017  1.0000 2.4094663819
Zr  Zr6       1.0  0.66913  0.58017  0.53863  1.0000 2.4094663819
H   H1        1.0  0.96980  0.95030  0.30570  1.0000 0.1198785665
H   H2        1.0  0.10950  0.11730  0.38930  1.0000 0.1275189728
H   H3        1.0  0.68710  0.55530  0.89560  1.0000 0.1198785665
H   H4        1.0  0.84010  0.71880  0.99160  1.0000 0.1198785665
H   H5        1.0  0.88880  0.78750  0.25370  1.0000 0.1198785665
H   H6        1.0  0.80120  0.64540  0.38860  1.0000 0.1275189728
H   H7        1.0  0.63350  0.50760  0.97830  1.0000 0.1198785665
H   H8        1.0  0.15570  0.00330  0.18920  1.0000 0.1198785665
H   H9        1.0  0.85820  0.68030  0.30300  1.0000 0.1198785665
H   H10       1.0  0.00910  0.83910  0.09680  1.0000 0.1100048781
H   H11       1.0  0.51300  0.50890  0.15450  1.0000 0.1275189728
H   H12       1.0  0.57080  0.54690  0.07070  1.0000 0.1100048781
H   H13       1.0  0.95030  0.30570  0.96980  1.0000 0.1198785665
H   H14       1.0  0.11730  0.38930  0.10950  1.0000 0.1275189728
H   H15       1.0  0.55530  0.89560  0.68710  1.0000 0.1198785665
H   H16       1.0  0.71880  0.99160  0.84010  1.0000 0.1198785665
H   H17       1.0  0.78750  0.25370  0.88880  1.0000 0.1198785665
H   H18       1.0  0.64540  0.38860  0.80120  1.0000 0.1275189728
H   H19       1.0  0.50760  0.97830  0.63350  1.0000 0.1198785665
H   H20       1.0  0.00330  0.18920  0.15570  1.0000 0.1198785665
H   H21       1.0  0.68030  0.30300  0.85820  1.0000 0.1198785665
H   H22       1.0  0.83910  0.09680  0.00910  1.0000 0.1100048781
H   H23       1.0  0.50890  0.15450  0.51300  1.0000 0.1275189728
H   H24       1.0  0.54690  0.07070  0.57080  1.0000 0.1100048781
H   H25       1.0  0.30570  0.96980  0.95030  1.0000 0.1198785665
H   H26       1.0  0.38930  0.10950  0.11730  1.0000 0.1275189728
H   H27       1.0  0.89560  0.68710  0.55530  1.0000 0.1198785665
H   H28       1.0  0.99160  0.84010  0.71880  1.0000 0.1198785665
H   H29       1.0  0.25370  0.88880  0.78750  1.0000 0.1198785665
H   H30       1.0  0.38860  0.80120  0.64540  1.0000 0.1275189728
H   H31       1.0  0.97830  0.63350  0.50760  1.0000 0.1198785665
H   H32       1.0  0.18920  0.15570  0.00330  1.0000 0.1198785665
H   H33       1.0  0.30300  0.85820  0.68030  1.0000 0.1198785665
H   H34       1.0  0.09680  0.00910  0.83910  1.0000 0.1100048781
H   H35       1.0  0.15450  0.51300  0.50890  1.0000 0.1275189728
H   H36       1.0  0.07070  0.57080  0.54690  1.0000 0.1100048781
H   H37       1.0  0.03020  0.04970  0.69430  1.0000 0.1198785665
H   H38       1.0  0.89050  0.88270  0.61070  1.0000 0.1275189728
H   H39       1.0  0.31290  0.44470  0.10440  1.0000 0.1198785665
H   H40       1.0  0.15990  0.28120  0.00840  1.0000 0.1198785665
H   H41       1.0  0.11120  0.21250  0.74630  1.0000 0.1198785665
H   H42       1.0  0.19880  0.35460  0.61140  1.0000 0.1275189728
H   H43       1.0  0.36650  0.49240  0.02170  1.0000 0.1198785665
H   H44       1.0  0.84430  0.99670  0.81080  1.0000 0.1198785665
H   H45       1.0  0.14180  0.31970  0.69700  1.0000 0.1198785665
H   H46       1.0  0.99090  0.16090  0.90320  1.0000 0.1100048781
H   H47       1.0  0.48700  0.49110  0.84550  1.0000 0.1275189728
H   H48       1.0  0.42920  0.45310  0.92930  1.0000 0.1100048781
H   H49       1.0  0.04970  0.69430  0.03020  1.0000 0.1198785665
H   H50       1.0  0.88270  0.61070  0.89050  1.0000 0.1275189728
H   H51       1.0  0.44470  0.10440  0.31290  1.0000 0.1198785665
H   H52       1.0  0.28120  0.00840  0.15990  1.0000 0.1198785665
H   H53       1.0  0.21250  0.74630  0.11120  1.0000 0.1198785665
H   H54       1.0  0.35460  0.61140  0.19880  1.0000 0.1275189728
H   H55       1.0  0.49240  0.02170  0.36650  1.0000 0.1198785665
H   H56       1.0  0.99670  0.81080  0.84430  1.0000 0.1198785665
H   H57       1.0  0.31970  0.69700  0.14180  1.0000 0.1198785665
H   H58       1.0  0.16090  0.90320  0.99090  1.0000 0.1100048781
H   H59       1.0  0.49110  0.84550  0.48700  1.0000 0.1275189728
H   H60       1.0  0.45310  0.92930  0.42920  1.0000 0.1100048781
H   H61       1.0  0.69430  0.03020  0.04970  1.0000 0.1198785665
H   H62       1.0  0.61070  0.89050  0.88270  1.0000 0.1275189728
H   H63       1.0  0.10440  0.31290  0.44470  1.0000 0.1198785665
H   H64       1.0  0.00840  0.15990  0.28120  1.0000 0.1198785665
H   H65       1.0  0.74630  0.11120  0.21250  1.0000 0.1198785665
H   H66       1.0  0.61140  0.19880  0.35460  1.0000 0.1275189728
H   H67       1.0  0.02170  0.36650  0.49240  1.0000 0.1198785665
H   H68       1.0  0.81080  0.84430  0.99670  1.0000 0.1198785665
H   H69       1.0  0.69700  0.14180  0.31970  1.0000 0.1198785665
H   H70       1.0  0.90320  0.99090  0.16090  1.0000 0.1100048781
H   H71       1.0  0.84550  0.48700  0.49110  1.0000 0.1275189728
H   H72       1.0  0.92930  0.42920  0.45310  1.0000 0.1100048781
C   C1        1.0  0.61390  0.55263  0.33447  1.0000 0.6378485223
C   C2        1.0  0.65122  0.57302  0.27916  1.0000 -0.0322683297
C   C3        1.0  0.14592  0.07660  0.29728  1.0000 -0.0322683297
C   C4        1.0  0.23585  0.18353  0.35032  1.0000 0.6378485223
C   C5        1.0  0.00607  0.96099  0.28004  1.0000 -0.1576317141
C   C6        1.0  0.09020  0.06028  0.33092  1.0000 -0.1000687941
C   C7        1.0  0.97384  0.87640  0.19166  1.0000 0.0809429356
C   C8        1.0  0.72770  0.60250  0.96830  1.0000 -0.0653777609
C   C9        1.0  0.87933  0.77024  0.13163  1.0000 0.0809429356
C   C10       1.0  0.81882  0.69996  0.02572  1.0000 -0.1517657851
C   C11       1.0  0.84725  0.74070  0.18095  1.0000 -0.1960301736
C   C12       1.0  0.75370  0.62440  0.32330  1.0000 -0.0906329988
C   C13       1.0  0.69590  0.57430  0.01750  1.0000 -0.1670529186
C   C14       1.0  0.75510  0.64360  0.12390  1.0000 0.0809429356
C   C15       1.0  0.71960  0.61670  0.17760  1.0000 0.0851637235
C   C16       1.0  0.11600  0.99270  0.21130  1.0000 -0.0906329988
C   C17       1.0  0.78770  0.64560  0.27260  1.0000 -0.1517657851
C   C18       1.0  0.03030  0.89490  0.15780  1.0000 -0.1517657851
C   C19       1.0  0.58370  0.54430  0.18550  1.0000 -0.0906329988
C   C20       1.0  0.61820  0.56660  0.13530  1.0000 -0.1517657851
C   C21       1.0  0.55263  0.33447  0.61390  1.0000 0.6378485223
C   C22       1.0  0.57302  0.27916  0.65122  1.0000 -0.0322683297
C   C23       1.0  0.07660  0.29728  0.14592  1.0000 -0.0322683297
C   C24       1.0  0.18353  0.35032  0.23585  1.0000 0.6378485223
C   C25       1.0  0.96099  0.28004  0.00607  1.0000 -0.1576317141
C   C26       1.0  0.06028  0.33092  0.09020  1.0000 -0.1000687941
C   C27       1.0  0.87640  0.19166  0.97384  1.0000 0.0809429356
C   C28       1.0  0.60250  0.96830  0.72770  1.0000 -0.0653777609
C   C29       1.0  0.77024  0.13163  0.87933  1.0000 0.0809429356
C   C30       1.0  0.69996  0.02572  0.81882  1.0000 -0.1517657851
C   C31       1.0  0.74070  0.18095  0.84725  1.0000 -0.1960301736
C   C32       1.0  0.62440  0.32330  0.75370  1.0000 -0.0906329988
C   C33       1.0  0.57430  0.01750  0.69590  1.0000 -0.1670529186
C   C34       1.0  0.64360  0.12390  0.75510  1.0000 0.0809429356
C   C35       1.0  0.61670  0.17760  0.71960  1.0000 0.0851637235
C   C36       1.0  0.99270  0.21130  0.11600  1.0000 -0.0906329988
C   C37       1.0  0.64560  0.27260  0.78770  1.0000 -0.1517657851
C   C38       1.0  0.89490  0.15780  0.03030  1.0000 -0.1517657851
C   C39       1.0  0.54430  0.18550  0.58370  1.0000 -0.0906329988
C   C40       1.0  0.56660  0.13530  0.61820  1.0000 -0.1517657851
C   C41       1.0  0.33447  0.61390  0.55263  1.0000 0.6378485223
C   C42       1.0  0.27916  0.65122  0.57302  1.0000 -0.0322683297
C   C43       1.0  0.29728  0.14592  0.07660  1.0000 -0.0322683297
C   C44       1.0  0.35032  0.23585  0.18353  1.0000 0.6378485223
C   C45       1.0  0.28004  0.00607  0.96099  1.0000 -0.1576317141
C   C46       1.0  0.33092  0.09020  0.06028  1.0000 -0.1000687941
C   C47       1.0  0.19166  0.97384  0.87640  1.0000 0.0809429356
C   C48       1.0  0.96830  0.72770  0.60250  1.0000 -0.0653777609
C   C49       1.0  0.13163  0.87933  0.77024  1.0000 0.0809429356
C   C50       1.0  0.02572  0.81882  0.69996  1.0000 -0.1517657851
C   C51       1.0  0.18095  0.84725  0.74070  1.0000 -0.1960301736
C   C52       1.0  0.32330  0.75370  0.62440  1.0000 -0.0906329988
C   C53       1.0  0.01750  0.69590  0.57430  1.0000 -0.1670529186
C   C54       1.0  0.12390  0.75510  0.64360  1.0000 0.0809429356
C   C55       1.0  0.17760  0.71960  0.61670  1.0000 0.0851637235
C   C56       1.0  0.21130  0.11600  0.99270  1.0000 -0.0906329988
C   C57       1.0  0.27260  0.78770  0.64560  1.0000 -0.1517657851
C   C58       1.0  0.15780  0.03030  0.89490  1.0000 -0.1517657851
C   C59       1.0  0.18550  0.58370  0.54430  1.0000 -0.0906329988
C   C60       1.0  0.13530  0.61820  0.56660  1.0000 -0.1517657851
C   C61       1.0  0.38610  0.44737  0.66553  1.0000 0.6378485223
C   C62       1.0  0.34878  0.42698  0.72084  1.0000 -0.0322683297
C   C63       1.0  0.85408  0.92340  0.70272  1.0000 -0.0322683297
C   C64       1.0  0.76415  0.81647  0.64968  1.0000 0.6378485223
C   C65       1.0  0.99393  0.03901  0.71996  1.0000 -0.1576317141
C   C66       1.0  0.90980  0.93972  0.66908  1.0000 -0.1000687941
C   C67       1.0  0.02616  0.12360  0.80834  1.0000 0.0809429356
C   C68       1.0  0.27230  0.39750  0.03170  1.0000 -0.0653777609
C   C69       1.0  0.12067  0.22976  0.86837  1.0000 0.0809429356
C   C70       1.0  0.18118  0.30004  0.97428  1.0000 -0.1517657851
C   C71       1.0  0.15275  0.25930  0.81905  1.0000 -0.1960301736
C   C72       1.0  0.24630  0.37560  0.67670  1.0000 -0.0906329988
C   C73       1.0  0.30410  0.42570  0.98250  1.0000 -0.1670529186
C   C74       1.0  0.24490  0.35640  0.87610  1.0000 0.0809429356
C   C75       1.0  0.28040  0.38330  0.82240  1.0000 0.0851637235
C   C76       1.0  0.88400  0.00730  0.78870  1.0000 -0.0906329988
C   C77       1.0  0.21230  0.35440  0.72740  1.0000 -0.1517657851
C   C78       1.0  0.96970  0.10510  0.84220  1.0000 -0.1517657851
C   C79       1.0  0.41630  0.45570  0.81450  1.0000 -0.0906329988
C   C80       1.0  0.38180  0.43340  0.86470  1.0000 -0.1517657851
C   C81       1.0  0.44737  0.66553  0.38610  1.0000 0.6378485223
C   C82       1.0  0.42698  0.72084  0.34878  1.0000 -0.0322683297
C   C83       1.0  0.92340  0.70272  0.85408  1.0000 -0.0322683297
C   C84       1.0  0.81647  0.64968  0.76415  1.0000 0.6378485223
C   C85       1.0  0.03901  0.71996  0.99393  1.0000 -0.1576317141
C   C86       1.0  0.93972  0.66908  0.90980  1.0000 -0.1000687941
C   C87       1.0  0.12360  0.80834  0.02616  1.0000 0.0809429356
C   C88       1.0  0.39750  0.03170  0.27230  1.0000 -0.0653777609
C   C89       1.0  0.22976  0.86837  0.12067  1.0000 0.0809429356
C   C90       1.0  0.30004  0.97428  0.18118  1.0000 -0.1517657851
C   C91       1.0  0.25930  0.81905  0.15275  1.0000 -0.1960301736
C   C92       1.0  0.37560  0.67670  0.24630  1.0000 -0.0906329988
C   C93       1.0  0.42570  0.98250  0.30410  1.0000 -0.1670529186
C   C94       1.0  0.35640  0.87610  0.24490  1.0000 0.0809429356
C   C95       1.0  0.38330  0.82240  0.28040  1.0000 0.0851637235
C   C96       1.0  0.00730  0.78870  0.88400  1.0000 -0.0906329988
C   C97       1.0  0.35440  0.72740  0.21230  1.0000 -0.1517657851
C   C98       1.0  0.10510  0.84220  0.96970  1.0000 -0.1517657851
C   C99       1.0  0.45570  0.81450  0.41630  1.0000 -0.0906329988
C   C100      1.0  0.43340  0.86470  0.38180  1.0000 -0.1517657851
C   C101      1.0  0.66553  0.38610  0.44737  1.0000 0.6378485223
C   C102      1.0  0.72084  0.34878  0.42698  1.0000 -0.0322683297
C   C103      1.0  0.70272  0.85408  0.92340  1.0000 -0.0322683297
C   C104      1.0  0.64968  0.76415  0.81647  1.0000 0.6378485223
C   C105      1.0  0.71996  0.99393  0.03901  1.0000 -0.1576317141
C   C106      1.0  0.66908  0.90980  0.93972  1.0000 -0.1000687941
C   C107      1.0  0.80834  0.02616  0.12360  1.0000 0.0809429356
C   C108      1.0  0.03170  0.27230  0.39750  1.0000 -0.0653777609
C   C109      1.0  0.86837  0.12067  0.22976  1.0000 0.0809429356
C   C110      1.0  0.97428  0.18118  0.30004  1.0000 -0.1517657851
C   C111      1.0  0.81905  0.15275  0.25930  1.0000 -0.1960301736
C   C112      1.0  0.67670  0.24630  0.37560  1.0000 -0.0906329988
C   C113      1.0  0.98250  0.30410  0.42570  1.0000 -0.1670529186
C   C114      1.0  0.87610  0.24490  0.35640  1.0000 0.0809429356
C   C115      1.0  0.82240  0.28040  0.38330  1.0000 0.0851637235
C   C116      1.0  0.78870  0.88400  0.00730  1.0000 -0.0906329988
C   C117      1.0  0.72740  0.21230  0.35440  1.0000 -0.1517657851
C   C118      1.0  0.84220  0.96970  0.10510  1.0000 -0.1517657851
C   C119      1.0  0.81450  0.41630  0.45570  1.0000 -0.0906329988
C   C120      1.0  0.86470  0.38180  0.43340  1.0000 -0.1517657851
O   O1        1.0  0.51814  0.50646  0.28848  1.0000 -0.597228372
O   O2        1.0  0.67991  0.58306  0.42199  1.0000 -0.5910366217
O   O3        1.0  0.31061  0.19506  0.35247  1.0000 -0.597228372
O   O4        1.0  0.22908  0.25356  0.38636  1.0000 -0.597228372
O   O5        1.0  0.56256  0.60301  0.47493  1.0000 -1.0857803861
O   O6        1.0  0.50646  0.28848  0.51814  1.0000 -0.597228372
O   O7        1.0  0.58306  0.42199  0.67991  1.0000 -0.5910366217
O   O8        1.0  0.19506  0.35247  0.31061  1.0000 -0.597228372
O   O9        1.0  0.25356  0.38636  0.22908  1.0000 -0.597228372
O   O10       1.0  0.60301  0.47493  0.56256  1.0000 -1.0857803861
O   O11       1.0  0.28848  0.51814  0.50646  1.0000 -0.597228372
O   O12       1.0  0.42199  0.67991  0.58306  1.0000 -0.5910366217
O   O13       1.0  0.35247  0.31061  0.19506  1.0000 -0.597228372
O   O14       1.0  0.38636  0.22908  0.25356  1.0000 -0.597228372
O   O15       1.0  0.47493  0.56256  0.60301  1.0000 -1.0857803861
O   O16       1.0  0.48186  0.49354  0.71152  1.0000 -0.597228372
O   O17       1.0  0.32009  0.41694  0.57801  1.0000 -0.5910366217
O   O18       1.0  0.68939  0.80494  0.64753  1.0000 -0.597228372
O   O19       1.0  0.77092  0.74644  0.61364  1.0000 -0.597228372
O   O20       1.0  0.43744  0.39699  0.52507  1.0000 -1.0857803861
O   O21       1.0  0.49354  0.71152  0.48186  1.0000 -0.597228372
O   O22       1.0  0.41694  0.57801  0.32009  1.0000 -0.5910366217
O   O23       1.0  0.80494  0.64753  0.68939  1.0000 -0.597228372
O   O24       1.0  0.74644  0.61364  0.77092  1.0000 -0.597228372
O   O25       1.0  0.39699  0.52507  0.43744  1.0000 -1.0857803861
O   O26       1.0  0.71152  0.48186  0.49354  1.0000 -0.597228372
O   O27       1.0  0.57801  0.32009  0.41694  1.0000 -0.5910366217
O   O28       1.0  0.64753  0.68939  0.80494  1.0000 -0.597228372
O   O29       1.0  0.61364  0.77092  0.74644  1.0000 -0.597228372
O   O30       1.0  0.52507  0.43744  0.39699  1.0000 -1.0857803861
O   O31       1.0  0.35823  0.35823  0.35823  1.0000 -1.0701309481
O   O32       1.0  0.64177  0.64177  0.64177  1.0000 -1.0701309481
