# DDEC6 charges by PACMAN v1.1 (https://github.com/mtap-research/PACMAN-charge/)
data_2018[Zr][pcu]3[FSR]9
_chemical_formula_sum              "Zr6 H84 C144 O32"
_cell_length_a       21.3004
_cell_length_b       21.3004
_cell_length_c       21.3004
_cell_angle_alpha    116.287
_cell_angle_beta     116.287
_cell_angle_gamma    116.287

_symmetry_space_group_name_H-M    "P 1"
_symmetry_Int_Tables_number       1

loop_
  _symmetry_equiv_pos_as_xyz
  'x, y, z'

loop_
  _atom_site_type_symbol
  _atom_site_label
  _atom_site_symmetry_multiplicity
  _atom_site_fract_x
  _atom_site_fract_y
  _atom_site_fract_z
  _atom_site_occupancy
  _atom_site_charge
Zr  Zr1       1.0  0.10859  0.17342  0.06196  1.0000 2.4049706683
Zr  Zr2       1.0  0.17342  0.06196  0.10859  1.0000 2.4056518301
Zr  Zr3       1.0  0.06196  0.10859  0.17342  1.0000 2.4049706683
Zr  Zr4       1.0  0.89141  0.82658  0.93804  1.0000 2.4056518301
Zr  Zr5       1.0  0.82658  0.93804  0.89141  1.0000 2.4056518301
Zr  Zr6       1.0  0.93804  0.89141  0.82658  1.0000 2.4056518301
H   H1        1.0  0.39438  0.39052  0.15939  1.0000 0.1201210358
H   H2        1.0  0.56337  0.53031  0.23677  1.0000 0.1201210358
H   H3        1.0  0.72027  0.52225  0.42268  1.0000 0.1114764437
H   H4        1.0  0.54787  0.37395  0.33755  1.0000 0.1201210358
H   H5        1.0  0.70014  0.59674  0.26198  1.0000 0.1201210358
H   H6        1.0  0.04886  0.88166  0.65465  1.0000 0.1201210358
H   H7        1.0  0.87821  0.72306  0.56002  1.0000 0.1201210358
H   H8        1.0  0.80299  0.71140  0.26093  1.0000 0.1201210358
H   H9        1.0  0.14694  0.02152  0.55554  1.0000 0.1201210358
H   H10       1.0  0.15285  0.99780  0.65258  1.0000 0.1267351732
H   H11       1.0  0.84536  0.71315  0.18021  1.0000 0.1201210358
H   H12       1.0  0.83501  0.73600  0.07932  1.0000 0.1201210358
H   H13       1.0  0.08145  0.07839  0.36712  1.0000 0.1201210358
H   H14       1.0  0.09269  0.05737  0.46902  1.0000 0.1201210358
H   H15       1.0  0.39052  0.15939  0.39438  1.0000 0.1201210358
H   H16       1.0  0.53031  0.23677  0.56337  1.0000 0.1201210358
H   H17       1.0  0.52225  0.42268  0.72027  1.0000 0.1114764437
H   H18       1.0  0.37395  0.33755  0.54787  1.0000 0.1201210358
H   H19       1.0  0.59674  0.26198  0.70014  1.0000 0.1201210358
H   H20       1.0  0.88166  0.65465  0.04886  1.0000 0.1201210358
H   H21       1.0  0.72306  0.56002  0.87821  1.0000 0.1201210358
H   H22       1.0  0.71140  0.26093  0.80299  1.0000 0.1201210358
H   H23       1.0  0.02152  0.55554  0.14694  1.0000 0.1201210358
H   H24       1.0  0.99780  0.65258  0.15285  1.0000 0.1267351732
H   H25       1.0  0.71315  0.18021  0.84536  1.0000 0.1201210358
H   H26       1.0  0.73600  0.07932  0.83501  1.0000 0.1201210358
H   H27       1.0  0.07839  0.36712  0.08145  1.0000 0.1201210358
H   H28       1.0  0.05737  0.46902  0.09269  1.0000 0.1201210358
H   H29       1.0  0.15939  0.39438  0.39052  1.0000 0.1201210358
H   H30       1.0  0.23677  0.56337  0.53031  1.0000 0.1201210358
H   H31       1.0  0.42268  0.72027  0.52225  1.0000 0.1114764437
H   H32       1.0  0.33755  0.54787  0.37395  1.0000 0.1201210358
H   H33       1.0  0.26198  0.70014  0.59674  1.0000 0.1201210358
H   H34       1.0  0.65465  0.04886  0.88166  1.0000 0.1201210358
H   H35       1.0  0.56002  0.87821  0.72306  1.0000 0.1201210358
H   H36       1.0  0.26093  0.80299  0.71140  1.0000 0.1201210358
H   H37       1.0  0.55554  0.14694  0.02152  1.0000 0.1201210358
H   H38       1.0  0.65258  0.15285  0.99780  1.0000 0.1267351732
H   H39       1.0  0.18021  0.84536  0.71315  1.0000 0.1201210358
H   H40       1.0  0.07932  0.83501  0.73600  1.0000 0.1201210358
H   H41       1.0  0.36712  0.08145  0.07839  1.0000 0.1201210358
H   H42       1.0  0.46902  0.09269  0.05737  1.0000 0.1201210358
H   H43       1.0  0.60562  0.60948  0.84061  1.0000 0.1201210358
H   H44       1.0  0.43663  0.46969  0.76323  1.0000 0.1201210358
H   H45       1.0  0.27973  0.47775  0.57732  1.0000 0.1114764437
H   H46       1.0  0.45213  0.62605  0.66245  1.0000 0.1201210358
H   H47       1.0  0.29986  0.40326  0.73802  1.0000 0.1201210358
H   H48       1.0  0.95114  0.11834  0.34535  1.0000 0.1201210358
H   H49       1.0  0.12179  0.27694  0.43998  1.0000 0.1201210358
H   H50       1.0  0.19701  0.28860  0.73907  1.0000 0.1201210358
H   H51       1.0  0.85306  0.97848  0.44446  1.0000 0.1201210358
H   H52       1.0  0.84715  0.00220  0.34742  1.0000 0.1267351732
H   H53       1.0  0.15464  0.28685  0.81979  1.0000 0.1201210358
H   H54       1.0  0.16499  0.26400  0.92068  1.0000 0.1201210358
H   H55       1.0  0.91855  0.92161  0.63288  1.0000 0.1201210358
H   H56       1.0  0.90731  0.94263  0.53098  1.0000 0.1201210358
H   H57       1.0  0.60948  0.84061  0.60562  1.0000 0.1201210358
H   H58       1.0  0.46969  0.76323  0.43663  1.0000 0.1201210358
H   H59       1.0  0.47775  0.57732  0.27973  1.0000 0.1114764437
H   H60       1.0  0.62605  0.66245  0.45213  1.0000 0.1201210358
H   H61       1.0  0.40326  0.73802  0.29986  1.0000 0.1201210358
H   H62       1.0  0.11834  0.34535  0.95114  1.0000 0.1201210358
H   H63       1.0  0.27694  0.43998  0.12179  1.0000 0.1201210358
H   H64       1.0  0.28860  0.73907  0.19701  1.0000 0.1201210358
H   H65       1.0  0.97848  0.44446  0.85306  1.0000 0.1201210358
H   H66       1.0  0.00220  0.34742  0.84715  1.0000 0.1267351732
H   H67       1.0  0.28685  0.81979  0.15464  1.0000 0.1201210358
H   H68       1.0  0.26400  0.92068  0.16499  1.0000 0.1201210358
H   H69       1.0  0.92161  0.63288  0.91855  1.0000 0.1201210358
H   H70       1.0  0.94263  0.53098  0.90731  1.0000 0.1201210358
H   H71       1.0  0.84061  0.60562  0.60948  1.0000 0.1201210358
H   H72       1.0  0.76323  0.43663  0.46969  1.0000 0.1201210358
H   H73       1.0  0.57732  0.27973  0.47775  1.0000 0.1114764437
H   H74       1.0  0.66245  0.45213  0.62605  1.0000 0.1201210358
H   H75       1.0  0.73802  0.29986  0.40326  1.0000 0.1201210358
H   H76       1.0  0.34535  0.95114  0.11834  1.0000 0.1201210358
H   H77       1.0  0.43998  0.12179  0.27694  1.0000 0.1201210358
H   H78       1.0  0.73907  0.19701  0.28860  1.0000 0.1201210358
H   H79       1.0  0.44446  0.85306  0.97848  1.0000 0.1201210358
H   H80       1.0  0.34742  0.84715  0.00220  1.0000 0.1267351732
H   H81       1.0  0.81979  0.15464  0.28685  1.0000 0.1201210358
H   H82       1.0  0.92068  0.16499  0.26400  1.0000 0.1201210358
H   H83       1.0  0.63288  0.91855  0.92161  1.0000 0.1201210358
H   H84       1.0  0.53098  0.90731  0.94263  1.0000 0.1201210358
C   C1        1.0  0.35157  0.29031  0.20252  1.0000 0.6362470612
C   C2        1.0  0.45758  0.37387  0.24695  1.0000 -0.0333045348
C   C3        1.0  0.46075  0.41781  0.21364  1.0000 -0.0910974368
C   C4        1.0  0.56176  0.50170  0.26064  1.0000 -0.159329135
C   C5        1.0  0.66007  0.54446  0.34157  1.0000 0.0823891233
C   C6        1.0  0.65420  0.49590  0.36960  1.0000 -0.1496947004
C   C7        1.0  0.55210  0.40890  0.32050  1.0000 -0.0831148091
C   C8        1.0  0.77073  0.64351  0.40006  1.0000 0.0715524778
C   C9        1.0  0.77056  0.65542  0.34182  1.0000 -0.1998246238
C   C10       1.0  0.87392  0.75404  0.39904  1.0000 0.0823891233
C   C11       1.0  0.97984  0.84080  0.51746  1.0000 0.0639478043
C   C12       1.0  0.97860  0.82550  0.57570  1.0000 -0.1408094987
C   C13       1.0  0.87742  0.73090  0.51918  1.0000 -0.1408094987
C   C14       1.0  0.87353  0.76968  0.34059  1.0000 -0.1998246238
C   C15       1.0  0.97276  0.86700  0.39664  1.0000 0.0715524778
C   C16       1.0  0.07799  0.95330  0.51561  1.0000 -0.1496947004
C   C17       1.0  0.08130  0.93980  0.57350  1.0000 -0.1496947004
C   C18       1.0  0.96901  0.88243  0.33456  1.0000 0.0823891233
C   C19       1.0  0.89327  0.78759  0.21864  1.0000 -0.159329135
C   C20       1.0  0.88719  0.80117  0.15834  1.0000 -0.0992050469
C   C21       1.0  0.95688  0.90907  0.21355  1.0000 -0.0333045348
C   C22       1.0  0.03326  0.00420  0.32914  1.0000 -0.0831148091
C   C23       1.0  0.03992  0.99170  0.38988  1.0000 -0.1496947004
C   C24       1.0  0.95255  0.92425  0.14990  1.0000 0.6362470612
C   C25       1.0  0.29031  0.20252  0.35157  1.0000 0.6362470612
C   C26       1.0  0.37387  0.24695  0.45758  1.0000 -0.0333045348
C   C27       1.0  0.41781  0.21364  0.46075  1.0000 -0.0910974368
C   C28       1.0  0.50170  0.26064  0.56176  1.0000 -0.159329135
C   C29       1.0  0.54446  0.34157  0.66007  1.0000 0.0823891233
C   C30       1.0  0.49590  0.36960  0.65420  1.0000 -0.1496947004
C   C31       1.0  0.40890  0.32050  0.55210  1.0000 -0.0831148091
C   C32       1.0  0.64351  0.40006  0.77073  1.0000 0.0715524778
C   C33       1.0  0.65542  0.34182  0.77056  1.0000 -0.1998246238
C   C34       1.0  0.75404  0.39904  0.87392  1.0000 0.0823891233
C   C35       1.0  0.84080  0.51746  0.97984  1.0000 0.0639478043
C   C36       1.0  0.82550  0.57570  0.97860  1.0000 -0.1408094987
C   C37       1.0  0.73090  0.51918  0.87742  1.0000 -0.1408094987
C   C38       1.0  0.76968  0.34059  0.87353  1.0000 -0.1998246238
C   C39       1.0  0.86700  0.39664  0.97276  1.0000 0.0715524778
C   C40       1.0  0.95330  0.51561  0.07799  1.0000 -0.1496947004
C   C41       1.0  0.93980  0.57350  0.08130  1.0000 -0.1496947004
C   C42       1.0  0.88243  0.33456  0.96901  1.0000 0.0823891233
C   C43       1.0  0.78759  0.21864  0.89327  1.0000 -0.159329135
C   C44       1.0  0.80117  0.15834  0.88719  1.0000 -0.0992050469
C   C45       1.0  0.90907  0.21355  0.95688  1.0000 -0.0333045348
C   C46       1.0  0.00420  0.32914  0.03326  1.0000 -0.0831148091
C   C47       1.0  0.99170  0.38988  0.03992  1.0000 -0.1496947004
C   C48       1.0  0.92425  0.14990  0.95255  1.0000 0.6362470612
C   C49       1.0  0.20252  0.35157  0.29031  1.0000 0.6362470612
C   C50       1.0  0.24695  0.45758  0.37387  1.0000 -0.0333045348
C   C51       1.0  0.21364  0.46075  0.41781  1.0000 -0.0910974368
C   C52       1.0  0.26064  0.56176  0.50170  1.0000 -0.159329135
C   C53       1.0  0.34157  0.66007  0.54446  1.0000 0.0823891233
C   C54       1.0  0.36960  0.65420  0.49590  1.0000 -0.1496947004
C   C55       1.0  0.32050  0.55210  0.40890  1.0000 -0.0831148091
C   C56       1.0  0.40006  0.77073  0.64351  1.0000 0.0715524778
C   C57       1.0  0.34182  0.77056  0.65542  1.0000 -0.1998246238
C   C58       1.0  0.39904  0.87392  0.75404  1.0000 0.0823891233
C   C59       1.0  0.51746  0.97984  0.84080  1.0000 0.0639478043
C   C60       1.0  0.57570  0.97860  0.82550  1.0000 -0.1408094987
C   C61       1.0  0.51918  0.87742  0.73090  1.0000 -0.1408094987
C   C62       1.0  0.34059  0.87353  0.76968  1.0000 -0.1998246238
C   C63       1.0  0.39664  0.97276  0.86700  1.0000 0.0715524778
C   C64       1.0  0.51561  0.07799  0.95330  1.0000 -0.1496947004
C   C65       1.0  0.57350  0.08130  0.93980  1.0000 -0.1496947004
C   C66       1.0  0.33456  0.96901  0.88243  1.0000 0.0823891233
C   C67       1.0  0.21864  0.89327  0.78759  1.0000 -0.159329135
C   C68       1.0  0.15834  0.88719  0.80117  1.0000 -0.0992050469
C   C69       1.0  0.21355  0.95688  0.90907  1.0000 -0.0333045348
C   C70       1.0  0.32914  0.03326  0.00420  1.0000 -0.0831148091
C   C71       1.0  0.38988  0.03992  0.99170  1.0000 -0.1496947004
C   C72       1.0  0.14990  0.95255  0.92425  1.0000 0.6362470612
C   C73       1.0  0.64843  0.70969  0.79748  1.0000 0.6362470612
C   C74       1.0  0.54242  0.62613  0.75305  1.0000 -0.0333045348
C   C75       1.0  0.53925  0.58219  0.78636  1.0000 -0.0910974368
C   C76       1.0  0.43824  0.49830  0.73936  1.0000 -0.159329135
C   C77       1.0  0.33993  0.45554  0.65843  1.0000 0.0823891233
C   C78       1.0  0.34580  0.50410  0.63040  1.0000 -0.1496947004
C   C79       1.0  0.44790  0.59110  0.67950  1.0000 -0.0831148091
C   C80       1.0  0.22927  0.35649  0.59994  1.0000 0.0715524778
C   C81       1.0  0.22944  0.34458  0.65818  1.0000 -0.1998246238
C   C82       1.0  0.12608  0.24596  0.60096  1.0000 0.0852879509
C   C83       1.0  0.02016  0.15920  0.48254  1.0000 0.0639478043
C   C84       1.0  0.02140  0.17450  0.42430  1.0000 -0.1408094987
C   C85       1.0  0.12258  0.26910  0.48082  1.0000 -0.1408094987
C   C86       1.0  0.12647  0.23032  0.65941  1.0000 -0.1998246238
C   C87       1.0  0.02724  0.13300  0.60336  1.0000 0.0715524778
C   C88       1.0  0.92201  0.04670  0.48439  1.0000 -0.1496947004
C   C89       1.0  0.91870  0.06020  0.42650  1.0000 -0.1496947004
C   C90       1.0  0.03099  0.11757  0.66544  1.0000 0.0823891233
C   C91       1.0  0.10673  0.21241  0.78136  1.0000 -0.159329135
C   C92       1.0  0.11281  0.19883  0.84166  1.0000 -0.0992050469
C   C93       1.0  0.04312  0.09093  0.78645  1.0000 -0.0333045348
C   C94       1.0  0.96674  0.99580  0.67086  1.0000 -0.0831148091
C   C95       1.0  0.96008  0.00830  0.61012  1.0000 -0.1496947004
C   C96       1.0  0.04745  0.07575  0.85010  1.0000 0.6362470612
C   C97       1.0  0.70969  0.79748  0.64843  1.0000 0.6362470612
C   C98       1.0  0.62613  0.75305  0.54242  1.0000 -0.0333045348
C   C99       1.0  0.58219  0.78636  0.53925  1.0000 -0.0910974368
C   C100      1.0  0.49830  0.73936  0.43824  1.0000 -0.159329135
C   C101      1.0  0.45554  0.65843  0.33993  1.0000 0.0823891233
C   C102      1.0  0.50410  0.63040  0.34580  1.0000 -0.1496947004
C   C103      1.0  0.59110  0.67950  0.44790  1.0000 -0.0831148091
C   C104      1.0  0.35649  0.59994  0.22927  1.0000 0.0715524778
C   C105      1.0  0.34458  0.65818  0.22944  1.0000 -0.1998246238
C   C106      1.0  0.24596  0.60096  0.12608  1.0000 0.0823891233
C   C107      1.0  0.15920  0.48254  0.02016  1.0000 0.0639478043
C   C108      1.0  0.17450  0.42430  0.02140  1.0000 -0.1408094987
C   C109      1.0  0.26910  0.48082  0.12258  1.0000 -0.1408094987
C   C110      1.0  0.23032  0.65941  0.12647  1.0000 -0.1998246238
C   C111      1.0  0.13300  0.60336  0.02724  1.0000 0.0715524778
C   C112      1.0  0.04670  0.48439  0.92201  1.0000 -0.1496947004
C   C113      1.0  0.06020  0.42650  0.91870  1.0000 -0.1496947004
C   C114      1.0  0.11757  0.66544  0.03099  1.0000 0.0823891233
C   C115      1.0  0.21241  0.78136  0.10673  1.0000 -0.159329135
C   C116      1.0  0.19883  0.84166  0.11281  1.0000 -0.0992050469
C   C117      1.0  0.09093  0.78645  0.04312  1.0000 -0.0333045348
C   C118      1.0  0.99580  0.67086  0.96674  1.0000 -0.0831148091
C   C119      1.0  0.00830  0.61012  0.96008  1.0000 -0.1496947004
C   C120      1.0  0.07575  0.85010  0.04745  1.0000 0.6362470612
C   C121      1.0  0.79748  0.64843  0.70969  1.0000 0.6362470612
C   C122      1.0  0.75305  0.54242  0.62613  1.0000 -0.0333045348
C   C123      1.0  0.78636  0.53925  0.58219  1.0000 -0.0910974368
C   C124      1.0  0.73936  0.43824  0.49830  1.0000 -0.159329135
C   C125      1.0  0.65843  0.33993  0.45554  1.0000 0.0823891233
C   C126      1.0  0.63040  0.34580  0.50410  1.0000 -0.1496947004
C   C127      1.0  0.67950  0.44790  0.59110  1.0000 -0.0831148091
C   C128      1.0  0.59994  0.22927  0.35649  1.0000 0.0715524778
C   C129      1.0  0.65818  0.22944  0.34458  1.0000 -0.1998246238
C   C130      1.0  0.60096  0.12608  0.24596  1.0000 0.0823891233
C   C131      1.0  0.48254  0.02016  0.15920  1.0000 0.0639478043
C   C132      1.0  0.42430  0.02140  0.17450  1.0000 -0.1408094987
C   C133      1.0  0.48082  0.12258  0.26910  1.0000 -0.1408094987
C   C134      1.0  0.65941  0.12647  0.23032  1.0000 -0.1998246238
C   C135      1.0  0.60336  0.02724  0.13300  1.0000 0.0715524778
C   C136      1.0  0.48439  0.92201  0.04670  1.0000 -0.1496947004
C   C137      1.0  0.42650  0.91870  0.06020  1.0000 -0.1496947004
C   C138      1.0  0.66544  0.03099  0.11757  1.0000 0.0823891233
C   C139      1.0  0.78136  0.10673  0.21241  1.0000 -0.159329135
C   C140      1.0  0.84166  0.11281  0.19883  1.0000 -0.0992050469
C   C141      1.0  0.78645  0.04312  0.09093  1.0000 -0.0333045348
C   C142      1.0  0.67086  0.96674  0.99580  1.0000 -0.0831148091
C   C143      1.0  0.61012  0.96008  0.00830  1.0000 -0.1496947004
C   C144      1.0  0.85010  0.04745  0.07575  1.0000 0.6362470612
O   O1        1.0  0.28644  0.29153  0.16683  1.0000 -0.5907626872
O   O2        1.0  0.33374  0.22579  0.20297  1.0000 -0.5781608448
O   O3        1.0  0.89782  0.84058  0.05250  1.0000 -0.5781608448
O   O4        1.0  0.00684  0.02233  0.20183  1.0000 -0.5907626872
O   O5        1.0  0.93870  0.00230  0.89330  1.0000 -1.0845237747
O   O6        1.0  0.29153  0.16683  0.28644  1.0000 -0.5907626872
O   O7        1.0  0.22579  0.20297  0.33374  1.0000 -0.5781608448
O   O8        1.0  0.84058  0.05250  0.89782  1.0000 -0.5781608448
O   O9        1.0  0.02233  0.20183  0.00684  1.0000 -0.5907626872
O   O10       1.0  0.00230  0.89330  0.93870  1.0000 -1.086894311
O   O11       1.0  0.16683  0.28644  0.29153  1.0000 -0.5907626872
O   O12       1.0  0.20297  0.33374  0.22579  1.0000 -0.5781608448
O   O13       1.0  0.05250  0.89782  0.84058  1.0000 -0.5781608448
O   O14       1.0  0.20183  0.00684  0.02233  1.0000 -0.5907626872
O   O15       1.0  0.89330  0.93870  0.00230  1.0000 -1.086894311
O   O16       1.0  0.71356  0.70847  0.83317  1.0000 -0.5907626872
O   O17       1.0  0.66626  0.77421  0.79703  1.0000 -0.5781608448
O   O18       1.0  0.10218  0.15942  0.94750  1.0000 -0.5781608448
O   O19       1.0  0.99316  0.97767  0.79817  1.0000 -0.5907626872
O   O20       1.0  0.06130  0.99770  0.10670  1.0000 -1.0845237747
O   O21       1.0  0.70847  0.83317  0.71356  1.0000 -0.5907626872
O   O22       1.0  0.77421  0.79703  0.66626  1.0000 -0.5781608448
O   O23       1.0  0.15942  0.94750  0.10218  1.0000 -0.5781608448
O   O24       1.0  0.97767  0.79817  0.99316  1.0000 -0.5907626872
O   O25       1.0  0.99770  0.10670  0.06130  1.0000 -1.086894311
O   O26       1.0  0.83317  0.71356  0.70847  1.0000 -0.5907626872
O   O27       1.0  0.79703  0.66626  0.77421  1.0000 -0.5781608448
O   O28       1.0  0.94750  0.10218  0.15942  1.0000 -0.5781608448
O   O29       1.0  0.79817  0.99316  0.97767  1.0000 -0.5907626872
O   O30       1.0  0.10670  0.06130  0.99770  1.0000 -1.086894311
O   O31       1.0  0.17077  0.17077  0.17077  1.0000 -1.0994655863
O   O32       1.0  0.82923  0.82923  0.82923  1.0000 -1.0994655863
