# DDEC6 charges by PACMAN v1.1 (https://github.com/mtap-research/PACMAN-charge/)
data_2018[ErCu][dia]3[FSR]1
_chemical_formula_sum              "Er2 Cu2 H32 C48 N8 O16"
_cell_length_a       16.7878
_cell_length_b       13.9872
_cell_length_c       12.882
_cell_angle_alpha    77.2131
_cell_angle_beta     54.3422
_cell_angle_gamma    48.4446

_symmetry_space_group_name_H-M    "P 1"
_symmetry_Int_Tables_number       1

loop_
  _symmetry_equiv_pos_as_xyz
  'x, y, z'

loop_
  _atom_site_type_symbol
  _atom_site_label
  _atom_site_symmetry_multiplicity
  _atom_site_fract_x
  _atom_site_fract_y
  _atom_site_fract_z
  _atom_site_occupancy
  _atom_site_charge
Er  Er1       1.0  0.29384  0.70616  0.70616  1.0000 1.9430054936
Er  Er2       1.0  0.54384  0.95616  0.95616  1.0000 1.9430054936
Cu  Cu1       1.0  0.03850  0.46150  0.46150  1.0000 0.2056602899
Cu  Cu2       1.0  0.78850  0.21150  0.21150  1.0000 0.2049318019
H   H1        1.0  0.93438  0.43208  0.36818  1.0000 0.098975417
H   H2        1.0  0.02106  0.36088  0.68334  1.0000 0.098975417
H   H3        1.0  0.07148  0.17608  0.76234  1.0000 0.1351824615
H   H4        1.0  0.75544  0.47154  0.43566  1.0000 0.1307748023
H   H5        1.0  0.27347  0.15325  0.31837  1.0000 0.1176634801
H   H6        1.0  0.34427  0.95879  0.38525  1.0000 0.1518074169
H   H7        1.0  0.56074  0.66814  0.79716  1.0000 0.1518074169
H   H8        1.0  0.74607  0.62509  0.72359  1.0000 0.1176634801
H   H9        1.0  0.26536  0.36818  0.43208  1.0000 0.098975417
H   H10       1.0  0.93472  0.68334  0.36088  1.0000 0.098975417
H   H11       1.0  0.99010  0.76234  0.17608  1.0000 0.1351824615
H   H12       1.0  0.33736  0.43566  0.47154  1.0000 0.1307748023
H   H13       1.0  0.25491  0.31837  0.15325  1.0000 0.1176634801
H   H14       1.0  0.31169  0.38525  0.95879  1.0000 0.1518074169
H   H15       1.0  0.97396  0.79716  0.66814  1.0000 0.1518074169
H   H16       1.0  0.90525  0.72359  0.62509  1.0000 0.1176634801
H   H17       1.0  0.81792  0.31562  0.98464  1.0000 0.098975417
H   H18       1.0  0.88912  0.22894  0.31528  1.0000 0.098975417
H   H19       1.0  0.07392  0.17852  0.25990  1.0000 0.1351824615
H   H20       1.0  0.77846  0.49456  0.91264  1.0000 0.1307748023
H   H21       1.0  0.09675  0.97653  0.99509  1.0000 0.1176634801
H   H22       1.0  0.29121  0.90573  0.93831  1.0000 0.1518074169
H   H23       1.0  0.58186  0.68926  0.27604  1.0000 0.1518074169
H   H24       1.0  0.62491  0.50393  0.34475  1.0000 0.1176634801
H   H25       1.0  0.88182  0.98464  0.31562  1.0000 0.098975417
H   H26       1.0  0.56666  0.31528  0.22894  1.0000 0.098975417
H   H27       1.0  0.48766  0.25990  0.17852  1.0000 0.1351824615
H   H28       1.0  0.81434  0.91264  0.49456  1.0000 0.1307748023
H   H29       1.0  0.93163  0.99509  0.97653  1.0000 0.1176634801
H   H30       1.0  0.86475  0.93831  0.90573  1.0000 0.1518074169
H   H31       1.0  0.45284  0.27604  0.68926  1.0000 0.1518074169
H   H32       1.0  0.52641  0.34475  0.50393  1.0000 0.1176634801
C   C1        1.0  0.85890  0.47950  0.45550  1.0000 0.0226158865
C   C2        1.0  0.08380  0.27940  0.62240  1.0000 0.0598608542
C   C3        1.0  0.11570  0.16770  0.67170  1.0000 -0.1617038485
C   C4        1.0  0.75220  0.50320  0.49560  1.0000 -0.1521665838
C   C5        1.0  0.24720  0.92480  0.62760  1.0000 0.5599864039
C   C6        1.0  0.51500  0.60920  0.66380  1.0000 0.5485976551
C   C7        1.0  0.21420  0.04620  0.58140  1.0000 0.0313557351
C   C8        1.0  0.23310  0.15810  0.40830  1.0000 0.0721396019
C   C9        1.0  0.27530  0.04030  0.44850  1.0000 -0.1226642982
C   C10       1.0  0.63710  0.57390  0.62450  1.0000 0.0313557351
C   C11       1.0  0.63630  0.61970  0.70990  1.0000 -0.1335480746
C   C12       1.0  0.74810  0.59330  0.66510  1.0000 0.0721396019
C   C13       1.0  0.20610  0.45550  0.47950  1.0000 0.0226158865
C   C14       1.0  0.01440  0.62240  0.27940  1.0000 0.0598608542
C   C15       1.0  0.04490  0.67170  0.16770  1.0000 -0.1617038485
C   C16       1.0  0.24900  0.49560  0.50320  1.0000 -0.1521665838
C   C17       1.0  0.20040  0.62760  0.92480  1.0000 0.5599864039
C   C18       1.0  0.21200  0.66380  0.60920  1.0000 0.5485976551
C   C19       1.0  0.15820  0.58140  0.04620  1.0000 0.0313557351
C   C20       1.0  0.20050  0.40830  0.15810  1.0000 0.0721396019
C   C21       1.0  0.23590  0.44850  0.04030  1.0000 -0.1226642982
C   C22       1.0  0.16450  0.62450  0.57390  1.0000 0.0313557351
C   C23       1.0  0.03410  0.70990  0.61970  1.0000 -0.1335480746
C   C24       1.0  0.99350  0.66510  0.59330  1.0000 0.0721396019
C   C25       1.0  0.77050  0.39110  0.04390  1.0000 0.0226158865
C   C26       1.0  0.97060  0.16620  0.23560  1.0000 0.0598608542
C   C27       1.0  0.08230  0.13430  0.20510  1.0000 -0.1617038485
C   C28       1.0  0.74680  0.49780  0.00100  1.0000 -0.1521665838
C   C29       1.0  0.32520  0.00280  0.04960  1.0000 0.5599864039
C   C30       1.0  0.64080  0.73500  0.03800  1.0000 0.5485976551
C   C31       1.0  0.20380  0.03580  0.09180  1.0000 0.0313557351
C   C32       1.0  0.09190  0.01690  0.04950  1.0000 0.0721396019
C   C33       1.0  0.20970  0.97470  0.01410  1.0000 -0.1226642982
C   C34       1.0  0.67610  0.61290  0.08550  1.0000 0.0313557351
C   C35       1.0  0.63030  0.61370  0.21590  1.0000 -0.1335480746
C   C36       1.0  0.65670  0.50190  0.25650  1.0000 0.0721396019
C   C37       1.0  0.79450  0.04390  0.39110  1.0000 0.0226158865
C   C38       1.0  0.62760  0.23560  0.16620  1.0000 0.0598608542
C   C39       1.0  0.57830  0.20510  0.13430  1.0000 -0.1617038485
C   C40       1.0  0.75440  0.00100  0.49780  1.0000 -0.1521665838
C   C41       1.0  0.62240  0.04960  0.00280  1.0000 0.5599864039
C   C42       1.0  0.58620  0.03800  0.73500  1.0000 0.5485976551
C   C43       1.0  0.66860  0.09180  0.03580  1.0000 0.0313557351
C   C44       1.0  0.84170  0.04950  0.01690  1.0000 0.0721396019
C   C45       1.0  0.80150  0.01410  0.97470  1.0000 -0.1226642982
C   C46       1.0  0.62550  0.08550  0.61290  1.0000 0.0313557351
C   C47       1.0  0.54010  0.21590  0.61370  1.0000 -0.1335480746
C   C48       1.0  0.58490  0.25650  0.50190  1.0000 0.0721396019
N   N1        1.0  0.13620  0.27680  0.49660  1.0000 -0.2005971179
N   N2        1.0  0.85970  0.52330  0.54010  1.0000 -0.2005971179
N   N3        1.0  0.09040  0.49660  0.27680  1.0000 -0.2005971179
N   N4        1.0  0.07690  0.54010  0.52330  1.0000 -0.2005971179
N   N5        1.0  0.97320  0.11380  0.15960  1.0000 -0.2005971179
N   N6        1.0  0.72670  0.39030  0.17310  1.0000 -0.2005971179
N   N7        1.0  0.75340  0.15960  0.11380  1.0000 -0.2005971179
N   N8        1.0  0.70990  0.17310  0.39030  1.0000 -0.2005971179
O   O1        1.0  0.52600  0.54940  0.58860  1.0000 -0.6360789921
O   O2        1.0  0.17210  0.93650  0.74910  1.0000 -0.631159493
O   O3        1.0  0.34500  0.81280  0.54260  1.0000 -0.6182683047
O   O4        1.0  0.40420  0.69760  0.76940  1.0000 -0.6182683047
O   O5        1.0  0.33600  0.58860  0.54940  1.0000 -0.6360789921
O   O6        1.0  0.14230  0.74910  0.93650  1.0000 -0.631159493
O   O7        1.0  0.29960  0.54260  0.81280  1.0000 -0.6182683047
O   O8        1.0  0.12880  0.76940  0.69760  1.0000 -0.6182683047
O   O9        1.0  0.70060  0.72400  0.91400  1.0000 -0.6360789921
O   O10       1.0  0.31350  0.07790  0.10770  1.0000 -0.631159493
O   O11       1.0  0.43720  0.90500  0.95040  1.0000 -0.6182683047
O   O12       1.0  0.55240  0.84580  0.12120  1.0000 -0.6182683047
O   O13       1.0  0.66140  0.91400  0.72400  1.0000 -0.6360789921
O   O14       1.0  0.50090  0.10770  0.07790  1.0000 -0.631159493
O   O15       1.0  0.70740  0.95040  0.90500  1.0000 -0.6182683047
O   O16       1.0  0.48060  0.12120  0.84580  1.0000 -0.6182683047
