# DDEC6 charges by PACMAN v1.1 (https://github.com/mtap-research/PACMAN-charge/)
data_2018[Cu][sra]3[FSR]1
_chemical_formula_sum              "Cu4 H36 C52 N32"
_cell_length_a       9.445
_cell_length_b       11.272
_cell_length_c       18.2539
_cell_angle_alpha    90
_cell_angle_beta     114.926
_cell_angle_gamma    90

_symmetry_space_group_name_H-M    "P 1"
_symmetry_Int_Tables_number       1

loop_
  _symmetry_equiv_pos_as_xyz
  'x, y, z'

loop_
  _atom_site_type_symbol
  _atom_site_label
  _atom_site_symmetry_multiplicity
  _atom_site_fract_x
  _atom_site_fract_y
  _atom_site_fract_z
  _atom_site_occupancy
  _atom_site_charge
Cu  Cu1       1.0  0.36935  0.20982  0.18672  1.0000 0.2477706651
Cu  Cu2       1.0  0.63065  0.70982  0.31328  1.0000 0.2477706651
Cu  Cu3       1.0  0.63065  0.79018  0.81328  1.0000 0.2477706651
Cu  Cu4       1.0  0.36935  0.29018  0.68672  1.0000 0.2477706651
H   H1        1.0  0.45788  0.37053  0.86211  1.0000 0.1283159981
H   H2        1.0  0.37956  0.18968  0.90731  1.0000 0.1283159981
H   H3        1.0  0.29080  0.69640  0.77986  1.0000 0.1369391381
H   H4        1.0  0.17583  0.86862  0.81401  1.0000 0.1283159981
H   H5        1.0  0.91294  0.62631  0.85662  1.0000 0.104202168
H   H6        1.0  0.14998  0.52593  0.93182  1.0000 0.1369391381
H   H7        1.0  0.29108  0.41054  0.05257  1.0000 0.104202168
H   H8        1.0  0.92634  0.95649  0.79430  1.0000 0.1146567966
H   H9        1.0  0.40601  0.08437  0.02942  1.0000 0.1233131643
H   H10       1.0  0.54212  0.87053  0.63789  1.0000 0.1283159981
H   H11       1.0  0.62044  0.68968  0.59269  1.0000 0.1283159981
H   H12       1.0  0.70920  0.19640  0.72014  1.0000 0.1369391381
H   H13       1.0  0.82417  0.36862  0.68599  1.0000 0.1283159981
H   H14       1.0  0.08706  0.12631  0.64338  1.0000 0.104202168
H   H15       1.0  0.85002  0.02593  0.56818  1.0000 0.1369391381
H   H16       1.0  0.70892  0.91054  0.44743  1.0000 0.104202168
H   H17       1.0  0.07366  0.45649  0.70570  1.0000 0.1146567966
H   H18       1.0  0.59399  0.58437  0.47058  1.0000 0.1233131643
H   H19       1.0  0.54212  0.62947  0.13789  1.0000 0.1283159981
H   H20       1.0  0.62044  0.81032  0.09269  1.0000 0.1283159981
H   H21       1.0  0.70920  0.30360  0.22014  1.0000 0.1369391381
H   H22       1.0  0.82417  0.13138  0.18599  1.0000 0.1283159981
H   H23       1.0  0.08706  0.37369  0.14338  1.0000 0.104202168
H   H24       1.0  0.85002  0.47407  0.06818  1.0000 0.1369391381
H   H25       1.0  0.70892  0.58946  0.94743  1.0000 0.104202168
H   H26       1.0  0.07366  0.04351  0.20570  1.0000 0.1146567966
H   H27       1.0  0.59399  0.91563  0.97058  1.0000 0.1233131643
H   H28       1.0  0.45788  0.12947  0.36211  1.0000 0.1283159981
H   H29       1.0  0.37956  0.31032  0.40731  1.0000 0.1283159981
H   H30       1.0  0.29080  0.80360  0.27986  1.0000 0.1369391381
H   H31       1.0  0.17583  0.63138  0.31401  1.0000 0.1283159981
H   H32       1.0  0.91294  0.87369  0.35662  1.0000 0.104202168
H   H33       1.0  0.14998  0.97407  0.43182  1.0000 0.1369391381
H   H34       1.0  0.29108  0.08946  0.55257  1.0000 0.104202168
H   H35       1.0  0.92634  0.54351  0.29430  1.0000 0.1146567966
H   H36       1.0  0.40601  0.41563  0.52942  1.0000 0.1233131643
C   C1        1.0  0.39546  0.43500  0.86076  1.0000 -0.2405596457
C   C2        1.0  0.36490  0.22130  0.95070  1.0000 -0.1087590876
C   C3        1.0  0.29290  0.62940  0.81000  1.0000 -0.2405596457
C   C4        1.0  0.38845  0.53330  0.81325  1.0000 0.0756857674
C   C5        1.0  0.48102  0.53390  0.76492  1.0000 0.2445400486
C   C6        1.0  0.09410  0.83070  0.82020  1.0000 -0.1087590876
C   C7        1.0  0.30860  0.43370  0.90630  1.0000 0.2004093582
C   C8        1.0  0.94630  0.69750  0.84350  1.0000 0.0902558704
C   C9        1.0  0.20070  0.62330  0.85270  1.0000 0.2004093582
C   C10       1.0  0.20930  0.52750  0.90210  1.0000 -0.2845468317
C   C11       1.0  0.31630  0.34230  0.03200  1.0000 0.0902558704
C   C12       1.0  0.95530  0.87830  0.80930  1.0000 -0.0360139665
C   C13       1.0  0.37920  0.16390  0.01850  1.0000 -0.0360139665
C   C14       1.0  0.60454  0.93500  0.63924  1.0000 -0.2405596457
C   C15       1.0  0.63510  0.72130  0.54930  1.0000 -0.1087590876
C   C16       1.0  0.70710  0.12940  0.69000  1.0000 -0.2405596457
C   C17       1.0  0.61155  0.03330  0.68675  1.0000 0.0756857674
C   C18       1.0  0.51898  0.03390  0.73508  1.0000 0.2445400486
C   C19       1.0  0.90590  0.33070  0.67980  1.0000 -0.1087590876
C   C20       1.0  0.69140  0.93370  0.59370  1.0000 0.2004093582
C   C21       1.0  0.05370  0.19750  0.65650  1.0000 0.0902558704
C   C22       1.0  0.79930  0.12330  0.64730  1.0000 0.2004093582
C   C23       1.0  0.79070  0.02750  0.59790  1.0000 -0.2845468317
C   C24       1.0  0.68370  0.84230  0.46800  1.0000 0.0902558704
C   C25       1.0  0.04470  0.37830  0.69070  1.0000 -0.0344634206
C   C26       1.0  0.62080  0.66390  0.48150  1.0000 -0.0360139665
C   C27       1.0  0.60454  0.56500  0.13924  1.0000 -0.2405596457
C   C28       1.0  0.63510  0.77870  0.04930  1.0000 -0.1087590876
C   C29       1.0  0.70710  0.37060  0.19000  1.0000 -0.2405596457
C   C30       1.0  0.61155  0.46670  0.18675  1.0000 0.0756857674
C   C31       1.0  0.51898  0.46610  0.23508  1.0000 0.2445400486
C   C32       1.0  0.90590  0.16930  0.17980  1.0000 -0.1087590876
C   C33       1.0  0.69140  0.56630  0.09370  1.0000 0.2004093582
C   C34       1.0  0.05370  0.30250  0.15650  1.0000 0.0902558704
C   C35       1.0  0.79930  0.37670  0.14730  1.0000 0.2004093582
C   C36       1.0  0.79070  0.47250  0.09790  1.0000 -0.2845468317
C   C37       1.0  0.68370  0.65770  0.96800  1.0000 0.0902558704
C   C38       1.0  0.04470  0.12170  0.19070  1.0000 -0.0360139665
C   C39       1.0  0.62080  0.83610  0.98150  1.0000 -0.0360139665
C   C40       1.0  0.39546  0.06500  0.36076  1.0000 -0.2405596457
C   C41       1.0  0.36490  0.27870  0.45070  1.0000 -0.1087590876
C   C42       1.0  0.29290  0.87060  0.31000  1.0000 -0.2405596457
C   C43       1.0  0.38845  0.96670  0.31325  1.0000 0.0756857674
C   C44       1.0  0.48102  0.96610  0.26492  1.0000 0.2445400486
C   C45       1.0  0.09410  0.66930  0.32020  1.0000 -0.1087590876
C   C46       1.0  0.30860  0.06630  0.40630  1.0000 0.2004093582
C   C47       1.0  0.94630  0.80250  0.34350  1.0000 0.0902558704
C   C48       1.0  0.20070  0.87670  0.35270  1.0000 0.2004093582
C   C49       1.0  0.20930  0.97250  0.40210  1.0000 -0.2845468317
C   C50       1.0  0.31630  0.15770  0.53200  1.0000 0.0902558704
C   C51       1.0  0.95530  0.62170  0.30930  1.0000 -0.0360139665
C   C52       1.0  0.37920  0.33610  0.51850  1.0000 -0.0360139665
N   N1        1.0  0.08946  0.71390  0.84246  1.0000 0.0034724536
N   N2        1.0  0.86210  0.79500  0.82360  1.0000 -0.2526660432
N   N3        1.0  0.56307  0.62670  0.75757  1.0000 -0.2572514062
N   N4        1.0  0.49414  0.44020  0.72364  1.0000 -0.2405596457
N   N5        1.0  0.32396  0.33660  0.95906  1.0000 0.0034724536
N   N6        1.0  0.34849  0.24010  0.06929  1.0000 -0.2526660432
N   N7        1.0  0.63017  0.58660  0.70927  1.0000 -0.1017523399
N   N8        1.0  0.58902  0.47640  0.68942  1.0000 -0.1017523399
N   N9        1.0  0.91054  0.21390  0.65754  1.0000 0.0034724536
N   N10       1.0  0.13790  0.29500  0.67640  1.0000 -0.2526660432
N   N11       1.0  0.43693  0.12670  0.74243  1.0000 -0.2572514062
N   N12       1.0  0.50586  0.94020  0.77636  1.0000 -0.2405596457
N   N13       1.0  0.67604  0.83660  0.54094  1.0000 0.0034724536
N   N14       1.0  0.65151  0.74010  0.43071  1.0000 -0.2526660432
N   N15       1.0  0.36983  0.08660  0.79073  1.0000 -0.1017523399
N   N16       1.0  0.41098  0.97640  0.81058  1.0000 -0.1017523399
N   N17       1.0  0.91054  0.28610  0.15754  1.0000 0.0034724536
N   N18       1.0  0.13790  0.20500  0.17640  1.0000 -0.2526660432
N   N19       1.0  0.43693  0.37330  0.24243  1.0000 -0.2572514062
N   N20       1.0  0.50586  0.55980  0.27636  1.0000 -0.2405596457
N   N21       1.0  0.67604  0.66340  0.04094  1.0000 0.0034724536
N   N22       1.0  0.65151  0.75990  0.93071  1.0000 -0.2526660432
N   N23       1.0  0.36983  0.41340  0.29073  1.0000 -0.1017523399
N   N24       1.0  0.41098  0.52360  0.31058  1.0000 -0.1017523399
N   N25       1.0  0.08946  0.78610  0.34246  1.0000 0.0034724536
N   N26       1.0  0.86210  0.70500  0.32360  1.0000 -0.2526660432
N   N27       1.0  0.56307  0.87330  0.25757  1.0000 -0.2572514062
N   N28       1.0  0.49414  0.05980  0.22364  1.0000 -0.2405596457
N   N29       1.0  0.32396  0.16340  0.45906  1.0000 0.0034724536
N   N30       1.0  0.34849  0.25990  0.56929  1.0000 -0.2526660432
N   N31       1.0  0.63017  0.91340  0.20927  1.0000 -0.1017523399
N   N32       1.0  0.58902  0.02360  0.18942  1.0000 -0.1017523399
