# DDEC6 charges by PACMAN v1.1 (https://github.com/mtap-research/PACMAN-charge/)
data_2018[Cd][kgd]2[FSR]1
_chemical_formula_sum              "Cd2 H38 C46 N6 O12"
_cell_length_a       10.105
_cell_length_b       10.389
_cell_length_c       13.648
_cell_angle_alpha    100.938
_cell_angle_beta     92.764
_cell_angle_gamma    113.31

_symmetry_space_group_name_H-M    "P 1"
_symmetry_Int_Tables_number       1

loop_
  _symmetry_equiv_pos_as_xyz
  'x, y, z'

loop_
  _atom_site_type_symbol
  _atom_site_label
  _atom_site_symmetry_multiplicity
  _atom_site_fract_x
  _atom_site_fract_y
  _atom_site_fract_z
  _atom_site_occupancy
  _atom_site_charge
Cd  Cd1       1.0  0.54211  0.64497  0.91104  1.0000 0.9216215798
Cd  Cd2       1.0  0.45789  0.35503  0.08896  1.0000 0.9216215798
H   H1        1.0  0.47120  0.88260  0.09520  1.0000 0.1301119232
H   H2        1.0  0.35130  0.07110  0.33980  1.0000 0.1388897263
H   H3        1.0  0.37830  0.69340  0.33010  1.0000 0.1301119232
H   H4        1.0  0.04140  0.99760  0.58580  1.0000 0.1301119232
H   H5        1.0  0.95010  0.94950  0.73530  1.0000 0.121411079
H   H6        1.0  0.24420  0.80330  0.79070  1.0000 0.121411079
H   H7        1.0  0.32620  0.83570  0.64000  1.0000 0.1117254236
H   H8        1.0  0.81620  0.75290  0.80770  1.0000 0.1117254236
H   H9        1.0  0.83710  0.76110  0.09270  1.0000 0.0999048763
H   H10       1.0  0.08730  0.86970  0.11060  1.0000 0.121411079
H   H11       1.0  0.20680  0.90620  0.96950  1.0000 0.1301119232
H   H12       1.0  0.33620  0.82360  0.48210  1.0000 0.2766626664
H   H13       1.0  0.15250  0.43210  0.69790  1.0000 0.1388897263
H   H14       1.0  0.99560  0.31470  0.69620  1.0000 0.1388897263
H   H15       1.0  0.01670  0.46520  0.67690  1.0000 0.1301119232
H   H16       1.0  0.20660  0.57810  0.95470  1.0000 0.1117254236
H   H17       1.0  0.97530  0.56750  0.90510  1.0000 0.1117254236
H   H18       1.0  0.86340  0.42480  0.83170  1.0000 0.1388897263
H   H19       1.0  0.95290  0.41650  0.92550  1.0000 0.1117254236
H   H20       1.0  0.52880  0.11740  0.90480  1.0000 0.1301119232
H   H21       1.0  0.64870  0.92890  0.66020  1.0000 0.1388897263
H   H22       1.0  0.62170  0.30660  0.66990  1.0000 0.1301119232
H   H23       1.0  0.95860  0.00240  0.41420  1.0000 0.1301119232
H   H24       1.0  0.04990  0.05050  0.26470  1.0000 0.121411079
H   H25       1.0  0.75580  0.19670  0.20930  1.0000 0.121411079
H   H26       1.0  0.67380  0.16430  0.36000  1.0000 0.1117254236
H   H27       1.0  0.18380  0.24710  0.19230  1.0000 0.1117254236
H   H28       1.0  0.16290  0.23890  0.90730  1.0000 0.0999048763
H   H29       1.0  0.91270  0.13030  0.88940  1.0000 0.121411079
H   H30       1.0  0.79320  0.09380  0.03050  1.0000 0.1301119232
H   H31       1.0  0.66380  0.17640  0.51790  1.0000 0.2766626664
H   H32       1.0  0.84750  0.56790  0.30210  1.0000 0.1388897263
H   H33       1.0  0.00440  0.68530  0.30380  1.0000 0.1388897263
H   H34       1.0  0.98330  0.53480  0.32310  1.0000 0.1301119232
H   H35       1.0  0.79340  0.42190  0.04530  1.0000 0.1117254236
H   H36       1.0  0.02470  0.43250  0.09490  1.0000 0.1117254236
H   H37       1.0  0.13660  0.57520  0.16830  1.0000 0.1388897263
H   H38       1.0  0.04710  0.58350  0.07450  1.0000 0.1117254236
C   C1        1.0  0.43230  0.12510  0.16710  1.0000 0.526505489
C   C2        1.0  0.45950  0.64550  0.15100  1.0000 0.5561642536
C   C3        1.0  0.42860  0.76810  0.20360  1.0000 -0.0127431777
C   C4        1.0  0.44250  0.88190  0.15890  1.0000 -0.1610849983
C   C5        1.0  0.41300  0.99470  0.21070  1.0000 -0.0028311071
C   C6        1.0  0.37060  0.99500  0.30630  1.0000 -0.2145518995
C   C7        1.0  0.35670  0.88230  0.35240  1.0000 0.2195683234
C   C8        1.0  0.38650  0.76910  0.30020  1.0000 -0.2379342205
C   C9        1.0  0.23690  0.94490  0.49700  1.0000 0.4634992668
C   C10       1.0  0.19140  0.91870  0.59780  1.0000 -0.0257291011
C   C11       1.0  0.08100  0.95500  0.62600  1.0000 -0.0854350216
C   C12       1.0  0.02770  0.92790  0.71700  1.0000 -0.1513633317
C   C13       1.0  0.08780  0.87020  0.77870  1.0000 0.076765705
C   C14       1.0  0.19980  0.83990  0.74880  1.0000 -0.1292576305
C   C15       1.0  0.25090  0.86100  0.65890  1.0000 -0.1292576305
C   C16       1.0  0.02170  0.83810  0.87330  1.0000 0.0261510407
C   C17       1.0  0.87150  0.77620  0.87010  1.0000 -0.0028311071
C   C18       1.0  0.88210  0.78070  0.03620  1.0000 0.0466841311
C   C19       1.0  0.03410  0.84420  0.04720  1.0000 -0.1513633317
C   C20       1.0  0.10590  0.86950  0.96400  1.0000 -0.1010722256
C   C21       1.0  0.05700  0.41600  0.71400  1.0000 -0.2957552484
C   C22       1.0  0.20000  0.53700  0.88700  1.0000 0.1539039873
C   C23       1.0  0.95500  0.46900  0.87500  1.0000 -0.3574434034
C   C24       1.0  0.56770  0.87490  0.83290  1.0000 0.526505489
C   C25       1.0  0.54050  0.35450  0.84900  1.0000 0.5561642536
C   C26       1.0  0.57140  0.23190  0.79640  1.0000 -0.0127431777
C   C27       1.0  0.55750  0.11810  0.84110  1.0000 -0.1610849983
C   C28       1.0  0.58700  0.00530  0.78930  1.0000 -0.0028311071
C   C29       1.0  0.62940  0.00500  0.69370  1.0000 -0.2145518995
C   C30       1.0  0.64330  0.11770  0.64760  1.0000 0.2195683234
C   C31       1.0  0.61350  0.23090  0.69980  1.0000 -0.2379342205
C   C32       1.0  0.76310  0.05510  0.50300  1.0000 0.4634992668
C   C33       1.0  0.80860  0.08130  0.40220  1.0000 -0.0257291011
C   C34       1.0  0.91900  0.04500  0.37400  1.0000 -0.0842433832
C   C35       1.0  0.97230  0.07210  0.28300  1.0000 -0.1513633317
C   C36       1.0  0.91220  0.12980  0.22130  1.0000 0.076765705
C   C37       1.0  0.80020  0.16010  0.25120  1.0000 -0.1292576305
C   C38       1.0  0.74910  0.13900  0.34110  1.0000 -0.1292576305
C   C39       1.0  0.97830  0.16190  0.12670  1.0000 0.0261510407
C   C40       1.0  0.12850  0.22380  0.12990  1.0000 -0.0028311071
C   C41       1.0  0.11790  0.21930  0.96380  1.0000 0.0466841311
C   C42       1.0  0.96590  0.15580  0.95280  1.0000 -0.1513633317
C   C43       1.0  0.89410  0.13050  0.03600  1.0000 -0.1010722256
C   C44       1.0  0.94300  0.58400  0.28600  1.0000 -0.2957552484
C   C45       1.0  0.80000  0.46300  0.11300  1.0000 0.1539039873
C   C46       1.0  0.04500  0.53100  0.12500  1.0000 -0.3574434034
N   N1        1.0  0.31210  0.87650  0.45010  1.0000 -0.3776055834
N   N2        1.0  0.79860  0.74690  0.94840  1.0000 -0.2478339485
N   N3        1.0  0.06400  0.46800  0.81600  1.0000 0.021209743
N   N4        1.0  0.68790  0.12350  0.54990  1.0000 -0.3776055834
N   N5        1.0  0.20140  0.25310  0.05160  1.0000 -0.2478339485
N   N6        1.0  0.93600  0.53200  0.18400  1.0000 0.021209743
O   O1        1.0  0.42740  0.23270  0.22320  1.0000 -0.5403315834
O   O2        1.0  0.45320  0.12080  0.07730  1.0000 -0.5403315834
O   O3        1.0  0.51080  0.64780  0.07120  1.0000 -0.5520390085
O   O4        1.0  0.43060  0.53960  0.18960  1.0000 -0.5101062468
O   O5        1.0  0.20500  0.02800  0.45890  1.0000 -0.4533801488
O   O6        1.0  0.29510  0.53470  0.84800  1.0000 -0.2379342205
O   O7        1.0  0.57260  0.76730  0.77680  1.0000 -0.5403315834
O   O8        1.0  0.54680  0.87920  0.92270  1.0000 -0.5403315834
O   O9        1.0  0.48920  0.35220  0.92880  1.0000 -0.5520390085
O   O10       1.0  0.56940  0.46040  0.81040  1.0000 -0.5101062468
O   O11       1.0  0.79500  0.97200  0.54110  1.0000 -0.4533801488
O   O12       1.0  0.70490  0.46530  0.15200  1.0000 -0.2379342205
