# DDEC6 charges by PACMAN v1.1 (https://github.com/mtap-research/PACMAN-charge/)
data_2018[CoAg][pts]3[FSR]1
_chemical_formula_sum              "Co4 Ag8 H88 C136 N40 O16"
_cell_length_a       14.536
_cell_length_b       18.201
_cell_length_c       18.302
_cell_angle_alpha    90
_cell_angle_beta     90
_cell_angle_gamma    90

_symmetry_space_group_name_H-M    "P 1"
_symmetry_Int_Tables_number       1

loop_
  _symmetry_equiv_pos_as_xyz
  'x, y, z'

loop_
  _atom_site_type_symbol
  _atom_site_label
  _atom_site_symmetry_multiplicity
  _atom_site_fract_x
  _atom_site_fract_y
  _atom_site_fract_z
  _atom_site_occupancy
  _atom_site_charge
Co  Co1       1.0  0.58021  0.00000  0.25000  1.0000 0.5300728009
Co  Co2       1.0  0.91979  0.50000  0.25000  1.0000 0.5300728009
Co  Co3       1.0  0.41979  0.00000  0.75000  1.0000 0.5300728009
Co  Co4       1.0  0.08021  0.50000  0.75000  1.0000 0.5300728009
Ag  Ag1       1.0  0.84780  0.20007  0.95804  1.0000 0.2094575689
Ag  Ag2       1.0  0.84780  0.79993  0.54196  1.0000 0.2094575689
Ag  Ag3       1.0  0.65220  0.70007  0.54196  1.0000 0.2094575689
Ag  Ag4       1.0  0.65220  0.29993  0.95804  1.0000 0.2094575689
Ag  Ag5       1.0  0.15220  0.79993  0.04196  1.0000 0.2094575689
Ag  Ag6       1.0  0.15220  0.20007  0.45804  1.0000 0.2094575689
Ag  Ag7       1.0  0.34780  0.29993  0.45804  1.0000 0.2094575689
Ag  Ag8       1.0  0.34780  0.70007  0.04196  1.0000 0.2094575689
H   H1        1.0  0.47549  0.77733  0.36327  1.0000 0.1381592751
H   H2        1.0  0.54910  0.70192  0.28567  1.0000 0.1250377522
H   H3        1.0  0.64162  0.74749  0.19305  1.0000 0.1500311327
H   H4        1.0  0.67841  0.96700  0.03283  1.0000 0.1500311327
H   H5        1.0  0.74142  0.05283  0.95626  1.0000 0.0992761861
H   H6        1.0  0.31530  0.19818  0.32413  1.0000 0.0906166677
H   H7        1.0  0.36191  0.08699  0.27822  1.0000 0.1500311327
H   H8        1.0  0.51993  0.05995  0.45428  1.0000 0.1500311327
H   H9        1.0  0.46605  0.16767  0.49836  1.0000 0.0992761861
H   H10       1.0  0.83227  0.16611  0.11832  1.0000 0.0992761861
H   H11       1.0  0.77241  0.08323  0.19945  1.0000 0.1381592751
H   H12       1.0  0.47549  0.22267  0.13673  1.0000 0.1381592751
H   H13       1.0  0.54910  0.29808  0.21433  1.0000 0.1250377522
H   H14       1.0  0.64162  0.25251  0.30695  1.0000 0.1500311327
H   H15       1.0  0.67841  0.03300  0.46717  1.0000 0.1500311327
H   H16       1.0  0.74142  0.94717  0.54374  1.0000 0.0992761861
H   H17       1.0  0.31530  0.80182  0.17587  1.0000 0.0906166677
H   H18       1.0  0.36191  0.91301  0.22178  1.0000 0.1500311327
H   H19       1.0  0.51993  0.94005  0.04572  1.0000 0.1500311327
H   H20       1.0  0.46605  0.83233  0.00164  1.0000 0.0992761861
H   H21       1.0  0.83227  0.83389  0.38168  1.0000 0.0992761861
H   H22       1.0  0.77241  0.91677  0.30055  1.0000 0.1381592751
H   H23       1.0  0.02451  0.27733  0.13673  1.0000 0.1381592751
H   H24       1.0  0.95090  0.20192  0.21433  1.0000 0.1250377522
H   H25       1.0  0.85838  0.24749  0.30695  1.0000 0.1500311327
H   H26       1.0  0.82159  0.46700  0.46717  1.0000 0.1500311327
H   H27       1.0  0.75858  0.55283  0.54374  1.0000 0.0992761861
H   H28       1.0  0.18470  0.69818  0.17587  1.0000 0.0906166677
H   H29       1.0  0.13809  0.58699  0.22178  1.0000 0.1500311327
H   H30       1.0  0.98007  0.55995  0.04572  1.0000 0.1500311327
H   H31       1.0  0.03395  0.66767  0.00164  1.0000 0.0992761861
H   H32       1.0  0.66773  0.66611  0.38168  1.0000 0.0992761861
H   H33       1.0  0.72759  0.58323  0.30055  1.0000 0.1381592751
H   H34       1.0  0.02451  0.72267  0.36327  1.0000 0.1381592751
H   H35       1.0  0.95090  0.79808  0.28567  1.0000 0.1250377522
H   H36       1.0  0.85838  0.75251  0.19305  1.0000 0.1500311327
H   H37       1.0  0.82159  0.53300  0.03283  1.0000 0.1500311327
H   H38       1.0  0.75858  0.44717  0.95626  1.0000 0.0992761861
H   H39       1.0  0.18470  0.30182  0.32413  1.0000 0.0906166677
H   H40       1.0  0.13809  0.41301  0.27822  1.0000 0.1500311327
H   H41       1.0  0.98007  0.44005  0.45428  1.0000 0.1500311327
H   H42       1.0  0.03395  0.33233  0.49836  1.0000 0.0992761861
H   H43       1.0  0.66773  0.33389  0.11832  1.0000 0.0992761861
H   H44       1.0  0.72759  0.41677  0.19945  1.0000 0.1381592751
H   H45       1.0  0.52451  0.22267  0.63673  1.0000 0.1381592751
H   H46       1.0  0.45090  0.29808  0.71433  1.0000 0.1250377522
H   H47       1.0  0.35838  0.25251  0.80695  1.0000 0.1500311327
H   H48       1.0  0.32159  0.03300  0.96717  1.0000 0.1500311327
H   H49       1.0  0.25858  0.94717  0.04374  1.0000 0.0992761861
H   H50       1.0  0.68470  0.80182  0.67587  1.0000 0.0906166677
H   H51       1.0  0.63809  0.91301  0.72178  1.0000 0.1500311327
H   H52       1.0  0.48007  0.94005  0.54572  1.0000 0.1500311327
H   H53       1.0  0.53395  0.83233  0.50164  1.0000 0.0992761861
H   H54       1.0  0.16773  0.83389  0.88168  1.0000 0.0992761861
H   H55       1.0  0.22759  0.91677  0.80055  1.0000 0.1381592751
H   H56       1.0  0.52451  0.77733  0.86327  1.0000 0.1381592751
H   H57       1.0  0.45090  0.70192  0.78567  1.0000 0.1250377522
H   H58       1.0  0.35838  0.74749  0.69305  1.0000 0.1500311327
H   H59       1.0  0.32159  0.96700  0.53283  1.0000 0.1500311327
H   H60       1.0  0.25858  0.05283  0.45626  1.0000 0.0992761861
H   H61       1.0  0.68470  0.19818  0.82413  1.0000 0.0906166677
H   H62       1.0  0.63809  0.08699  0.77822  1.0000 0.1500311327
H   H63       1.0  0.48007  0.05995  0.95428  1.0000 0.1500311327
H   H64       1.0  0.53395  0.16767  0.99836  1.0000 0.0992761861
H   H65       1.0  0.16773  0.16611  0.61832  1.0000 0.0992761861
H   H66       1.0  0.22759  0.08323  0.69945  1.0000 0.1381592751
H   H67       1.0  0.97549  0.72267  0.86327  1.0000 0.1381592751
H   H68       1.0  0.04910  0.79808  0.78567  1.0000 0.1250377522
H   H69       1.0  0.14162  0.75251  0.69305  1.0000 0.1500311327
H   H70       1.0  0.17841  0.53300  0.53283  1.0000 0.1500311327
H   H71       1.0  0.24142  0.44717  0.45626  1.0000 0.0992761861
H   H72       1.0  0.81530  0.30182  0.82413  1.0000 0.0906166677
H   H73       1.0  0.86191  0.41301  0.77822  1.0000 0.1500311327
H   H74       1.0  0.01993  0.44005  0.95428  1.0000 0.1500311327
H   H75       1.0  0.96605  0.33233  0.99836  1.0000 0.0992761861
H   H76       1.0  0.33227  0.33389  0.61832  1.0000 0.0992761861
H   H77       1.0  0.27241  0.41677  0.69945  1.0000 0.1381592751
H   H78       1.0  0.97549  0.27733  0.63673  1.0000 0.1381592751
H   H79       1.0  0.04910  0.20192  0.71433  1.0000 0.1250377522
H   H80       1.0  0.14162  0.24749  0.80695  1.0000 0.1500311327
H   H81       1.0  0.17841  0.46700  0.96717  1.0000 0.1500311327
H   H82       1.0  0.24142  0.55283  0.04374  1.0000 0.0992761861
H   H83       1.0  0.81530  0.69818  0.67587  1.0000 0.0906166677
H   H84       1.0  0.86191  0.58699  0.72178  1.0000 0.1500311327
H   H85       1.0  0.01993  0.55995  0.54572  1.0000 0.1500311327
H   H86       1.0  0.96605  0.66767  0.50164  1.0000 0.0992761861
H   H87       1.0  0.33227  0.66611  0.88168  1.0000 0.0992761861
H   H88       1.0  0.27241  0.58323  0.80055  1.0000 0.1381592751
C   C1        1.0  0.52220  0.87380  0.31710  1.0000 0.1060908876
C   C2        1.0  0.51210  0.79640  0.32620  1.0000 -0.1489131711
C   C3        1.0  0.55610  0.75250  0.28060  1.0000 -0.0724237942
C   C4        1.0  0.61230  0.77890  0.22560  1.0000 -0.1351896747
C   C5        1.0  0.62270  0.85400  0.22130  1.0000 0.0992761861
C   C6        1.0  0.67990  0.89490  0.16710  1.0000 0.4124363587
C   C7        1.0  0.70840  0.00770  0.05210  1.0000 -0.2099650855
C   C8        1.0  0.74700  0.06000  0.00640  1.0000 0.0906166677
C   C9        1.0  0.35770  0.17010  0.35000  1.0000 0.0231655325
C   C10       1.0  0.38620  0.10370  0.32220  1.0000 -0.2041835945
C   C11       1.0  0.44890  0.06250  0.35800  1.0000 0.2449351327
C   C12       1.0  0.47890  0.08770  0.42680  1.0000 -0.2041835945
C   C13       1.0  0.44730  0.15240  0.45220  1.0000 0.0753770397
C   C14       1.0  0.71520  0.01700  0.12660  1.0000 0.2514914499
C   C15       1.0  0.47010  0.93160  0.35760  1.0000 0.4160387443
C   C16       1.0  0.79990  0.12580  0.10060  1.0000 0.0141911067
C   C17       1.0  0.76350  0.07600  0.14960  1.0000 -0.2099650855
C   C18       1.0  0.52220  0.12620  0.18290  1.0000 0.1060908876
C   C19       1.0  0.51210  0.20360  0.17380  1.0000 -0.1489131711
C   C20       1.0  0.55610  0.24750  0.21940  1.0000 -0.0724237942
C   C21       1.0  0.61230  0.22110  0.27440  1.0000 -0.1351896747
C   C22       1.0  0.62270  0.14600  0.27870  1.0000 0.0992761861
C   C23       1.0  0.67990  0.10510  0.33290  1.0000 0.4124363587
C   C24       1.0  0.70840  0.99230  0.44790  1.0000 -0.2099650855
C   C25       1.0  0.74700  0.94000  0.49360  1.0000 0.0906166677
C   C26       1.0  0.35770  0.82990  0.15000  1.0000 0.0231655325
C   C27       1.0  0.38620  0.89630  0.17780  1.0000 -0.2041835945
C   C28       1.0  0.44890  0.93750  0.14200  1.0000 0.2449351327
C   C29       1.0  0.47890  0.91230  0.07320  1.0000 -0.2041835945
C   C30       1.0  0.44730  0.84760  0.04780  1.0000 0.0753770397
C   C31       1.0  0.71520  0.98300  0.37340  1.0000 0.2514914499
C   C32       1.0  0.47010  0.06840  0.14240  1.0000 0.4160387443
C   C33       1.0  0.79990  0.87420  0.39940  1.0000 0.0141911067
C   C34       1.0  0.76350  0.92400  0.35040  1.0000 -0.2099650855
C   C35       1.0  0.97780  0.37380  0.18290  1.0000 0.1060908876
C   C36       1.0  0.98790  0.29640  0.17380  1.0000 -0.1489131711
C   C37       1.0  0.94390  0.25250  0.21940  1.0000 -0.0724237942
C   C38       1.0  0.88770  0.27890  0.27440  1.0000 -0.1351896747
C   C39       1.0  0.87730  0.35400  0.27870  1.0000 0.0992761861
C   C40       1.0  0.82010  0.39490  0.33290  1.0000 0.4124363587
C   C41       1.0  0.79160  0.50770  0.44790  1.0000 -0.2099650855
C   C42       1.0  0.75300  0.56000  0.49360  1.0000 0.0906166677
C   C43       1.0  0.14230  0.67010  0.15000  1.0000 0.0231655325
C   C44       1.0  0.11380  0.60370  0.17780  1.0000 -0.2041835945
C   C45       1.0  0.05110  0.56250  0.14200  1.0000 0.2449351327
C   C46       1.0  0.02110  0.58770  0.07320  1.0000 -0.2041835945
C   C47       1.0  0.05270  0.65240  0.04780  1.0000 0.0753770397
C   C48       1.0  0.78480  0.51700  0.37340  1.0000 0.2514914499
C   C49       1.0  0.02990  0.43160  0.14240  1.0000 0.4160387443
C   C50       1.0  0.70010  0.62580  0.39940  1.0000 0.0141911067
C   C51       1.0  0.73650  0.57600  0.35040  1.0000 -0.2099650855
C   C52       1.0  0.97780  0.62620  0.31710  1.0000 0.1060908876
C   C53       1.0  0.98790  0.70360  0.32620  1.0000 -0.1489131711
C   C54       1.0  0.94390  0.74750  0.28060  1.0000 -0.0724237942
C   C55       1.0  0.88770  0.72110  0.22560  1.0000 -0.1351896747
C   C56       1.0  0.87730  0.64600  0.22130  1.0000 0.0992761861
C   C57       1.0  0.82010  0.60510  0.16710  1.0000 0.4124363587
C   C58       1.0  0.79160  0.49230  0.05210  1.0000 -0.2099650855
C   C59       1.0  0.75300  0.44000  0.00640  1.0000 0.0906166677
C   C60       1.0  0.14230  0.32990  0.35000  1.0000 0.0231655325
C   C61       1.0  0.11380  0.39630  0.32220  1.0000 -0.2041835945
C   C62       1.0  0.05110  0.43750  0.35800  1.0000 0.2449351327
C   C63       1.0  0.02110  0.41230  0.42680  1.0000 -0.2041835945
C   C64       1.0  0.05270  0.34760  0.45220  1.0000 0.0753770397
C   C65       1.0  0.78480  0.48300  0.12660  1.0000 0.2514914499
C   C66       1.0  0.02990  0.56840  0.35760  1.0000 0.4160387443
C   C67       1.0  0.70010  0.37420  0.10060  1.0000 0.0141911067
C   C68       1.0  0.73650  0.42400  0.14960  1.0000 -0.2099650855
C   C69       1.0  0.47780  0.12620  0.68290  1.0000 0.1060908876
C   C70       1.0  0.48790  0.20360  0.67380  1.0000 -0.1489131711
C   C71       1.0  0.44390  0.24750  0.71940  1.0000 -0.0724237942
C   C72       1.0  0.38770  0.22110  0.77440  1.0000 -0.1351896747
C   C73       1.0  0.37730  0.14600  0.77870  1.0000 0.0992761861
C   C74       1.0  0.32010  0.10510  0.83290  1.0000 0.4124363587
C   C75       1.0  0.29160  0.99230  0.94790  1.0000 -0.2099650855
C   C76       1.0  0.25300  0.94000  0.99360  1.0000 0.0906166677
C   C77       1.0  0.64230  0.82990  0.65000  1.0000 0.0231655325
C   C78       1.0  0.61380  0.89630  0.67780  1.0000 -0.2041835945
C   C79       1.0  0.55110  0.93750  0.64200  1.0000 0.2449351327
C   C80       1.0  0.52110  0.91230  0.57320  1.0000 -0.2041835945
C   C81       1.0  0.55270  0.84760  0.54780  1.0000 0.0753770397
C   C82       1.0  0.28480  0.98300  0.87340  1.0000 0.2514914499
C   C83       1.0  0.52990  0.06840  0.64240  1.0000 0.4160387443
C   C84       1.0  0.20010  0.87420  0.89940  1.0000 0.0141911067
C   C85       1.0  0.23650  0.92400  0.85040  1.0000 -0.2099650855
C   C86       1.0  0.47780  0.87380  0.81710  1.0000 0.1060908876
C   C87       1.0  0.48790  0.79640  0.82620  1.0000 -0.1489131711
C   C88       1.0  0.44390  0.75250  0.78060  1.0000 -0.0724237942
C   C89       1.0  0.38770  0.77890  0.72560  1.0000 -0.1351896747
C   C90       1.0  0.37730  0.85400  0.72130  1.0000 0.0992761861
C   C91       1.0  0.32010  0.89490  0.66710  1.0000 0.4124363587
C   C92       1.0  0.29160  0.00770  0.55210  1.0000 -0.2099650855
C   C93       1.0  0.25300  0.06000  0.50640  1.0000 0.0906166677
C   C94       1.0  0.64230  0.17010  0.85000  1.0000 0.0231655325
C   C95       1.0  0.61380  0.10370  0.82220  1.0000 -0.2041835945
C   C96       1.0  0.55110  0.06250  0.85800  1.0000 0.2449351327
C   C97       1.0  0.52110  0.08770  0.92680  1.0000 -0.2041835945
C   C98       1.0  0.55270  0.15240  0.95220  1.0000 0.0753770397
C   C99       1.0  0.28480  0.01700  0.62660  1.0000 0.2514914499
C   C100      1.0  0.52990  0.93160  0.85760  1.0000 0.4160387443
C   C101      1.0  0.20010  0.12580  0.60060  1.0000 0.0141911067
C   C102      1.0  0.23650  0.07600  0.64960  1.0000 -0.2099650855
C   C103      1.0  0.02220  0.62620  0.81710  1.0000 0.1060908876
C   C104      1.0  0.01210  0.70360  0.82620  1.0000 -0.1489131711
C   C105      1.0  0.05610  0.74750  0.78060  1.0000 -0.0724237942
C   C106      1.0  0.11230  0.72110  0.72560  1.0000 -0.1351896747
C   C107      1.0  0.12270  0.64600  0.72130  1.0000 0.0992761861
C   C108      1.0  0.17990  0.60510  0.66710  1.0000 0.4124363587
C   C109      1.0  0.20840  0.49230  0.55210  1.0000 -0.2099650855
C   C110      1.0  0.24700  0.44000  0.50640  1.0000 0.0906166677
C   C111      1.0  0.85770  0.32990  0.85000  1.0000 0.0231655325
C   C112      1.0  0.88620  0.39630  0.82220  1.0000 -0.2041835945
C   C113      1.0  0.94890  0.43750  0.85800  1.0000 0.2449351327
C   C114      1.0  0.97890  0.41230  0.92680  1.0000 -0.2041835945
C   C115      1.0  0.94730  0.34760  0.95220  1.0000 0.0753770397
C   C116      1.0  0.21520  0.48300  0.62660  1.0000 0.2514914499
C   C117      1.0  0.97010  0.56840  0.85760  1.0000 0.4160387443
C   C118      1.0  0.29990  0.37420  0.60060  1.0000 0.0141911067
C   C119      1.0  0.26350  0.42400  0.64960  1.0000 -0.2099650855
C   C120      1.0  0.02220  0.37380  0.68290  1.0000 0.1060908876
C   C121      1.0  0.01210  0.29640  0.67380  1.0000 -0.1489131711
C   C122      1.0  0.05610  0.25250  0.71940  1.0000 -0.0724237942
C   C123      1.0  0.11230  0.27890  0.77440  1.0000 -0.1351896747
C   C124      1.0  0.12270  0.35400  0.77870  1.0000 0.0992761861
C   C125      1.0  0.17990  0.39490  0.83290  1.0000 0.4124363587
C   C126      1.0  0.20840  0.50770  0.94790  1.0000 -0.2099650855
C   C127      1.0  0.24700  0.56000  0.99360  1.0000 0.0906166677
C   C128      1.0  0.85770  0.67010  0.65000  1.0000 0.0231655325
C   C129      1.0  0.88620  0.60370  0.67780  1.0000 -0.2041835945
C   C130      1.0  0.94890  0.56250  0.64200  1.0000 0.2449351327
C   C131      1.0  0.97890  0.58770  0.57320  1.0000 -0.2041835945
C   C132      1.0  0.94730  0.65240  0.54780  1.0000 0.0753770397
C   C133      1.0  0.21520  0.51700  0.87340  1.0000 0.2514914499
C   C134      1.0  0.97010  0.43160  0.64240  1.0000 0.4160387443
C   C135      1.0  0.29990  0.62580  0.89940  1.0000 0.0141911067
C   C136      1.0  0.26350  0.57600  0.85040  1.0000 -0.2099650855
N   N1        1.0  0.57600  0.89850  0.26540  1.0000 -0.1829679384
N   N2        1.0  0.67230  0.96880  0.17620  1.0000 -0.449849888
N   N3        1.0  0.78990  0.11770  0.02830  1.0000 -0.2041835945
N   N4        1.0  0.39090  0.19530  0.41480  1.0000 -0.2099650855
N   N5        1.0  0.48810  0.99780  0.32770  1.0000 -0.449849888
N   N6        1.0  0.57600  0.10150  0.23460  1.0000 -0.1856005371
N   N7        1.0  0.67230  0.03120  0.32380  1.0000 -0.4557791426
N   N8        1.0  0.78990  0.88230  0.47170  1.0000 -0.2041835945
N   N9        1.0  0.39090  0.80470  0.08520  1.0000 -0.2099650855
N   N10       1.0  0.48810  0.00220  0.17230  1.0000 -0.449849888
N   N11       1.0  0.92400  0.39850  0.23460  1.0000 -0.1856005371
N   N12       1.0  0.82770  0.46880  0.32380  1.0000 -0.449849888
N   N13       1.0  0.71010  0.61770  0.47170  1.0000 -0.2041835945
N   N14       1.0  0.10910  0.69530  0.08520  1.0000 -0.2099650855
N   N15       1.0  0.01190  0.49780  0.17230  1.0000 -0.449849888
N   N16       1.0  0.92400  0.60150  0.26540  1.0000 -0.1856005371
N   N17       1.0  0.82770  0.53120  0.17620  1.0000 -0.449849888
N   N18       1.0  0.71010  0.38230  0.02830  1.0000 -0.2041835945
N   N19       1.0  0.10910  0.30470  0.41480  1.0000 -0.2099650855
N   N20       1.0  0.01190  0.50220  0.32770  1.0000 -0.449849888
N   N21       1.0  0.42400  0.10150  0.73460  1.0000 -0.1856005371
N   N22       1.0  0.32770  0.03120  0.82380  1.0000 -0.4557791426
N   N23       1.0  0.21010  0.88230  0.97170  1.0000 -0.2041835945
N   N24       1.0  0.60910  0.80470  0.58520  1.0000 -0.2099650855
N   N25       1.0  0.51190  0.00220  0.67230  1.0000 -0.449849888
N   N26       1.0  0.42400  0.89850  0.76540  1.0000 -0.1856005371
N   N27       1.0  0.32770  0.96880  0.67620  1.0000 -0.449849888
N   N28       1.0  0.21010  0.11770  0.52830  1.0000 -0.2041835945
N   N29       1.0  0.60910  0.19530  0.91480  1.0000 -0.2099650855
N   N30       1.0  0.51190  0.99780  0.82770  1.0000 -0.449849888
N   N31       1.0  0.07600  0.60150  0.76540  1.0000 -0.1856005371
N   N32       1.0  0.17230  0.53120  0.67620  1.0000 -0.449849888
N   N33       1.0  0.28990  0.38230  0.52830  1.0000 -0.2041835945
N   N34       1.0  0.89090  0.30470  0.91480  1.0000 -0.2099650855
N   N35       1.0  0.98810  0.50220  0.82770  1.0000 -0.449849888
N   N36       1.0  0.07600  0.39850  0.73460  1.0000 -0.1856005371
N   N37       1.0  0.17230  0.46880  0.82380  1.0000 -0.4557791426
N   N38       1.0  0.28990  0.61770  0.97170  1.0000 -0.2041835945
N   N39       1.0  0.89090  0.69530  0.58520  1.0000 -0.2099650855
N   N40       1.0  0.98810  0.49780  0.67230  1.0000 -0.449849888
O   O1        1.0  0.42200  0.91810  0.41130  1.0000 -0.4737379922
O   O2        1.0  0.72940  0.86250  0.12410  1.0000 -0.4381337537
O   O3        1.0  0.42200  0.08190  0.08870  1.0000 -0.4737379922
O   O4        1.0  0.72940  0.13750  0.37590  1.0000 -0.4381337537
O   O5        1.0  0.07800  0.41810  0.08870  1.0000 -0.4737379922
O   O6        1.0  0.77060  0.36250  0.37590  1.0000 -0.4381337537
O   O7        1.0  0.07800  0.58190  0.41130  1.0000 -0.4737379922
O   O8        1.0  0.77060  0.63750  0.12410  1.0000 -0.4381337537
O   O9        1.0  0.57800  0.08190  0.58870  1.0000 -0.4737379922
O   O10       1.0  0.27060  0.13750  0.87590  1.0000 -0.4381337537
O   O11       1.0  0.57800  0.91810  0.91130  1.0000 -0.4737379922
O   O12       1.0  0.27060  0.86250  0.62410  1.0000 -0.4381337537
O   O13       1.0  0.92200  0.58190  0.91130  1.0000 -0.4737379922
O   O14       1.0  0.22940  0.63750  0.62410  1.0000 -0.4381337537
O   O15       1.0  0.92200  0.41810  0.58870  1.0000 -0.4737379922
O   O16       1.0  0.22940  0.36250  0.87590  1.0000 -0.4381337537
