# DDEC6 charges by PACMAN v1.1 (https://github.com/mtap-research/PACMAN-charge/)
data_2018[Cd][mab]3[FSR]2
_chemical_formula_sum              "Cd4 H72 C104 S4 N16 O28"
_cell_length_a       12.784
_cell_length_b       9.5272
_cell_length_c       26.6342
_cell_angle_alpha    90
_cell_angle_beta     97.133
_cell_angle_gamma    90

_symmetry_space_group_name_H-M    "P 1"
_symmetry_Int_Tables_number       1

loop_
  _symmetry_equiv_pos_as_xyz
  'x, y, z'

loop_
  _atom_site_type_symbol
  _atom_site_label
  _atom_site_symmetry_multiplicity
  _atom_site_fract_x
  _atom_site_fract_y
  _atom_site_fract_z
  _atom_site_occupancy
  _atom_site_charge
Cd  Cd1       1.0  0.12380  0.60597  0.03392  1.0000 0.8667119932
Cd  Cd2       1.0  0.87620  0.60597  0.46608  1.0000 0.8667119932
Cd  Cd3       1.0  0.87620  0.39403  0.96608  1.0000 0.8667119932
Cd  Cd4       1.0  0.12380  0.39403  0.53392  1.0000 0.8667119932
H   H1        1.0  0.82088  0.97718  0.98766  1.0000 0.1383215081
H   H2        1.0  0.95699  0.65998  0.10899  1.0000 0.120438433
H   H3        1.0  0.97120  0.85100  0.97965  1.0000 0.0998176191
H   H4        1.0  0.42929  0.25480  0.08188  1.0000 0.1383215081
H   H5        1.0  0.27509  0.52505  0.94900  1.0000 0.1102559254
H   H6        1.0  0.42287  0.39448  0.93755  1.0000 0.1383215081
H   H7        1.0  0.14564  0.26528  0.14344  1.0000 0.1291123521
H   H8        1.0  0.80349  0.78084  0.12098  1.0000 0.1383215081
H   H9        1.0  0.57507  0.24193  0.97453  1.0000 0.120438433
H   H10       1.0  0.50929  0.09547  0.14614  1.0000 0.120438433
H   H11       1.0  0.15169  0.09574  0.20786  1.0000 0.120438433
H   H12       1.0  0.33938  0.95194  0.25464  1.0000 0.1291123521
H   H13       1.0  0.83029  0.20841  0.11277  1.0000 0.120438433
H   H14       1.0  0.40498  0.95994  0.08588  1.0000 0.1102559254
H   H15       1.0  0.24294  0.80725  0.19583  1.0000 0.1291123521
H   H16       1.0  0.28259  0.39284  0.08883  1.0000 0.120438433
H   H17       1.0  0.83630  0.04310  0.17873  1.0000 0.1291123521
H   H18       1.0  0.69300  0.10500  0.00050  1.0000 0.2650839355
H   H19       1.0  0.17912  0.97718  0.51234  1.0000 0.1383215081
H   H20       1.0  0.04301  0.65998  0.39101  1.0000 0.120438433
H   H21       1.0  0.02880  0.85100  0.52035  1.0000 0.0998176191
H   H22       1.0  0.57071  0.25480  0.41812  1.0000 0.1383215081
H   H23       1.0  0.72491  0.52505  0.55100  1.0000 0.1102559254
H   H24       1.0  0.57713  0.39448  0.56245  1.0000 0.1383215081
H   H25       1.0  0.85436  0.26528  0.35656  1.0000 0.1291123521
H   H26       1.0  0.19651  0.78084  0.37902  1.0000 0.1383215081
H   H27       1.0  0.42493  0.24193  0.52547  1.0000 0.120438433
H   H28       1.0  0.49071  0.09547  0.35386  1.0000 0.120438433
H   H29       1.0  0.84831  0.09574  0.29214  1.0000 0.120438433
H   H30       1.0  0.66062  0.95194  0.24536  1.0000 0.1291123521
H   H31       1.0  0.16971  0.20841  0.38723  1.0000 0.120438433
H   H32       1.0  0.59502  0.95994  0.41412  1.0000 0.1102559254
H   H33       1.0  0.75706  0.80725  0.30417  1.0000 0.1291123521
H   H34       1.0  0.71741  0.39284  0.41117  1.0000 0.120438433
H   H35       1.0  0.16370  0.04310  0.32127  1.0000 0.1291123521
H   H36       1.0  0.30700  0.10500  0.49950  1.0000 0.2650839355
H   H37       1.0  0.17912  0.02282  0.01234  1.0000 0.1383215081
H   H38       1.0  0.04301  0.34002  0.89101  1.0000 0.120438433
H   H39       1.0  0.02880  0.14900  0.02035  1.0000 0.0998176191
H   H40       1.0  0.57071  0.74520  0.91812  1.0000 0.1383215081
H   H41       1.0  0.72491  0.47495  0.05100  1.0000 0.1102559254
H   H42       1.0  0.57713  0.60552  0.06245  1.0000 0.1383215081
H   H43       1.0  0.85436  0.73472  0.85656  1.0000 0.1291123521
H   H44       1.0  0.19651  0.21916  0.87902  1.0000 0.1383215081
H   H45       1.0  0.42493  0.75807  0.02547  1.0000 0.120438433
H   H46       1.0  0.49071  0.90453  0.85386  1.0000 0.120438433
H   H47       1.0  0.84831  0.90426  0.79214  1.0000 0.120438433
H   H48       1.0  0.66062  0.04806  0.74536  1.0000 0.1291123521
H   H49       1.0  0.16971  0.79159  0.88723  1.0000 0.120438433
H   H50       1.0  0.59502  0.04006  0.91412  1.0000 0.1102559254
H   H51       1.0  0.75706  0.19275  0.80417  1.0000 0.1291123521
H   H52       1.0  0.71741  0.60716  0.91117  1.0000 0.120438433
H   H53       1.0  0.16370  0.95690  0.82127  1.0000 0.1291123521
H   H54       1.0  0.30700  0.89500  0.99950  1.0000 0.2650839355
H   H55       1.0  0.82088  0.02282  0.48766  1.0000 0.1383215081
H   H56       1.0  0.95699  0.34002  0.60899  1.0000 0.120438433
H   H57       1.0  0.97120  0.14900  0.47965  1.0000 0.0998176191
H   H58       1.0  0.42929  0.74520  0.58188  1.0000 0.1383215081
H   H59       1.0  0.27509  0.47495  0.44900  1.0000 0.1102559254
H   H60       1.0  0.42287  0.60552  0.43755  1.0000 0.1383215081
H   H61       1.0  0.14564  0.73472  0.64344  1.0000 0.1291123521
H   H62       1.0  0.80349  0.21916  0.62098  1.0000 0.1383215081
H   H63       1.0  0.57507  0.75807  0.47453  1.0000 0.120438433
H   H64       1.0  0.50929  0.90453  0.64614  1.0000 0.120438433
H   H65       1.0  0.15169  0.90426  0.70786  1.0000 0.120438433
H   H66       1.0  0.33938  0.04806  0.75464  1.0000 0.1291123521
H   H67       1.0  0.83029  0.79159  0.61277  1.0000 0.120438433
H   H68       1.0  0.40498  0.04006  0.58588  1.0000 0.1102559254
H   H69       1.0  0.24294  0.19275  0.69583  1.0000 0.1291123521
H   H70       1.0  0.28259  0.60716  0.58883  1.0000 0.120438433
H   H71       1.0  0.83630  0.95690  0.67873  1.0000 0.1291123521
H   H72       1.0  0.69300  0.89500  0.50050  1.0000 0.2650839355
C   C1        1.0  0.84690  0.91190  0.01314  1.0000 -0.1796608246
C   C2        1.0  0.69530  0.96690  0.06399  1.0000 0.4316685688
C   C3        1.0  0.92820  0.72470  0.08387  1.0000 0.0998176191
C   C4        1.0  0.44290  0.30990  0.00836  1.0000 0.120438433
C   C5        1.0  0.93630  0.83620  0.00868  1.0000 0.0729855787
C   C6        1.0  0.79510  0.89230  0.05511  1.0000 0.0306986015
C   C7        1.0  0.39920  0.30990  0.05400  1.0000 -0.1796608246
C   C8        1.0  0.99450  0.05590  0.19804  1.0000 -0.0689771972
C   C9        1.0  0.30720  0.46940  0.97625  1.0000 0.0796276819
C   C10       1.0  0.39530  0.39180  0.96905  1.0000 -0.198800582
C   C11       1.0  0.08310  0.21880  0.15010  1.0000 -0.086520718
C   C12       1.0  0.83670  0.79680  0.09150  1.0000 -0.1544189859
C   C13       1.0  0.53790  0.22790  0.00286  1.0000 -0.0199541008
C   C14       1.0  0.24770  0.78220  0.09730  1.0000 0.5429358077
C   C15       1.0  0.98720  0.24970  0.12151  1.0000 -0.0322043706
C   C16       1.0  0.31340  0.87300  0.13494  1.0000 -0.0199541008
C   C17       1.0  0.45300  0.04040  0.15564  1.0000 -0.0980830151
C   C18       1.0  0.08660  0.11940  0.18850  1.0000 -0.0980830151
C   C19       1.0  0.42970  0.04100  0.20539  1.0000 -0.084503423
C   C20       1.0  0.35240  0.95320  0.22029  1.0000 -0.0980830151
C   C21       1.0  0.89560  0.18560  0.13206  1.0000 -0.0980830151
C   C22       1.0  0.39240  0.95810  0.12029  1.0000 -0.1078161347
C   C23       1.0  0.29490  0.86850  0.18557  1.0000 -0.084503423
C   C24       1.0  0.31150  0.39190  0.05760  1.0000 0.087138873
C   C25       1.0  0.98360  0.35240  0.07850  1.0000 0.5589415025
C   C26       1.0  0.89900  0.08740  0.17103  1.0000 -0.0980830151
C   C27       1.0  0.15310  0.91190  0.48686  1.0000 -0.1796608246
C   C28       1.0  0.30470  0.96690  0.43601  1.0000 0.4316685688
C   C29       1.0  0.07180  0.72470  0.41613  1.0000 0.0998176191
C   C30       1.0  0.55710  0.30990  0.49164  1.0000 0.120438433
C   C31       1.0  0.06370  0.83620  0.49132  1.0000 0.0729855787
C   C32       1.0  0.20490  0.89230  0.44489  1.0000 0.0306986015
C   C33       1.0  0.60080  0.30990  0.44600  1.0000 -0.1796608246
C   C34       1.0  0.00550  0.05590  0.30196  1.0000 -0.0689771972
C   C35       1.0  0.69280  0.46940  0.52375  1.0000 0.0796276819
C   C36       1.0  0.60470  0.39180  0.53095  1.0000 -0.198800582
C   C37       1.0  0.91690  0.21880  0.34990  1.0000 -0.086520718
C   C38       1.0  0.16330  0.79680  0.40850  1.0000 -0.1544189859
C   C39       1.0  0.46210  0.22790  0.49714  1.0000 -0.0199541008
C   C40       1.0  0.75230  0.78220  0.40270  1.0000 0.5429358077
C   C41       1.0  0.01280  0.24970  0.37849  1.0000 -0.0322043706
C   C42       1.0  0.68660  0.87300  0.36506  1.0000 -0.0199541008
C   C43       1.0  0.54700  0.04040  0.34436  1.0000 -0.0980830151
C   C44       1.0  0.91340  0.11940  0.31150  1.0000 -0.0980830151
C   C45       1.0  0.57030  0.04100  0.29461  1.0000 -0.084503423
C   C46       1.0  0.64760  0.95320  0.27971  1.0000 -0.0980830151
C   C47       1.0  0.10440  0.18560  0.36794  1.0000 -0.0980830151
C   C48       1.0  0.60760  0.95810  0.37971  1.0000 -0.1078161347
C   C49       1.0  0.70510  0.86850  0.31443  1.0000 -0.084503423
C   C50       1.0  0.68850  0.39190  0.44240  1.0000 0.087138873
C   C51       1.0  0.01640  0.35240  0.42150  1.0000 0.5589415025
C   C52       1.0  0.10100  0.08740  0.32897  1.0000 -0.0980830151
C   C53       1.0  0.15310  0.08810  0.98686  1.0000 -0.1796608246
C   C54       1.0  0.30470  0.03310  0.93601  1.0000 0.4316685688
C   C55       1.0  0.07180  0.27530  0.91613  1.0000 0.0998176191
C   C56       1.0  0.55710  0.69010  0.99164  1.0000 0.120438433
C   C57       1.0  0.06370  0.16380  0.99132  1.0000 0.0729855787
C   C58       1.0  0.20490  0.10770  0.94489  1.0000 0.0306986015
C   C59       1.0  0.60080  0.69010  0.94600  1.0000 -0.1796608246
C   C60       1.0  0.00550  0.94410  0.80196  1.0000 -0.0689771972
C   C61       1.0  0.69280  0.53060  0.02375  1.0000 0.0796276819
C   C62       1.0  0.60470  0.60820  0.03095  1.0000 -0.198800582
C   C63       1.0  0.91690  0.78120  0.84990  1.0000 -0.086520718
C   C64       1.0  0.16330  0.20320  0.90850  1.0000 -0.1544189859
C   C65       1.0  0.46210  0.77210  0.99714  1.0000 -0.0199541008
C   C66       1.0  0.75230  0.21780  0.90270  1.0000 0.5429358077
C   C67       1.0  0.01280  0.75030  0.87849  1.0000 -0.0322043706
C   C68       1.0  0.68660  0.12700  0.86506  1.0000 -0.0199541008
C   C69       1.0  0.54700  0.95960  0.84436  1.0000 -0.0980830151
C   C70       1.0  0.91340  0.88060  0.81150  1.0000 -0.0980830151
C   C71       1.0  0.57030  0.95900  0.79461  1.0000 -0.086520718
C   C72       1.0  0.64760  0.04680  0.77971  1.0000 -0.0980830151
C   C73       1.0  0.10440  0.81440  0.86794  1.0000 -0.0980830151
C   C74       1.0  0.60760  0.04190  0.87971  1.0000 -0.1078161347
C   C75       1.0  0.70510  0.13150  0.81443  1.0000 -0.086520718
C   C76       1.0  0.68850  0.60810  0.94240  1.0000 0.087138873
C   C77       1.0  0.01640  0.64760  0.92150  1.0000 0.5589415025
C   C78       1.0  0.10100  0.91260  0.82897  1.0000 -0.0980830151
C   C79       1.0  0.84690  0.08810  0.51314  1.0000 -0.1796608246
C   C80       1.0  0.69530  0.03310  0.56399  1.0000 0.4316685688
C   C81       1.0  0.92820  0.27530  0.58387  1.0000 0.0998176191
C   C82       1.0  0.44290  0.69010  0.50836  1.0000 0.120438433
C   C83       1.0  0.93630  0.16380  0.50868  1.0000 0.0729855787
C   C84       1.0  0.79510  0.10770  0.55511  1.0000 0.0306986015
C   C85       1.0  0.39920  0.69010  0.55400  1.0000 -0.1796608246
C   C86       1.0  0.99450  0.94410  0.69804  1.0000 -0.0689771972
C   C87       1.0  0.30720  0.53060  0.47625  1.0000 0.0796276819
C   C88       1.0  0.39530  0.60820  0.46905  1.0000 -0.198800582
C   C89       1.0  0.08310  0.78120  0.65010  1.0000 -0.086520718
C   C90       1.0  0.83670  0.20320  0.59150  1.0000 -0.1544189859
C   C91       1.0  0.53790  0.77210  0.50286  1.0000 -0.0199541008
C   C92       1.0  0.24770  0.21780  0.59730  1.0000 0.5429358077
C   C93       1.0  0.98720  0.75030  0.62151  1.0000 -0.0322043706
C   C94       1.0  0.31340  0.12700  0.63494  1.0000 -0.0199541008
C   C95       1.0  0.45300  0.95960  0.65564  1.0000 -0.0980830151
C   C96       1.0  0.08660  0.88060  0.68850  1.0000 -0.0980830151
C   C97       1.0  0.42970  0.95900  0.70539  1.0000 -0.086520718
C   C98       1.0  0.35240  0.04680  0.72029  1.0000 -0.0980830151
C   C99       1.0  0.89560  0.81440  0.63206  1.0000 -0.0980830151
C   C100      1.0  0.39240  0.04190  0.62029  1.0000 -0.1078161347
C   C101      1.0  0.29490  0.13150  0.68557  1.0000 -0.086520718
C   C102      1.0  0.31150  0.60810  0.55760  1.0000 0.087138873
C   C103      1.0  0.98360  0.64760  0.57850  1.0000 0.5589415025
C   C104      1.0  0.89900  0.91260  0.67103  1.0000 -0.0980830151
S   S1        1.0  0.00000  0.93761  0.25000  1.0000 0.9627217046
S   S2        1.0  0.00000  0.06239  0.75000  1.0000 0.9627217046
S   S3        1.0  0.50000  0.15220  0.25000  1.0000 0.9627217046
S   S4        1.0  0.50000  0.84780  0.75000  1.0000 0.9651420903
N   N1        1.0  0.66000  0.06580  0.02965  1.0000 -0.2620906192
N   N2        1.0  0.56990  0.13740  0.03671  1.0000 -0.0980830151
N   N3        1.0  0.97710  0.74220  0.04313  1.0000 -0.2393630404
N   N4        1.0  0.26500  0.46990  0.01955  1.0000 -0.2309224936
N   N5        1.0  0.34000  0.06580  0.47035  1.0000 -0.2620906192
N   N6        1.0  0.43010  0.13740  0.46329  1.0000 -0.0980830151
N   N7        1.0  0.02290  0.74220  0.45687  1.0000 -0.2393630404
N   N8        1.0  0.73500  0.46990  0.48045  1.0000 -0.2309224936
N   N9        1.0  0.34000  0.93420  0.97035  1.0000 -0.2620906192
N   N10       1.0  0.43010  0.86260  0.96329  1.0000 -0.0980830151
N   N11       1.0  0.02290  0.25780  0.95687  1.0000 -0.2393630404
N   N12       1.0  0.73500  0.53010  0.98045  1.0000 -0.2309224936
N   N13       1.0  0.66000  0.93420  0.52965  1.0000 -0.2620906192
N   N14       1.0  0.56990  0.86260  0.53671  1.0000 -0.1078161347
N   N15       1.0  0.97710  0.25780  0.54313  1.0000 -0.2393630404
N   N16       1.0  0.26500  0.53010  0.51955  1.0000 -0.2309224936
O   O1        1.0  0.24480  0.80890  0.05050  1.0000 -0.5908084322
O   O2        1.0  0.06560  0.42100  0.07451  1.0000 -0.5594188977
O   O3        1.0  0.89860  0.36090  0.04947  1.0000 -0.566576432
O   O4        1.0  0.19680  0.68270  0.11334  1.0000 -0.5217666287
O   O5        1.0  0.09730  0.86200  0.25398  1.0000 -0.4958227831
O   O6        1.0  0.65040  0.93730  0.10074  1.0000 -0.4475904513
O   O7        1.0  0.42560  0.22750  0.27532  1.0000 -0.5077877748
O   O8        1.0  0.75520  0.80890  0.44950  1.0000 -0.5908084322
O   O9        1.0  0.93440  0.42100  0.42549  1.0000 -0.5594188977
O   O10       1.0  0.10140  0.36090  0.45053  1.0000 -0.566576432
O   O11       1.0  0.80320  0.68270  0.38666  1.0000 -0.5217666287
O   O12       1.0  0.90270  0.86200  0.24602  1.0000 -0.4958227831
O   O13       1.0  0.34960  0.93730  0.39926  1.0000 -0.4475904513
O   O14       1.0  0.57440  0.22750  0.22468  1.0000 -0.5077877748
O   O15       1.0  0.75520  0.19110  0.94950  1.0000 -0.5908084322
O   O16       1.0  0.93440  0.57900  0.92549  1.0000 -0.5594188977
O   O17       1.0  0.10140  0.63910  0.95053  1.0000 -0.566576432
O   O18       1.0  0.80320  0.31730  0.88666  1.0000 -0.5217666287
O   O19       1.0  0.90270  0.13800  0.74602  1.0000 -0.4958227831
O   O20       1.0  0.34960  0.06270  0.89926  1.0000 -0.4475904513
O   O21       1.0  0.57440  0.77250  0.72468  1.0000 -0.5077877748
O   O22       1.0  0.24480  0.19110  0.55050  1.0000 -0.5908084322
O   O23       1.0  0.06560  0.57900  0.57451  1.0000 -0.5594188977
O   O24       1.0  0.89860  0.63910  0.54947  1.0000 -0.566576432
O   O25       1.0  0.19680  0.31730  0.61334  1.0000 -0.5217666287
O   O26       1.0  0.09730  0.13800  0.75398  1.0000 -0.4958227831
O   O27       1.0  0.65040  0.06270  0.60074  1.0000 -0.4475904513
O   O28       1.0  0.42560  0.77250  0.77532  1.0000 -0.5077877748
