# DDEC6 charges by PACMAN v1.1 (https://github.com/mtap-research/PACMAN-charge/)
data_2018[Ag][hcb]2[FSR]1
_chemical_formula_sum              "Ag4 H64 C84 S4 N24 O12 F12"
_cell_length_a       12.9491
_cell_length_b       9.2308
_cell_length_c       22.4537
_cell_angle_alpha    90
_cell_angle_beta     101.68
_cell_angle_gamma    90

_symmetry_space_group_name_H-M    "P 1"
_symmetry_Int_Tables_number       1

loop_
  _symmetry_equiv_pos_as_xyz
  'x, y, z'

loop_
  _atom_site_type_symbol
  _atom_site_label
  _atom_site_symmetry_multiplicity
  _atom_site_fract_x
  _atom_site_fract_y
  _atom_site_fract_z
  _atom_site_occupancy
  _atom_site_charge
Ag  Ag1       1.0  0.13013  0.51456  0.57913  1.0000 0.3577045081
Ag  Ag2       1.0  0.12603  0.06419  0.94944  1.0000 0.3542220173
Ag  Ag3       1.0  0.86987  0.01456  0.42087  1.0000 0.3577045081
Ag  Ag4       1.0  0.87397  0.56419  0.05056  1.0000 0.3542220173
H   H1        1.0  0.83640  0.99950  0.68200  1.0000 0.1196231802
H   H2        1.0  0.82520  0.17780  0.60710  1.0000 0.1286957531
H   H3        1.0  0.94640  0.27880  0.75950  1.0000 0.1196231802
H   H4        1.0  0.03630  0.21220  0.81190  1.0000 0.1124734948
H   H5        1.0  0.12830  0.89210  0.65360  1.0000 0.1286957531
H   H6        1.0  0.85880  0.50340  0.77940  1.0000 0.1196231802
H   H7        1.0  0.11400  0.02330  0.36400  1.0000 0.1196231802
H   H8        1.0  0.84150  0.69110  0.84270  1.0000 0.1286957531
H   H9        1.0  0.31400  0.39710  0.48330  1.0000 0.151690348
H   H10       1.0  0.31110  0.94210  0.08660  1.0000 0.1399119389
H   H11       1.0  0.14200  0.39730  0.88850  1.0000 0.1196231802
H   H12       1.0  0.11710  0.55950  0.15910  1.0000 0.1196231802
H   H13       1.0  0.11300  0.07360  0.57890  1.0000 0.1196231802
H   H14       1.0  0.95010  0.35130  0.55410  1.0000 0.1196231802
H   H15       1.0  0.87940  0.23890  0.50930  1.0000 0.1399119389
H   H16       1.0  0.35880  0.36110  0.66550  1.0000 0.151690348
H   H17       1.0  0.12370  0.59500  0.95020  1.0000 0.1196231802
H   H18       1.0  0.88680  0.77160  0.95330  1.0000 0.1399119389
H   H19       1.0  0.96340  0.87420  0.92440  1.0000 0.1196231802
H   H20       1.0  0.01030  0.71510  0.70460  1.0000 0.1286957531
H   H21       1.0  0.92340  0.79680  0.73380  1.0000 0.1196231802
H   H22       1.0  0.28200  0.09230  0.34920  1.0000 0.1124734948
H   H23       1.0  0.20600  0.63510  0.73370  1.0000 0.1286957531
H   H24       1.0  0.33470  0.86360  0.92470  1.0000 0.1286957531
H   H25       1.0  0.47530  0.25010  0.74290  1.0000 0.1196231802
H   H26       1.0  0.24710  0.18860  0.84230  1.0000 0.1286957531
H   H27       1.0  0.37600  0.27380  0.40680  1.0000 0.1286957531
H   H28       1.0  0.37060  0.58070  0.79270  1.0000 0.1124734948
H   H29       1.0  0.43230  0.68560  0.88610  1.0000 0.1124734948
H   H30       1.0  0.27700  0.64480  0.21440  1.0000 0.1124734948
H   H31       1.0  0.42290  0.16720  0.83030  1.0000 0.1196231802
H   H32       1.0  0.37290  0.82750  0.18020  1.0000 0.1124734948
H   H33       1.0  0.16360  0.49950  0.31800  1.0000 0.1196231802
H   H34       1.0  0.17480  0.67780  0.39290  1.0000 0.1286957531
H   H35       1.0  0.05360  0.77880  0.24050  1.0000 0.1196231802
H   H36       1.0  0.96370  0.71220  0.18810  1.0000 0.1124734948
H   H37       1.0  0.87170  0.39210  0.34640  1.0000 0.1286957531
H   H38       1.0  0.14120  0.00340  0.22060  1.0000 0.1196231802
H   H39       1.0  0.88600  0.52330  0.63600  1.0000 0.1196231802
H   H40       1.0  0.15850  0.19110  0.15730  1.0000 0.1286957531
H   H41       1.0  0.68600  0.89710  0.51670  1.0000 0.151690348
H   H42       1.0  0.68890  0.44210  0.91340  1.0000 0.1399119389
H   H43       1.0  0.85800  0.89730  0.11150  1.0000 0.1196231802
H   H44       1.0  0.88290  0.05950  0.84090  1.0000 0.1196231802
H   H45       1.0  0.88700  0.57360  0.42110  1.0000 0.1196231802
H   H46       1.0  0.04990  0.85130  0.44590  1.0000 0.1196231802
H   H47       1.0  0.12060  0.73890  0.49070  1.0000 0.1399119389
H   H48       1.0  0.64120  0.86110  0.33450  1.0000 0.151690348
H   H49       1.0  0.87630  0.09500  0.04980  1.0000 0.1196231802
H   H50       1.0  0.11320  0.27160  0.04670  1.0000 0.1399119389
H   H51       1.0  0.03660  0.37420  0.07560  1.0000 0.1196231802
H   H52       1.0  0.98970  0.21510  0.29540  1.0000 0.1286957531
H   H53       1.0  0.07660  0.29680  0.26620  1.0000 0.1196231802
H   H54       1.0  0.71800  0.59230  0.65080  1.0000 0.1124734948
H   H55       1.0  0.79400  0.13510  0.26630  1.0000 0.1286957531
H   H56       1.0  0.66530  0.36360  0.07530  1.0000 0.1286957531
H   H57       1.0  0.52470  0.75010  0.25710  1.0000 0.1196231802
H   H58       1.0  0.75290  0.68860  0.15770  1.0000 0.1286957531
H   H59       1.0  0.62400  0.77380  0.59320  1.0000 0.1286957531
H   H60       1.0  0.62940  0.08070  0.20730  1.0000 0.1124734948
H   H61       1.0  0.56770  0.18560  0.11390  1.0000 0.1124734948
H   H62       1.0  0.72300  0.14480  0.78560  1.0000 0.1124734948
H   H63       1.0  0.57710  0.66720  0.16970  1.0000 0.1196231802
H   H64       1.0  0.62710  0.32750  0.81980  1.0000 0.1124734948
C   C1        1.0  0.89260  0.01380  0.66120  1.0000 -0.1595677893
C   C2        1.0  0.17600  0.81630  0.06680  1.0000 0.1196231802
C   C3        1.0  0.17280  0.28120  0.46910  1.0000 0.1399119389
C   C4        1.0  0.88660  0.11910  0.61660  1.0000 -0.134522331
C   C5        1.0  0.11370  0.16810  0.43330  1.0000 0.1196231802
C   C6        1.0  0.01580  0.29860  0.78610  1.0000 -0.1965481016
C   C7        1.0  0.06630  0.94980  0.64440  1.0000 -0.1397759387
C   C8        1.0  0.00600  0.42720  0.82620  1.0000 0.1009886124
C   C9        1.0  0.91260  0.52080  0.81420  1.0000 -0.1504581805
C   C10       1.0  0.15310  0.09720  0.38800  1.0000 -0.1907653508
C   C11       1.0  0.90200  0.63050  0.85170  1.0000 -0.134522331
C   C12       1.0  0.27360  0.32320  0.46000  1.0000 -0.1595677893
C   C13       1.0  0.17280  0.78380  0.79620  1.0000 0.0572601696
C   C14       1.0  0.96640  0.14120  0.58590  1.0000 0.1009886124
C   C15       1.0  0.27250  0.86630  0.10060  1.0000 -0.1397759387
C   C16       1.0  0.08140  0.45720  0.87840  1.0000 -0.1504581805
C   C17       1.0  0.23030  0.33990  0.70690  1.0000 0.1009886124
C   C18       1.0  0.15500  0.63540  0.14460  1.0000 -0.179416524
C   C19       1.0  0.98630  0.92730  0.67500  1.0000 0.0942246494
C   C20       1.0  0.05700  0.05770  0.59970  1.0000 -0.1397759387
C   C21       1.0  0.97880  0.65660  0.90370  1.0000 0.1196231802
C   C22       1.0  0.94980  0.25400  0.53560  1.0000 -0.2413102771
C   C23       1.0  0.33630  0.32620  0.70060  1.0000 -0.1397759387
C   C24       1.0  0.19810  0.29070  0.75880  1.0000 0.0679584471
C   C25       1.0  0.06960  0.57310  0.91600  1.0000 -0.1397759387
C   C26       1.0  0.20790  0.84870  0.85160  1.0000 0.1009886124
C   C27       1.0  0.33990  0.91570  0.56560  1.0000 0.487455937
C   C28       1.0  0.95900  0.78070  0.94530  1.0000 -0.2413102771
C   C29       1.0  0.99300  0.80790  0.72240  1.0000 -0.1907653508
C   C30       1.0  0.25230  0.13900  0.37940  1.0000 -0.0988111365
C   C31       1.0  0.23110  0.68040  0.77180  1.0000 -0.1677903676
C   C32       1.0  0.30820  0.81680  0.88700  1.0000 -0.1677903676
C   C33       1.0  0.40390  0.26180  0.74630  1.0000 -0.0988111365
C   C34       1.0  0.26880  0.22330  0.80690  1.0000 -0.1677903676
C   C35       1.0  0.30880  0.24880  0.41460  1.0000 -0.0718118223
C   C36       1.0  0.11910  0.70750  0.08760  1.0000 0.1124734948
C   C37       1.0  0.32720  0.64970  0.80730  1.0000 -0.0718118223
C   C38       1.0  0.36520  0.71380  0.86350  1.0000 -0.0837887387
C   C39       1.0  0.24900  0.68700  0.17600  1.0000 -0.0988111365
C   C40       1.0  0.37200  0.21110  0.79910  1.0000 -0.0856373879
C   C41       1.0  0.30770  0.79860  0.15550  1.0000 -0.0988111365
C   C42       1.0  0.39800  0.42200  0.01270  1.0000 0.4512715665
C   C43       1.0  0.10740  0.51380  0.33880  1.0000 -0.1595677893
C   C44       1.0  0.82400  0.31630  0.93320  1.0000 0.1196231802
C   C45       1.0  0.82720  0.78120  0.53090  1.0000 0.1399119389
C   C46       1.0  0.11340  0.61910  0.38340  1.0000 -0.134522331
C   C47       1.0  0.88630  0.66810  0.56670  1.0000 0.1196231802
C   C48       1.0  0.98420  0.79860  0.21390  1.0000 -0.1965481016
C   C49       1.0  0.93370  0.44980  0.35560  1.0000 -0.1397759387
C   C50       1.0  0.99400  0.92720  0.17380  1.0000 0.1009886124
C   C51       1.0  0.08740  0.02080  0.18580  1.0000 -0.1504581805
C   C52       1.0  0.84690  0.59720  0.61200  1.0000 -0.1907653508
C   C53       1.0  0.09800  0.13050  0.14830  1.0000 -0.134522331
C   C54       1.0  0.72640  0.82320  0.54000  1.0000 -0.1595677893
C   C55       1.0  0.82720  0.28380  0.20380  1.0000 0.0572601696
C   C56       1.0  0.03360  0.64120  0.41410  1.0000 0.1009886124
C   C57       1.0  0.72750  0.36630  0.89940  1.0000 -0.1397759387
C   C58       1.0  0.91860  0.95720  0.12160  1.0000 -0.1504581805
C   C59       1.0  0.76970  0.83990  0.29310  1.0000 0.1009886124
C   C60       1.0  0.84500  0.13540  0.85540  1.0000 -0.1677903676
C   C61       1.0  0.01370  0.42730  0.32500  1.0000 0.0942246494
C   C62       1.0  0.94300  0.55770  0.40030  1.0000 -0.1397759387
C   C63       1.0  0.02120  0.15660  0.09630  1.0000 0.1196231802
C   C64       1.0  0.05020  0.75400  0.46440  1.0000 -0.2413102771
C   C65       1.0  0.66370  0.82620  0.29940  1.0000 -0.1397759387
C   C66       1.0  0.80190  0.79070  0.24120  1.0000 0.0679584471
C   C67       1.0  0.93040  0.07310  0.08400  1.0000 -0.1397759387
C   C68       1.0  0.79210  0.34870  0.14840  1.0000 0.1009886124
C   C69       1.0  0.66010  0.41570  0.43440  1.0000 0.487455937
C   C70       1.0  0.04100  0.28070  0.05470  1.0000 -0.2413102771
C   C71       1.0  0.00700  0.30790  0.27760  1.0000 -0.1907653508
C   C72       1.0  0.74770  0.63900  0.62060  1.0000 -0.0988111365
C   C73       1.0  0.76890  0.18040  0.22820  1.0000 -0.1677903676
C   C74       1.0  0.69180  0.31680  0.11300  1.0000 -0.1677903676
C   C75       1.0  0.59610  0.76180  0.25370  1.0000 -0.0988111365
C   C76       1.0  0.73120  0.72330  0.19310  1.0000 -0.1677903676
C   C77       1.0  0.69120  0.74880  0.58540  1.0000 -0.0718118223
C   C78       1.0  0.88090  0.20750  0.91240  1.0000 0.1124734948
C   C79       1.0  0.67280  0.14970  0.19270  1.0000 -0.0718118223
C   C80       1.0  0.63480  0.21380  0.13650  1.0000 -0.0837887387
C   C81       1.0  0.75100  0.18700  0.82400  1.0000 -0.0988111365
C   C82       1.0  0.62800  0.71110  0.20090  1.0000 -0.0856373879
C   C83       1.0  0.69230  0.29860  0.84450  1.0000 -0.0988111365
C   C84       1.0  0.60200  0.92200  0.98730  1.0000 0.4512715665
S   S1        1.0  0.34197  0.72420  0.58325  1.0000 0.9694023457
S   S2        1.0  0.33080  0.25950  0.02120  1.0000 0.907521042
S   S3        1.0  0.65803  0.22420  0.41675  1.0000 0.9694023457
S   S4        1.0  0.66920  0.75950  0.97880  1.0000 0.907521042
N   N1        1.0  0.11580  0.32800  0.50930  1.0000 -0.2539744996
N   N2        1.0  0.02810  0.25030  0.49850  1.0000 0.3015267355
N   N3        1.0  0.03430  0.78060  0.00270  1.0000 0.3015267355
N   N4        1.0  0.02090  0.15260  0.45340  1.0000 -0.280876291
N   N5        1.0  0.07280  0.83890  0.77700  1.0000 0.1399119389
N   N6        1.0  0.14430  0.40140  0.67030  1.0000 -0.1595677893
N   N7        1.0  0.13280  0.94100  0.86300  1.0000 -0.1907653508
N   N8        1.0  0.02760  0.68410  0.04640  1.0000 -0.2730535688
N   N9        1.0  0.09350  0.32270  0.74850  1.0000 0.1286957531
N   N10       1.0  0.12050  0.86180  0.01210  1.0000 -0.2552727434
N   N11       1.0  0.06400  0.39190  0.69540  1.0000 -0.0837887387
N   N12       1.0  0.05170  0.93360  0.81750  1.0000 -0.0988111365
N   N13       1.0  0.88420  0.82800  0.49070  1.0000 -0.2539744996
N   N14       1.0  0.97190  0.75030  0.50150  1.0000 0.3015267355
N   N15       1.0  0.96570  0.28060  0.99730  1.0000 0.3015267355
N   N16       1.0  0.97910  0.65260  0.54660  1.0000 -0.280876291
N   N17       1.0  0.92720  0.33890  0.22300  1.0000 0.1399119389
N   N18       1.0  0.85570  0.90140  0.32970  1.0000 -0.1595677893
N   N19       1.0  0.86720  0.44100  0.13700  1.0000 -0.1907653508
N   N20       1.0  0.97240  0.18410  0.95360  1.0000 -0.2730535688
N   N21       1.0  0.90650  0.82270  0.25150  1.0000 0.1286957531
N   N22       1.0  0.87950  0.36180  0.98790  1.0000 -0.2539744996
N   N23       1.0  0.93600  0.89190  0.30460  1.0000 -0.0837887387
N   N24       1.0  0.94830  0.43360  0.18250  1.0000 -0.0988111365
O   O1        1.0  0.24850  0.70950  0.60740  1.0000 -0.5584096136
O   O2        1.0  0.43820  0.70630  0.62730  1.0000 -0.5584096136
O   O3        1.0  0.33400  0.65520  0.52530  1.0000 -0.5686979564
O   O4        1.0  0.25090  0.24700  0.97390  1.0000 -0.4783066335
O   O5        1.0  0.40900  0.15600  0.03110  1.0000 -0.4324147972
O   O6        1.0  0.31400  0.25300  0.07800  1.0000 -0.41350275
O   O7        1.0  0.75150  0.20950  0.39260  1.0000 -0.5584096136
O   O8        1.0  0.56180  0.20630  0.37270  1.0000 -0.5584096136
O   O9        1.0  0.66600  0.15520  0.47470  1.0000 -0.5686979564
O   O10       1.0  0.74910  0.74700  0.02610  1.0000 -0.4783066335
O   O11       1.0  0.59100  0.65600  0.96890  1.0000 -0.4324147972
O   O12       1.0  0.68600  0.75300  0.92200  1.0000 -0.41350275
F   F1        1.0  0.33860  0.99960  0.61440  1.0000 -0.179416524
F   F2        1.0  0.42440  0.95390  0.54210  1.0000 -0.179416524
F   F3        1.0  0.25370  0.95230  0.52440  1.0000 -0.179416524
F   F4        1.0  0.46300  0.46830  0.06000  1.0000 -0.1595677893
F   F5        1.0  0.32800  0.52500  0.00740  1.0000 -0.1397759387
F   F6        1.0  0.42100  0.41500  0.96200  1.0000 -0.1397759387
F   F7        1.0  0.66140  0.49960  0.38560  1.0000 -0.179416524
F   F8        1.0  0.57560  0.45390  0.45790  1.0000 -0.179416524
F   F9        1.0  0.74630  0.45230  0.47560  1.0000 -0.179416524
F   F10       1.0  0.53700  0.96830  0.94000  1.0000 -0.1595677893
F   F11       1.0  0.67200  0.02500  0.99260  1.0000 -0.1397759387
F   F12       1.0  0.57900  0.91500  0.03800  1.0000 -0.1397759387
