# DDEC6 charges by PACMAN v1.1 (https://github.com/mtap-research/PACMAN-charge/)
data_2018[Zn][nan]3[FSR]10
_chemical_formula_sum              "Zn16 H128 C140 N40 O60"
_cell_length_a       10.7966
_cell_length_b       10.7966
_cell_length_c       43.738
_cell_angle_alpha    82.6465
_cell_angle_beta     97.3535
_cell_angle_gamma    120.441

_symmetry_space_group_name_H-M    "P 1"
_symmetry_Int_Tables_number       1

loop_
  _symmetry_equiv_pos_as_xyz
  'x, y, z'

loop_
  _atom_site_type_symbol
  _atom_site_label
  _atom_site_symmetry_multiplicity
  _atom_site_fract_x
  _atom_site_fract_y
  _atom_site_fract_z
  _atom_site_occupancy
  _atom_site_charge
Zn  Zn1       1.0  0.20086  0.77762  0.20958  1.0000 0.8565861153
Zn  Zn2       1.0  0.24505  0.74191  0.13448  1.0000 0.7202101591
Zn  Zn3       1.0  0.27580  0.02580  0.14845  1.0000 0.7202101591
Zn  Zn4       1.0  0.16440  0.93566  0.07138  1.0000 0.8830752539
Zn  Zn5       1.0  0.77762  0.20086  0.29042  1.0000 0.8565861153
Zn  Zn6       1.0  0.74191  0.24505  0.36552  1.0000 0.7202101591
Zn  Zn7       1.0  0.02580  0.27580  0.35155  1.0000 0.7202101591
Zn  Zn8       1.0  0.93566  0.16440  0.42862  1.0000 0.8830752539
Zn  Zn9       1.0  0.79914  0.22238  0.79042  1.0000 0.8565861153
Zn  Zn10      1.0  0.75495  0.25809  0.86552  1.0000 0.7202101591
Zn  Zn11      1.0  0.72420  0.97420  0.85155  1.0000 0.7202101591
Zn  Zn12      1.0  0.83560  0.06434  0.92862  1.0000 0.8830752539
Zn  Zn13      1.0  0.22238  0.79914  0.70958  1.0000 0.8565861153
Zn  Zn14      1.0  0.25809  0.75495  0.63448  1.0000 0.7202101591
Zn  Zn15      1.0  0.97420  0.72420  0.64845  1.0000 0.7202101591
Zn  Zn16      1.0  0.06434  0.83560  0.57138  1.0000 0.8830752539
H   H1        1.0  0.12280  0.51560  0.25230  1.0000 0.1196221044
H   H2        1.0  0.22220  0.40740  0.28780  1.0000 0.1464196312
H   H3        1.0  0.32910  0.28650  0.30600  1.0000 0.138588068
H   H4        1.0  0.44240  0.18060  0.33780  1.0000 0.1117172988
H   H5        1.0  0.80370  0.55110  0.34230  1.0000 0.1196221044
H   H6        1.0  0.69600  0.66740  0.31220  1.0000 0.138588068
H   H7        1.0  0.61800  0.73580  0.26770  1.0000 0.138588068
H   H8        1.0  0.50790  0.83850  0.23410  1.0000 0.1196221044
H   H9        1.0  0.09860  0.22560  0.23170  1.0000 0.1315333039
H   H10       1.0  0.04280  0.32580  0.21230  1.0000 0.1315333039
H   H11       1.0  0.99600  0.98600  0.22000  1.0000 0.138588068
H   H12       1.0  0.86110  0.92570  0.19510  1.0000 0.1315333039
H   H13       1.0  0.76760  0.53820  0.16870  1.0000 0.138588068
H   H14       1.0  0.77730  0.40870  0.18890  1.0000 0.138588068
H   H15       1.0  0.66350  0.49590  0.12120  1.0000 0.138588068
H   H16       1.0  0.68530  0.40110  0.09960  1.0000 0.1315333039
H   H17       1.0  0.77640  0.86300  0.12010  1.0000 0.138588068
H   H18       1.0  0.67660  0.81100  0.08880  1.0000 0.1315333039
H   H19       1.0  0.65050  0.11850  0.06870  1.0000 0.138588068
H   H20       1.0  0.60070  0.96210  0.05830  1.0000 0.138588068
H   H21       1.0  0.95710  0.53970  0.09820  1.0000 0.1117172988
H   H22       1.0  0.86740  0.39460  0.05710  1.0000 0.1315333039
H   H23       1.0  0.79590  0.27910  0.01890  1.0000 0.1315333039
H   H24       1.0  0.71870  0.15010  0.97570  1.0000 0.1117172988
H   H25       1.0  0.11360  0.25220  0.96430  1.0000 0.1196221044
H   H26       1.0  0.19980  0.37780  0.00870  1.0000 0.1315333039
H   H27       1.0  0.27200  0.48800  0.04680  1.0000 0.1315333039
H   H28       1.0  0.35060  0.63020  0.08830  1.0000 0.1117172988
H   H29       1.0  0.22430  0.85670  0.11660  1.0000 0.2388075236
H   H30       1.0  0.32040  0.95500  0.16770  1.0000 0.1977998707
H   H31       1.0  0.29010  0.19870  0.06470  1.0000 0.3861475009
H   H32       1.0  0.14670  0.15450  0.06830  1.0000 0.370610224
H   H33       1.0  0.51560  0.12280  0.24770  1.0000 0.1196221044
H   H34       1.0  0.40740  0.22220  0.21220  1.0000 0.1464196312
H   H35       1.0  0.28650  0.32910  0.19400  1.0000 0.138588068
H   H36       1.0  0.18060  0.44240  0.16220  1.0000 0.1117172988
H   H37       1.0  0.55110  0.80370  0.15770  1.0000 0.1196221044
H   H38       1.0  0.66740  0.69600  0.18780  1.0000 0.138588068
H   H39       1.0  0.73580  0.61800  0.23230  1.0000 0.138588068
H   H40       1.0  0.83850  0.50790  0.26590  1.0000 0.1196221044
H   H41       1.0  0.22560  0.09860  0.26830  1.0000 0.1315333039
H   H42       1.0  0.32580  0.04280  0.28770  1.0000 0.1315333039
H   H43       1.0  0.98600  0.99600  0.28000  1.0000 0.138588068
H   H44       1.0  0.92570  0.86110  0.30490  1.0000 0.1315333039
H   H45       1.0  0.53820  0.76760  0.33130  1.0000 0.138588068
H   H46       1.0  0.40870  0.77730  0.31110  1.0000 0.138588068
H   H47       1.0  0.49590  0.66350  0.37880  1.0000 0.138588068
H   H48       1.0  0.40110  0.68530  0.40040  1.0000 0.1315333039
H   H49       1.0  0.86300  0.77640  0.37990  1.0000 0.138588068
H   H50       1.0  0.81100  0.67660  0.41120  1.0000 0.1315333039
H   H51       1.0  0.11850  0.65050  0.43130  1.0000 0.138588068
H   H52       1.0  0.96210  0.60070  0.44170  1.0000 0.138588068
H   H53       1.0  0.53970  0.95710  0.40180  1.0000 0.1117172988
H   H54       1.0  0.39460  0.86740  0.44290  1.0000 0.1315333039
H   H55       1.0  0.27910  0.79590  0.48110  1.0000 0.1315333039
H   H56       1.0  0.15010  0.71870  0.52430  1.0000 0.1117172988
H   H57       1.0  0.25220  0.11360  0.53570  1.0000 0.1196221044
H   H58       1.0  0.37780  0.19980  0.49130  1.0000 0.1315333039
H   H59       1.0  0.48800  0.27200  0.45320  1.0000 0.1315333039
H   H60       1.0  0.63020  0.35060  0.41170  1.0000 0.1117172988
H   H61       1.0  0.85670  0.22430  0.38340  1.0000 0.2388075236
H   H62       1.0  0.95500  0.32040  0.33230  1.0000 0.1977998707
H   H63       1.0  0.19870  0.29010  0.43530  1.0000 0.3861475009
H   H64       1.0  0.15450  0.14670  0.43170  1.0000 0.370610224
H   H65       1.0  0.87720  0.48440  0.74770  1.0000 0.1196221044
H   H66       1.0  0.77780  0.59260  0.71220  1.0000 0.1464196312
H   H67       1.0  0.67090  0.71350  0.69400  1.0000 0.1315333039
H   H68       1.0  0.55760  0.81940  0.66220  1.0000 0.1117172988
H   H69       1.0  0.19630  0.44890  0.65770  1.0000 0.1196221044
H   H70       1.0  0.30400  0.33260  0.68780  1.0000 0.138588068
H   H71       1.0  0.38200  0.26420  0.73230  1.0000 0.138588068
H   H72       1.0  0.49210  0.16150  0.76590  1.0000 0.1196221044
H   H73       1.0  0.90140  0.77440  0.76830  1.0000 0.1315333039
H   H74       1.0  0.95720  0.67420  0.78770  1.0000 0.1315333039
H   H75       1.0  0.00400  0.01400  0.78000  1.0000 0.138588068
H   H76       1.0  0.13890  0.07430  0.80490  1.0000 0.1315333039
H   H77       1.0  0.23240  0.46180  0.83130  1.0000 0.138588068
H   H78       1.0  0.22270  0.59130  0.81110  1.0000 0.138588068
H   H79       1.0  0.33650  0.50410  0.87880  1.0000 0.138588068
H   H80       1.0  0.31470  0.59890  0.90040  1.0000 0.1315333039
H   H81       1.0  0.22360  0.13700  0.87990  1.0000 0.138588068
H   H82       1.0  0.32340  0.18900  0.91120  1.0000 0.1315333039
H   H83       1.0  0.34950  0.88150  0.93130  1.0000 0.138588068
H   H84       1.0  0.39930  0.03790  0.94170  1.0000 0.138588068
H   H85       1.0  0.04290  0.46030  0.90180  1.0000 0.1117172988
H   H86       1.0  0.13260  0.60540  0.94290  1.0000 0.1315333039
H   H87       1.0  0.20410  0.72090  0.98110  1.0000 0.1315333039
H   H88       1.0  0.28130  0.84990  0.02430  1.0000 0.1117172988
H   H89       1.0  0.88640  0.74780  0.03570  1.0000 0.1196221044
H   H90       1.0  0.80020  0.62220  0.99130  1.0000 0.1315333039
H   H91       1.0  0.72800  0.51200  0.95320  1.0000 0.1315333039
H   H92       1.0  0.64940  0.36980  0.91170  1.0000 0.1117172988
H   H93       1.0  0.77570  0.14330  0.88340  1.0000 0.2388075236
H   H94       1.0  0.67960  0.04500  0.83230  1.0000 0.1977998707
H   H95       1.0  0.70990  0.80130  0.93530  1.0000 0.3861475009
H   H96       1.0  0.85330  0.84550  0.93170  1.0000 0.370610224
H   H97       1.0  0.48440  0.87720  0.75230  1.0000 0.1196221044
H   H98       1.0  0.59260  0.77780  0.78780  1.0000 0.1464196312
H   H99       1.0  0.71350  0.67090  0.80600  1.0000 0.138588068
H   H100      1.0  0.81940  0.55760  0.83780  1.0000 0.1117172988
H   H101      1.0  0.44890  0.19630  0.84230  1.0000 0.1196221044
H   H102      1.0  0.33260  0.30400  0.81220  1.0000 0.138588068
H   H103      1.0  0.26420  0.38200  0.76770  1.0000 0.138588068
H   H104      1.0  0.16150  0.49210  0.73410  1.0000 0.1196221044
H   H105      1.0  0.77440  0.90140  0.73170  1.0000 0.1315333039
H   H106      1.0  0.67420  0.95720  0.71230  1.0000 0.1315333039
H   H107      1.0  0.01400  0.00400  0.72000  1.0000 0.138588068
H   H108      1.0  0.07430  0.13890  0.69510  1.0000 0.1315333039
H   H109      1.0  0.46180  0.23240  0.66870  1.0000 0.138588068
H   H110      1.0  0.59130  0.22270  0.68890  1.0000 0.138588068
H   H111      1.0  0.50410  0.33650  0.62120  1.0000 0.138588068
H   H112      1.0  0.59890  0.31470  0.59960  1.0000 0.1315333039
H   H113      1.0  0.13700  0.22360  0.62010  1.0000 0.138588068
H   H114      1.0  0.18900  0.32340  0.58880  1.0000 0.1315333039
H   H115      1.0  0.88150  0.34950  0.56870  1.0000 0.138588068
H   H116      1.0  0.03790  0.39930  0.55830  1.0000 0.138588068
H   H117      1.0  0.46030  0.04290  0.59820  1.0000 0.1117172988
H   H118      1.0  0.60540  0.13260  0.55710  1.0000 0.1315333039
H   H119      1.0  0.72090  0.20410  0.51890  1.0000 0.1315333039
H   H120      1.0  0.84990  0.28130  0.47570  1.0000 0.1117172988
H   H121      1.0  0.74780  0.88640  0.46430  1.0000 0.1196221044
H   H122      1.0  0.62220  0.80020  0.50870  1.0000 0.1315333039
H   H123      1.0  0.51200  0.72800  0.54680  1.0000 0.1315333039
H   H124      1.0  0.36980  0.64940  0.58830  1.0000 0.1117172988
H   H125      1.0  0.14330  0.77570  0.61660  1.0000 0.2388075236
H   H126      1.0  0.04500  0.67960  0.66770  1.0000 0.1977998707
H   H127      1.0  0.80130  0.70990  0.56470  1.0000 0.3861475009
H   H128      1.0  0.84550  0.85330  0.56830  1.0000 0.370610224
C   C1        1.0  0.22460  0.56100  0.25560  1.0000 0.0995743665
C   C2        1.0  0.28350  0.49530  0.27673  1.0000 -0.1712508979
C   C3        1.0  0.43340  0.55720  0.28192  1.0000 0.1117172988
C   C4        1.0  0.50130  0.48770  0.30442  1.0000 0.1117172988
C   C5        1.0  0.42740  0.34340  0.31310  1.0000 -0.1712508979
C   C6        1.0  0.49600  0.28080  0.33200  1.0000 0.0929668265
C   C7        1.0  0.70570  0.49630  0.33480  1.0000 0.0929668265
C   C8        1.0  0.64270  0.56590  0.31650  1.0000 -0.1896131868
C   C9        1.0  0.51580  0.68840  0.26510  1.0000 -0.1896131868
C   C10       1.0  0.44960  0.74860  0.24490  1.0000 0.0929668265
C   C11       1.0  0.89930  0.16470  0.16831  1.0000 0.4838032591
C   C12       1.0  0.76840  0.09280  0.12268  1.0000 0.4922900367
C   C13       1.0  0.79460  0.28700  0.14354  1.0000 0.4838032591
C   C14       1.0  0.01370  0.22510  0.22001  1.0000 -0.2499271781
C   C15       1.0  0.89640  0.17380  0.24200  1.0000 0.6024895179
C   C16       1.0  0.96380  0.00000  0.19830  1.0000 -0.2411943632
C   C17       1.0  0.04980  0.97520  0.17740  1.0000 0.6024895179
C   C18       1.0  0.81110  0.47570  0.17025  1.0000 -0.260361774
C   C19       1.0  0.97340  0.56880  0.17420  1.0000 0.6424760538
C   C20       1.0  0.65710  0.40170  0.12020  1.0000 -0.2411943632
C   C21       1.0  0.49960  0.28420  0.12260  1.0000 0.6114041972
C   C22       1.0  0.75650  0.89570  0.09880  1.0000 -0.2499271781
C   C23       1.0  0.88880  0.95420  0.08120  1.0000 0.6114041972
C   C24       1.0  0.61070  0.01570  0.07600  1.0000 -0.260361774
C   C25       1.0  0.46270  0.95870  0.08760  1.0000 0.6227886843
C   C26       1.0  0.02260  0.53120  0.08720  1.0000 0.0995743665
C   C27       1.0  0.96800  0.44380  0.06270  1.0000 -0.1712508979
C   C28       1.0  0.05980  0.42840  0.04650  1.0000 0.1196221044
C   C29       1.0  0.00630  0.34130  0.01890  1.0000 0.1196221044
C   C30       1.0  0.86390  0.27310  0.00830  1.0000 -0.1896131868
C   C31       1.0  0.81810  0.19570  0.98250  1.0000 0.0929668265
C   C32       1.0  0.04700  0.25440  0.97620  1.0000 0.0813925917
C   C33       1.0  0.09980  0.33200  0.00240  1.0000 -0.1795430724
C   C34       1.0  0.20500  0.49840  0.05670  1.0000 -0.1896131868
C   C35       1.0  0.25120  0.58380  0.08150  1.0000 0.0813925917
C   C36       1.0  0.56100  0.22460  0.24440  1.0000 0.0995743665
C   C37       1.0  0.49530  0.28350  0.22327  1.0000 -0.1712508979
C   C38       1.0  0.55720  0.43340  0.21808  1.0000 0.1117172988
C   C39       1.0  0.48770  0.50130  0.19558  1.0000 0.1117172988
C   C40       1.0  0.34340  0.42740  0.18690  1.0000 -0.1712508979
C   C41       1.0  0.28080  0.49600  0.16800  1.0000 0.0929668265
C   C42       1.0  0.49630  0.70570  0.16520  1.0000 0.0929668265
C   C43       1.0  0.56590  0.64270  0.18350  1.0000 -0.1896131868
C   C44       1.0  0.68840  0.51580  0.23490  1.0000 -0.1896131868
C   C45       1.0  0.74860  0.44960  0.25510  1.0000 0.0929668265
C   C46       1.0  0.16470  0.89930  0.33169  1.0000 0.4838032591
C   C47       1.0  0.09280  0.76840  0.37732  1.0000 0.4922900367
C   C48       1.0  0.28700  0.79460  0.35646  1.0000 0.4838032591
C   C49       1.0  0.22510  0.01370  0.27999  1.0000 -0.2499271781
C   C50       1.0  0.17380  0.89640  0.25800  1.0000 0.6024895179
C   C51       1.0  0.00000  0.96380  0.30170  1.0000 -0.2411943632
C   C52       1.0  0.97520  0.04980  0.32260  1.0000 0.6024895179
C   C53       1.0  0.47570  0.81110  0.32975  1.0000 -0.260361774
C   C54       1.0  0.56880  0.97340  0.32580  1.0000 0.6424760538
C   C55       1.0  0.40170  0.65710  0.37980  1.0000 -0.2411943632
C   C56       1.0  0.28420  0.49960  0.37740  1.0000 0.6114041972
C   C57       1.0  0.89570  0.75650  0.40120  1.0000 -0.2499271781
C   C58       1.0  0.95420  0.88880  0.41880  1.0000 0.6114041972
C   C59       1.0  0.01570  0.61070  0.42400  1.0000 -0.260361774
C   C60       1.0  0.95870  0.46270  0.41240  1.0000 0.6227886843
C   C61       1.0  0.53120  0.02260  0.41280  1.0000 0.0995743665
C   C62       1.0  0.44380  0.96800  0.43730  1.0000 -0.1712508979
C   C63       1.0  0.42840  0.05980  0.45350  1.0000 0.1196221044
C   C64       1.0  0.34130  0.00630  0.48110  1.0000 0.1196221044
C   C65       1.0  0.27310  0.86390  0.49170  1.0000 -0.1896131868
C   C66       1.0  0.19570  0.81810  0.51750  1.0000 0.0929668265
C   C67       1.0  0.25440  0.04700  0.52380  1.0000 0.0813925917
C   C68       1.0  0.33200  0.09980  0.49760  1.0000 -0.1795430724
C   C69       1.0  0.49840  0.20500  0.44330  1.0000 -0.1896131868
C   C70       1.0  0.58380  0.25120  0.41850  1.0000 0.0813925917
C   C71       1.0  0.77540  0.43900  0.74440  1.0000 0.0995743665
C   C72       1.0  0.71650  0.50470  0.72327  1.0000 -0.1712508979
C   C73       1.0  0.56660  0.44280  0.71808  1.0000 0.1117172988
C   C74       1.0  0.49870  0.51230  0.69558  1.0000 0.1117172988
C   C75       1.0  0.57260  0.65660  0.68690  1.0000 -0.1712508979
C   C76       1.0  0.50400  0.71920  0.66800  1.0000 0.0929668265
C   C77       1.0  0.29430  0.50370  0.66520  1.0000 0.0929668265
C   C78       1.0  0.35730  0.43410  0.68350  1.0000 -0.1896131868
C   C79       1.0  0.48420  0.31160  0.73490  1.0000 -0.1896131868
C   C80       1.0  0.55040  0.25140  0.75510  1.0000 0.0929668265
C   C81       1.0  0.10070  0.83530  0.83169  1.0000 0.4838032591
C   C82       1.0  0.23160  0.90720  0.87732  1.0000 0.4922900367
C   C83       1.0  0.20540  0.71300  0.85646  1.0000 0.4838032591
C   C84       1.0  0.98630  0.77490  0.77999  1.0000 -0.2499271781
C   C85       1.0  0.10360  0.82620  0.75800  1.0000 0.6024895179
C   C86       1.0  0.03620  0.00000  0.80170  1.0000 -0.2411943632
C   C87       1.0  0.95020  0.02480  0.82260  1.0000 0.6024895179
C   C88       1.0  0.18890  0.52430  0.82975  1.0000 -0.260361774
C   C89       1.0  0.02660  0.43120  0.82580  1.0000 0.6424760538
C   C90       1.0  0.34290  0.59830  0.87980  1.0000 -0.2411943632
C   C91       1.0  0.50040  0.71580  0.87740  1.0000 0.6114041972
C   C92       1.0  0.24350  0.10430  0.90120  1.0000 -0.2499271781
C   C93       1.0  0.11120  0.04580  0.91880  1.0000 0.6114041972
C   C94       1.0  0.38930  0.98430  0.92400  1.0000 -0.260361774
C   C95       1.0  0.53730  0.04130  0.91240  1.0000 0.6227886843
C   C96       1.0  0.97740  0.46880  0.91280  1.0000 0.0995743665
C   C97       1.0  0.03200  0.55620  0.93730  1.0000 -0.1712508979
C   C98       1.0  0.94020  0.57160  0.95350  1.0000 0.1196221044
C   C99       1.0  0.99370  0.65870  0.98110  1.0000 0.1196221044
C   C100      1.0  0.13610  0.72690  0.99170  1.0000 -0.1896131868
C   C101      1.0  0.18190  0.80430  0.01750  1.0000 0.0929668265
C   C102      1.0  0.95300  0.74560  0.02380  1.0000 0.0813925917
C   C103      1.0  0.90020  0.66800  0.99760  1.0000 -0.1795430724
C   C104      1.0  0.79500  0.50160  0.94330  1.0000 -0.1896131868
C   C105      1.0  0.74880  0.41620  0.91850  1.0000 0.0813925917
C   C106      1.0  0.43900  0.77540  0.75560  1.0000 0.0995743665
C   C107      1.0  0.50470  0.71650  0.77673  1.0000 -0.1712508979
C   C108      1.0  0.44280  0.56660  0.78192  1.0000 0.1117172988
C   C109      1.0  0.51230  0.49870  0.80442  1.0000 0.1117172988
C   C110      1.0  0.65660  0.57260  0.81310  1.0000 -0.1712508979
C   C111      1.0  0.71920  0.50400  0.83200  1.0000 0.0929668265
C   C112      1.0  0.50370  0.29430  0.83480  1.0000 0.0929668265
C   C113      1.0  0.43410  0.35730  0.81650  1.0000 -0.1896131868
C   C114      1.0  0.31160  0.48420  0.76510  1.0000 -0.1896131868
C   C115      1.0  0.25140  0.55040  0.74490  1.0000 0.0929668265
C   C116      1.0  0.83530  0.10070  0.66831  1.0000 0.4838032591
C   C117      1.0  0.90720  0.23160  0.62268  1.0000 0.4922900367
C   C118      1.0  0.71300  0.20540  0.64354  1.0000 0.4838032591
C   C119      1.0  0.77490  0.98630  0.72001  1.0000 -0.2499271781
C   C120      1.0  0.82620  0.10360  0.74200  1.0000 0.6024895179
C   C121      1.0  0.00000  0.03620  0.69830  1.0000 -0.2411943632
C   C122      1.0  0.02480  0.95020  0.67740  1.0000 0.6024895179
C   C123      1.0  0.52430  0.18890  0.67025  1.0000 -0.260361774
C   C124      1.0  0.43120  0.02660  0.67420  1.0000 0.6424760538
C   C125      1.0  0.59830  0.34290  0.62020  1.0000 -0.2411943632
C   C126      1.0  0.71580  0.50040  0.62260  1.0000 0.6114041972
C   C127      1.0  0.10430  0.24350  0.59880  1.0000 -0.2499271781
C   C128      1.0  0.04580  0.11120  0.58120  1.0000 0.6114041972
C   C129      1.0  0.98430  0.38930  0.57600  1.0000 -0.260361774
C   C130      1.0  0.04130  0.53730  0.58760  1.0000 0.6227886843
C   C131      1.0  0.46880  0.97740  0.58720  1.0000 0.0995743665
C   C132      1.0  0.55620  0.03200  0.56270  1.0000 -0.1712508979
C   C133      1.0  0.57160  0.94020  0.54650  1.0000 0.1196221044
C   C134      1.0  0.65870  0.99370  0.51890  1.0000 0.1196221044
C   C135      1.0  0.72690  0.13610  0.50830  1.0000 -0.1896131868
C   C136      1.0  0.80430  0.18190  0.48250  1.0000 0.0929668265
C   C137      1.0  0.74560  0.95300  0.47620  1.0000 0.0813925917
C   C138      1.0  0.66800  0.90020  0.50240  1.0000 -0.1795430724
C   C139      1.0  0.50160  0.79500  0.55670  1.0000 -0.1896131868
C   C140      1.0  0.41620  0.74880  0.58150  1.0000 0.0813925917
N   N1        1.0  0.30470  0.68590  0.23967  1.0000 -0.2411943632
N   N2        1.0  0.63440  0.35400  0.34263  1.0000 -0.2050976587
N   N3        1.0  0.84880  0.06980  0.14653  1.0000 -0.5394201947
N   N4        1.0  0.73490  0.19870  0.12017  1.0000 -0.5474660609
N   N5        1.0  0.87890  0.27730  0.16761  1.0000 -0.5394201947
N   N6        1.0  0.97480  0.14080  0.19376  1.0000 -0.048354928
N   N7        1.0  0.71130  0.00130  0.10025  1.0000 -0.0695172605
N   N8        1.0  0.76070  0.39250  0.14305  1.0000 -0.0566696433
N   N9        1.0  0.16320  0.60400  0.09625  1.0000 -0.2232962829
N   N10       1.0  0.90630  0.18230  0.96680  1.0000 -0.2279529666
N   N11       1.0  0.68590  0.30470  0.26033  1.0000 -0.2411943632
N   N12       1.0  0.35400  0.63440  0.15737  1.0000 -0.2050976587
N   N13       1.0  0.06980  0.84880  0.35347  1.0000 -0.5474660609
N   N14       1.0  0.19870  0.73490  0.37983  1.0000 -0.5474660609
N   N15       1.0  0.27730  0.87890  0.33239  1.0000 -0.5394201947
N   N16       1.0  0.14080  0.97480  0.30624  1.0000 -0.048354928
N   N17       1.0  0.00130  0.71130  0.39975  1.0000 -0.0695172605
N   N18       1.0  0.39250  0.76070  0.35695  1.0000 -0.0566696433
N   N19       1.0  0.60400  0.16320  0.40375  1.0000 -0.2232962829
N   N20       1.0  0.18230  0.90630  0.53320  1.0000 -0.2279529666
N   N21       1.0  0.69530  0.31410  0.76033  1.0000 -0.2411943632
N   N22       1.0  0.36560  0.64600  0.65737  1.0000 -0.2050976587
N   N23       1.0  0.15120  0.93020  0.85347  1.0000 -0.5474660609
N   N24       1.0  0.26510  0.80130  0.87983  1.0000 -0.5474660609
N   N25       1.0  0.12110  0.72270  0.83239  1.0000 -0.5394201947
N   N26       1.0  0.02520  0.85920  0.80624  1.0000 -0.048354928
N   N27       1.0  0.28870  0.99870  0.89975  1.0000 -0.0695172605
N   N28       1.0  0.23930  0.60750  0.85695  1.0000 -0.048354928
N   N29       1.0  0.83680  0.39600  0.90375  1.0000 -0.2232962829
N   N30       1.0  0.09370  0.81770  0.03320  1.0000 -0.2279529666
N   N31       1.0  0.31410  0.69530  0.73967  1.0000 -0.2411943632
N   N32       1.0  0.64600  0.36560  0.84263  1.0000 -0.2050976587
N   N33       1.0  0.93020  0.15120  0.64653  1.0000 -0.5474660609
N   N34       1.0  0.80130  0.26510  0.62017  1.0000 -0.5474660609
N   N35       1.0  0.72270  0.12110  0.66761  1.0000 -0.5394201947
N   N36       1.0  0.85920  0.02520  0.69376  1.0000 -0.048354928
N   N37       1.0  0.99870  0.28870  0.60025  1.0000 -0.0695172605
N   N38       1.0  0.60750  0.23930  0.64305  1.0000 -0.0566696433
N   N39       1.0  0.39600  0.83680  0.59625  1.0000 -0.2232962829
N   N40       1.0  0.81770  0.09370  0.46680  1.0000 -0.2279529666
O   O1        1.0  0.77370  0.07290  0.23659  1.0000 -0.5394201947
O   O2        1.0  0.93940  0.24320  0.26644  1.0000 -0.5763032121
O   O3        1.0  0.00500  0.85160  0.17126  1.0000 -0.5195529195
O   O4        1.0  0.16580  0.08460  0.16855  1.0000 -0.5096636546
O   O5        1.0  0.93280  0.86740  0.07925  1.0000 -0.5901578796
O   O6        1.0  0.95120  0.08400  0.07130  1.0000 -0.5609105659
O   O7        1.0  0.43130  0.88590  0.11262  1.0000 -0.5394201947
O   O8        1.0  0.38020  0.99280  0.06879  1.0000 -0.5986136032
O   O9        1.0  0.02200  0.60100  0.20163  1.0000 -0.5474660609
O   O10       1.0  0.04290  0.60770  0.15099  1.0000 -0.5195529195
O   O11       1.0  0.47180  0.19220  0.14566  1.0000 -0.5195529195
O   O12       1.0  0.41150  0.29450  0.10260  1.0000 -0.5763032121
O   O13       1.0  0.16540  0.88740  0.11601  1.0000 -0.7305823845
O   O14       1.0  0.30860  0.87120  0.17276  1.0000 -0.7305823845
O   O15       1.0  0.20290  0.13610  0.06030  1.0000 -0.6512841565
O   O16       1.0  0.07290  0.77370  0.26341  1.0000 -0.5394201947
O   O17       1.0  0.24320  0.93940  0.23356  1.0000 -0.5763032121
O   O18       1.0  0.85160  0.00500  0.32874  1.0000 -0.5195529195
O   O19       1.0  0.08460  0.16580  0.33145  1.0000 -0.5096636546
O   O20       1.0  0.86740  0.93280  0.42075  1.0000 -0.5901578796
O   O21       1.0  0.08400  0.95120  0.42870  1.0000 -0.5609105659
O   O22       1.0  0.88590  0.43130  0.38738  1.0000 -0.5342773231
O   O23       1.0  0.99280  0.38020  0.43121  1.0000 -0.5986136032
O   O24       1.0  0.60100  0.02200  0.29837  1.0000 -0.5474660609
O   O25       1.0  0.60770  0.04290  0.34901  1.0000 -0.5195529195
O   O26       1.0  0.19220  0.47180  0.35434  1.0000 -0.5195529195
O   O27       1.0  0.29450  0.41150  0.39740  1.0000 -0.5763032121
O   O28       1.0  0.88740  0.16540  0.38399  1.0000 -0.7305823845
O   O29       1.0  0.87120  0.30860  0.32724  1.0000 -0.7305823845
O   O30       1.0  0.13610  0.20290  0.43970  1.0000 -0.6512841565
O   O31       1.0  0.22630  0.92710  0.76341  1.0000 -0.5394201947
O   O32       1.0  0.06060  0.75680  0.73356  1.0000 -0.5763032121
O   O33       1.0  0.99500  0.14840  0.82874  1.0000 -0.5195529195
O   O34       1.0  0.83420  0.91540  0.83145  1.0000 -0.5096636546
O   O35       1.0  0.06720  0.13260  0.92075  1.0000 -0.5901578796
O   O36       1.0  0.04880  0.91600  0.92870  1.0000 -0.5609105659
O   O37       1.0  0.56870  0.11410  0.88738  1.0000 -0.5342773231
O   O38       1.0  0.61980  0.00720  0.93121  1.0000 -0.5986136032
O   O39       1.0  0.97800  0.39900  0.79837  1.0000 -0.5474660609
O   O40       1.0  0.95710  0.39230  0.84901  1.0000 -0.5195529195
O   O41       1.0  0.52820  0.80780  0.85434  1.0000 -0.5195529195
O   O42       1.0  0.58850  0.70550  0.89740  1.0000 -0.5763032121
O   O43       1.0  0.83460  0.11260  0.88399  1.0000 -0.7305823845
O   O44       1.0  0.69140  0.12880  0.82724  1.0000 -0.7305823845
O   O45       1.0  0.79710  0.86390  0.93970  1.0000 -0.6512841565
O   O46       1.0  0.92710  0.22630  0.73659  1.0000 -0.5394201947
O   O47       1.0  0.75680  0.06060  0.76644  1.0000 -0.5763032121
O   O48       1.0  0.14840  0.99500  0.67126  1.0000 -0.5195529195
O   O49       1.0  0.91540  0.83420  0.66855  1.0000 -0.5096636546
O   O50       1.0  0.13260  0.06720  0.57925  1.0000 -0.5901578796
O   O51       1.0  0.91600  0.04880  0.57130  1.0000 -0.5609105659
O   O52       1.0  0.11410  0.56870  0.61262  1.0000 -0.5342773231
O   O53       1.0  0.00720  0.61980  0.56879  1.0000 -0.5986136032
O   O54       1.0  0.39900  0.97800  0.70163  1.0000 -0.5474660609
O   O55       1.0  0.39230  0.95710  0.65099  1.0000 -0.5195529195
O   O56       1.0  0.80780  0.52820  0.64566  1.0000 -0.5195529195
O   O57       1.0  0.70550  0.58850  0.60260  1.0000 -0.5763032121
O   O58       1.0  0.11260  0.83460  0.61601  1.0000 -0.7305823845
O   O59       1.0  0.12880  0.69140  0.67276  1.0000 -0.7305823845
O   O60       1.0  0.86390  0.79710  0.56030  1.0000 -0.6512841565
