# DDEC6 charges by PACMAN v1.1 (https://github.com/mtap-research/PACMAN-charge/)
data_2018[Zn][dmc]3[FSR]1
_chemical_formula_sum              "Zn8 H48 C72 N24 O16"
_cell_length_a       11.261
_cell_length_b       13.2837
_cell_length_c       13.6926
_cell_angle_alpha    90
_cell_angle_beta     90
_cell_angle_gamma    90

_symmetry_space_group_name_H-M    "P 1"
_symmetry_Int_Tables_number       1

loop_
  _symmetry_equiv_pos_as_xyz
  'x, y, z'

loop_
  _atom_site_type_symbol
  _atom_site_label
  _atom_site_symmetry_multiplicity
  _atom_site_fract_x
  _atom_site_fract_y
  _atom_site_fract_z
  _atom_site_occupancy
  _atom_site_charge
Zn  Zn1       1.0  0.78959  0.94560  0.31071  1.0000 0.6605942093
Zn  Zn2       1.0  0.92864  0.05439  0.10978  1.0000 0.6605942093
Zn  Zn3       1.0  0.28959  0.55440  0.31071  1.0000 0.6605942093
Zn  Zn4       1.0  0.42864  0.44561  0.10978  1.0000 0.6605942093
Zn  Zn5       1.0  0.28959  0.05440  0.68929  1.0000 0.6605942093
Zn  Zn6       1.0  0.42864  0.94561  0.89022  1.0000 0.6605942093
Zn  Zn7       1.0  0.78959  0.44560  0.68929  1.0000 0.6605942093
Zn  Zn8       1.0  0.92864  0.55439  0.89022  1.0000 0.6605942093
H   H1        1.0  0.71320  0.20050  0.06110  1.0000 0.120713982
H   H2        1.0  0.59860  0.13080  0.32720  1.0000 0.1114754101
H   H3        1.0  0.12110  0.87400  0.09540  1.0000 0.1114754101
H   H4        1.0  0.00680  0.80160  0.35990  1.0000 0.1114754101
H   H5        1.0  0.97860  0.15310  0.92170  1.0000 0.120713982
H   H6        1.0  0.94010  0.13750  0.75840  1.0000 0.1321667463
H   H7        1.0  0.78460  0.87310  0.81300  1.0000 0.1366206996
H   H8        1.0  0.82700  0.89700  0.97570  1.0000 0.120713982
H   H9        1.0  0.95260  0.04210  0.44980  1.0000 0.1114754101
H   H10       1.0  0.98570  0.06300  0.61280  1.0000 0.1321667463
H   H11       1.0  0.68270  0.91620  0.66480  1.0000 0.1463895433
H   H12       1.0  0.65890  0.89950  0.50030  1.0000 0.1114754101
H   H13       1.0  0.21320  0.29950  0.06110  1.0000 0.120713982
H   H14       1.0  0.09860  0.36920  0.32720  1.0000 0.1114754101
H   H15       1.0  0.62110  0.62600  0.09540  1.0000 0.1114754101
H   H16       1.0  0.50680  0.69840  0.35990  1.0000 0.1114754101
H   H17       1.0  0.47860  0.34690  0.92170  1.0000 0.120713982
H   H18       1.0  0.44010  0.36250  0.75840  1.0000 0.1321667463
H   H19       1.0  0.28460  0.62690  0.81300  1.0000 0.1366206996
H   H20       1.0  0.32700  0.60300  0.97570  1.0000 0.120713982
H   H21       1.0  0.45260  0.45790  0.44980  1.0000 0.1114754101
H   H22       1.0  0.48570  0.43700  0.61280  1.0000 0.1321667463
H   H23       1.0  0.18270  0.58380  0.66480  1.0000 0.1463895433
H   H24       1.0  0.15890  0.60050  0.50030  1.0000 0.1114754101
H   H25       1.0  0.21320  0.79950  0.93890  1.0000 0.120713982
H   H26       1.0  0.09860  0.86920  0.67280  1.0000 0.1114754101
H   H27       1.0  0.62110  0.12600  0.90460  1.0000 0.1114754101
H   H28       1.0  0.50680  0.19840  0.64010  1.0000 0.1114754101
H   H29       1.0  0.47860  0.84690  0.07830  1.0000 0.120713982
H   H30       1.0  0.44010  0.86250  0.24160  1.0000 0.1321667463
H   H31       1.0  0.28460  0.12690  0.18700  1.0000 0.1366206996
H   H32       1.0  0.32700  0.10300  0.02430  1.0000 0.120713982
H   H33       1.0  0.45260  0.95790  0.55020  1.0000 0.1114754101
H   H34       1.0  0.48570  0.93700  0.38720  1.0000 0.1321667463
H   H35       1.0  0.18270  0.08380  0.33520  1.0000 0.1463895433
H   H36       1.0  0.15890  0.10050  0.49970  1.0000 0.1114754101
H   H37       1.0  0.71320  0.70050  0.93890  1.0000 0.120713982
H   H38       1.0  0.59860  0.63080  0.67280  1.0000 0.1114754101
H   H39       1.0  0.12110  0.37400  0.90460  1.0000 0.1114754101
H   H40       1.0  0.00680  0.30160  0.64010  1.0000 0.1114754101
H   H41       1.0  0.97860  0.65310  0.07830  1.0000 0.120713982
H   H42       1.0  0.94010  0.63750  0.24160  1.0000 0.1321667463
H   H43       1.0  0.78460  0.37310  0.18700  1.0000 0.1366206996
H   H44       1.0  0.82700  0.39700  0.02430  1.0000 0.120713982
H   H45       1.0  0.95260  0.54210  0.55020  1.0000 0.1114754101
H   H46       1.0  0.98570  0.56300  0.38720  1.0000 0.1321667463
H   H47       1.0  0.68270  0.41620  0.33520  1.0000 0.1463895433
H   H48       1.0  0.65890  0.39950  0.49970  1.0000 0.1114754101
C   C1        1.0  0.72570  0.93270  0.52360  1.0000 0.0774709351
C   C2        1.0  0.91800  0.02910  0.59200  1.0000 -0.188114778
C   C3        1.0  0.73940  0.94250  0.62290  1.0000 -0.1674317203
C   C4        1.0  0.83720  0.99130  0.66000  1.0000 0.120713982
C   C5        1.0  0.70350  0.16970  0.12160  1.0000 -0.0303359407
C   C6        1.0  0.62190  0.19870  0.19180  1.0000 -0.1478269685
C   C7        1.0  0.64000  0.13080  0.26840  1.0000 -0.0201867905
C   C8        1.0  0.54060  0.28540  0.18760  1.0000 0.5575047128
C   C9        1.0  0.07930  0.87280  0.15400  1.0000 -0.0201867905
C   C10       1.0  0.09780  0.80370  0.22880  1.0000 -0.1478269685
C   C11       1.0  0.01620  0.83290  0.29960  1.0000 -0.0303359407
C   C12       1.0  0.17910  0.71700  0.23020  1.0000 0.5575047128
C   C13       1.0  0.93910  0.09600  0.89940  1.0000 0.0911608498
C   C14       1.0  0.91670  0.08680  0.80110  1.0000 -0.1674317203
C   C15       1.0  0.85970  0.00280  0.76580  1.0000 0.1114754101
C   C16       1.0  0.82460  0.93070  0.83320  1.0000 -0.1674317203
C   C17       1.0  0.85040  0.94590  0.93100  1.0000 0.0911608498
C   C18       1.0  0.89770  0.01610  0.49380  1.0000 0.0718021385
C   C19       1.0  0.22570  0.56730  0.52360  1.0000 0.0774709351
C   C20       1.0  0.41800  0.47090  0.59200  1.0000 -0.188114778
C   C21       1.0  0.23940  0.55750  0.62290  1.0000 -0.1674317203
C   C22       1.0  0.33720  0.50870  0.66000  1.0000 0.120713982
C   C23       1.0  0.20350  0.33030  0.12160  1.0000 -0.0303359407
C   C24       1.0  0.12190  0.30130  0.19180  1.0000 -0.1478269685
C   C25       1.0  0.14000  0.36920  0.26840  1.0000 -0.0201867905
C   C26       1.0  0.04060  0.21460  0.18760  1.0000 0.5575047128
C   C27       1.0  0.57930  0.62720  0.15400  1.0000 -0.0201867905
C   C28       1.0  0.59780  0.69630  0.22880  1.0000 -0.1478269685
C   C29       1.0  0.51620  0.66710  0.29960  1.0000 -0.0303359407
C   C30       1.0  0.67910  0.78300  0.23020  1.0000 0.5575047128
C   C31       1.0  0.43910  0.40400  0.89940  1.0000 0.0911608498
C   C32       1.0  0.41670  0.41320  0.80110  1.0000 -0.1674317203
C   C33       1.0  0.35970  0.49720  0.76580  1.0000 0.1114754101
C   C34       1.0  0.32460  0.56930  0.83320  1.0000 -0.1674317203
C   C35       1.0  0.35040  0.55410  0.93100  1.0000 0.0911608498
C   C36       1.0  0.39770  0.48390  0.49380  1.0000 0.0718021385
C   C37       1.0  0.22570  0.06730  0.47640  1.0000 0.0774709351
C   C38       1.0  0.41800  0.97090  0.40800  1.0000 -0.188114778
C   C39       1.0  0.23940  0.05750  0.37710  1.0000 -0.1674317203
C   C40       1.0  0.33720  0.00870  0.34000  1.0000 0.120713982
C   C41       1.0  0.20350  0.83030  0.87840  1.0000 -0.0303359407
C   C42       1.0  0.12190  0.80130  0.80820  1.0000 -0.1478269685
C   C43       1.0  0.14000  0.86920  0.73160  1.0000 -0.0201867905
C   C44       1.0  0.04060  0.71460  0.81240  1.0000 0.5575047128
C   C45       1.0  0.57930  0.12720  0.84600  1.0000 -0.0201867905
C   C46       1.0  0.59780  0.19630  0.77120  1.0000 -0.1478269685
C   C47       1.0  0.51620  0.16710  0.70040  1.0000 -0.0303359407
C   C48       1.0  0.67910  0.28300  0.76980  1.0000 0.5575047128
C   C49       1.0  0.43910  0.90400  0.10060  1.0000 0.0911608498
C   C50       1.0  0.41670  0.91320  0.19890  1.0000 -0.1674317203
C   C51       1.0  0.35970  0.99720  0.23420  1.0000 0.1114754101
C   C52       1.0  0.32460  0.06930  0.16680  1.0000 -0.1674317203
C   C53       1.0  0.35040  0.05410  0.06900  1.0000 0.0911608498
C   C54       1.0  0.39770  0.98390  0.50620  1.0000 0.0718021385
C   C55       1.0  0.72570  0.43270  0.47640  1.0000 0.0774709351
C   C56       1.0  0.91800  0.52910  0.40800  1.0000 -0.188114778
C   C57       1.0  0.73940  0.44250  0.37710  1.0000 -0.1674317203
C   C58       1.0  0.83720  0.49130  0.34000  1.0000 0.120713982
C   C59       1.0  0.70350  0.66970  0.87840  1.0000 -0.0303359407
C   C60       1.0  0.62190  0.69870  0.80820  1.0000 -0.1478269685
C   C61       1.0  0.64000  0.63080  0.73160  1.0000 -0.0201867905
C   C62       1.0  0.54060  0.78540  0.81240  1.0000 0.5575047128
C   C63       1.0  0.07930  0.37280  0.84600  1.0000 -0.0201867905
C   C64       1.0  0.09780  0.30370  0.77120  1.0000 -0.1478269685
C   C65       1.0  0.01620  0.33290  0.70040  1.0000 -0.0303359407
C   C66       1.0  0.17910  0.21700  0.76980  1.0000 0.5575047128
C   C67       1.0  0.93910  0.59600  0.10060  1.0000 0.0911608498
C   C68       1.0  0.91670  0.58680  0.19890  1.0000 -0.1674317203
C   C69       1.0  0.85970  0.50280  0.23420  1.0000 0.1114754101
C   C70       1.0  0.82460  0.43070  0.16680  1.0000 -0.1674317203
C   C71       1.0  0.85040  0.44590  0.06900  1.0000 0.0911608498
C   C72       1.0  0.89770  0.51610  0.50620  1.0000 0.0718021385
N   N1        1.0  0.80280  0.96810  0.45900  1.0000 -0.2103706829
N   N2        1.0  0.72530  0.06640  0.24450  1.0000 -0.1810940462
N   N3        1.0  0.76620  0.09110  0.15340  1.0000 -0.1810940462
N   N4        1.0  0.95390  0.91090  0.26930  1.0000 -0.188114778
N   N5        1.0  0.99420  0.93630  0.17770  1.0000 -0.1810940462
N   N6        1.0  0.90620  0.02610  0.96410  1.0000 -0.2103706829
N   N7        1.0  0.30280  0.53190  0.45900  1.0000 -0.2103706829
N   N8        1.0  0.22530  0.43360  0.24450  1.0000 -0.1810940462
N   N9        1.0  0.26620  0.40890  0.15340  1.0000 -0.1810940462
N   N10       1.0  0.45390  0.58910  0.26930  1.0000 -0.188114778
N   N11       1.0  0.49420  0.56370  0.17770  1.0000 -0.1810940462
N   N12       1.0  0.40620  0.47390  0.96410  1.0000 -0.2103706829
N   N13       1.0  0.30280  0.03190  0.54100  1.0000 -0.2103706829
N   N14       1.0  0.22530  0.93360  0.75550  1.0000 -0.1810940462
N   N15       1.0  0.26620  0.90890  0.84660  1.0000 -0.1810940462
N   N16       1.0  0.45390  0.08910  0.73070  1.0000 -0.188114778
N   N17       1.0  0.49420  0.06370  0.82230  1.0000 -0.1810940462
N   N18       1.0  0.40620  0.97390  0.03590  1.0000 -0.2103706829
N   N19       1.0  0.80280  0.46810  0.54100  1.0000 -0.2103706829
N   N20       1.0  0.72530  0.56640  0.75550  1.0000 -0.1810940462
N   N21       1.0  0.76620  0.59110  0.84660  1.0000 -0.1810940462
N   N22       1.0  0.95390  0.41090  0.73070  1.0000 -0.188114778
N   N23       1.0  0.99420  0.43630  0.82230  1.0000 -0.1810940462
N   N24       1.0  0.90620  0.52610  0.03590  1.0000 -0.2103706829
O   O1        1.0  0.48890  0.31630  0.26080  1.0000 -0.5564068563
O   O2        1.0  0.53300  0.32860  0.10410  1.0000 -0.5471083529
O   O3        1.0  0.18410  0.67060  0.31450  1.0000 -0.5808436878
O   O4        1.0  0.23540  0.69120  0.15800  1.0000 -0.5432382234
O   O5        1.0  0.98890  0.18370  0.26080  1.0000 -0.5564068563
O   O6        1.0  0.03300  0.17140  0.10410  1.0000 -0.5471083529
O   O7        1.0  0.68410  0.82940  0.31450  1.0000 -0.5808436878
O   O8        1.0  0.73540  0.80880  0.15800  1.0000 -0.5432382234
O   O9        1.0  0.98890  0.68370  0.73920  1.0000 -0.5564068563
O   O10       1.0  0.03300  0.67140  0.89590  1.0000 -0.5471083529
O   O11       1.0  0.68410  0.32940  0.68550  1.0000 -0.5808436878
O   O12       1.0  0.73540  0.30880  0.84200  1.0000 -0.5432382234
O   O13       1.0  0.48890  0.81630  0.73920  1.0000 -0.5564068563
O   O14       1.0  0.53300  0.82860  0.89590  1.0000 -0.5471083529
O   O15       1.0  0.18410  0.17060  0.68550  1.0000 -0.5808436878
O   O16       1.0  0.23540  0.19120  0.84200  1.0000 -0.5432382234
