# DDEC6 charges by PACMAN v1.1 (https://github.com/mtap-research/PACMAN-charge/)
data_2018[Zn][sql]2[FSR]24
_chemical_formula_sum              "Zn4 H80 C132 N4 O16"
_cell_length_a       13.042
_cell_length_b       14.041
_cell_length_c       17.697
_cell_angle_alpha    101.729
_cell_angle_beta     88.366
_cell_angle_gamma    98.844

_symmetry_space_group_name_H-M    "P 1"
_symmetry_Int_Tables_number       1

loop_
  _symmetry_equiv_pos_as_xyz
  'x, y, z'

loop_
  _atom_site_type_symbol
  _atom_site_label
  _atom_site_symmetry_multiplicity
  _atom_site_fract_x
  _atom_site_fract_y
  _atom_site_fract_z
  _atom_site_occupancy
  _atom_site_charge
Zn  Zn1       1.0  0.02505  0.86517  0.34241  1.0000 0.8315564897
Zn  Zn2       1.0  0.99524  0.65247  0.33993  1.0000 0.8315564897
Zn  Zn3       1.0  0.97495  0.13483  0.65759  1.0000 0.8315564897
Zn  Zn4       1.0  0.00476  0.34753  0.66007  1.0000 0.8315564897
H   H1        1.0  0.73080  0.65190  0.50520  1.0000 0.1192045494
H   H2        1.0  0.58450  0.67770  0.57830  1.0000 0.1192045494
H   H3        1.0  0.68300  0.96630  0.61680  1.0000 0.1299206931
H   H4        1.0  0.81990  0.94240  0.53760  1.0000 0.1192045494
H   H5        1.0  0.36570  0.69070  0.60030  1.0000 0.1192045494
H   H6        1.0  0.22820  0.66880  0.51580  1.0000 0.1192045494
H   H7        1.0  0.31910  0.93560  0.47520  1.0000 0.1192045494
H   H8        1.0  0.46040  0.95440  0.55180  1.0000 0.1192045494
H   H9        1.0  0.29230  0.89660  0.67790  1.0000 0.1112812035
H   H10       1.0  0.16340  0.93640  0.76400  1.0000 0.1112812035
H   H11       1.0  0.18560  0.95240  0.89370  1.0000 0.1192045494
H   H12       1.0  0.34460  0.93850  0.94160  1.0000 0.1192045494
H   H13       1.0  0.53690  0.91970  0.96950  1.0000 0.1112812035
H   H14       1.0  0.70840  0.90250  0.96960  1.0000 0.1112812035
H   H15       1.0  0.79810  0.87410  0.85450  1.0000 0.1112812035
H   H16       1.0  0.71500  0.85790  0.73820  1.0000 0.1112812035
H   H17       1.0  0.77190  0.85100  0.20040  1.0000 0.1192045494
H   H18       1.0  0.63610  0.84130  0.11890  1.0000 0.1192045494
H   H19       1.0  0.59480  0.54880  0.08560  1.0000 0.1192045494
H   H20       1.0  0.73230  0.55820  0.16650  1.0000 0.1192045494
H   H21       1.0  0.43280  0.85480  0.10180  1.0000 0.1192045494
H   H22       1.0  0.28890  0.87990  0.17630  1.0000 0.1192045494
H   H23       1.0  0.22210  0.58970  0.16780  1.0000 0.1192045494
H   H24       1.0  0.36440  0.56580  0.09160  1.0000 0.1192045494
H   H25       1.0  0.29460  0.68990  0.97200  1.0000 0.1192045494
H   H26       1.0  0.18910  0.67960  0.86700  1.0000 0.1112812035
H   H27       1.0  0.25020  0.64080  0.74260  1.0000 0.1112812035
H   H28       1.0  0.42110  0.61840  0.72240  1.0000 0.1192045494
H   H29       1.0  0.61520  0.60240  0.72570  1.0000 0.1192045494
H   H30       1.0  0.78520  0.59460  0.75180  1.0000 0.1112812035
H   H31       1.0  0.84260  0.62810  0.87520  1.0000 0.1112812035
H   H32       1.0  0.72920  0.66180  0.97940  1.0000 0.1192045494
H   H33       1.0  0.09460  0.01160  0.24370  1.0000 0.1112812035
H   H34       1.0  0.08540  0.17220  0.23660  1.0000 0.1299206931
H   H35       1.0  0.93710  0.20060  0.43830  1.0000 0.1299206931
H   H36       1.0  0.94350  0.03880  0.43700  1.0000 0.1192045494
H   H37       1.0  0.96210  0.29580  0.22810  1.0000 0.1299206931
H   H38       1.0  0.95500  0.45830  0.23220  1.0000 0.1192045494
H   H39       1.0  0.06010  0.52790  0.44220  1.0000 0.1112812035
H   H40       1.0  0.05630  0.36420  0.44620  1.0000 0.1457381006
H   H41       1.0  0.26920  0.34810  0.49480  1.0000 0.1192045494
H   H42       1.0  0.41550  0.32230  0.42170  1.0000 0.1192045494
H   H43       1.0  0.31700  0.03370  0.38320  1.0000 0.1299206931
H   H44       1.0  0.18010  0.05760  0.46240  1.0000 0.1192045494
H   H45       1.0  0.63430  0.30930  0.39970  1.0000 0.1192045494
H   H46       1.0  0.77180  0.33120  0.48420  1.0000 0.1192045494
H   H47       1.0  0.68090  0.06440  0.52480  1.0000 0.1192045494
H   H48       1.0  0.53960  0.04560  0.44820  1.0000 0.1192045494
H   H49       1.0  0.70770  0.10340  0.32210  1.0000 0.1112812035
H   H50       1.0  0.83660  0.06360  0.23600  1.0000 0.1112812035
H   H51       1.0  0.81440  0.04760  0.10630  1.0000 0.1112812035
H   H52       1.0  0.65540  0.06150  0.05840  1.0000 0.1192045494
H   H53       1.0  0.46310  0.08030  0.03050  1.0000 0.1112812035
H   H54       1.0  0.29160  0.09750  0.03040  1.0000 0.1112812035
H   H55       1.0  0.20190  0.12590  0.14550  1.0000 0.1112812035
H   H56       1.0  0.28500  0.14210  0.26180  1.0000 0.1112812035
H   H57       1.0  0.22810  0.14900  0.79960  1.0000 0.1192045494
H   H58       1.0  0.36390  0.15870  0.88110  1.0000 0.1192045494
H   H59       1.0  0.40520  0.45120  0.91440  1.0000 0.1192045494
H   H60       1.0  0.26770  0.44180  0.83350  1.0000 0.1192045494
H   H61       1.0  0.56720  0.14520  0.89820  1.0000 0.1192045494
H   H62       1.0  0.71110  0.12010  0.82370  1.0000 0.1192045494
H   H63       1.0  0.77790  0.41030  0.83220  1.0000 0.1192045494
H   H64       1.0  0.63560  0.43420  0.90840  1.0000 0.1192045494
H   H65       1.0  0.70540  0.31010  0.02800  1.0000 0.1192045494
H   H66       1.0  0.81090  0.32040  0.13300  1.0000 0.1112812035
H   H67       1.0  0.74980  0.35920  0.25740  1.0000 0.1112812035
H   H68       1.0  0.57890  0.38160  0.27760  1.0000 0.1192045494
H   H69       1.0  0.38480  0.39760  0.27430  1.0000 0.1192045494
H   H70       1.0  0.21480  0.40540  0.24820  1.0000 0.1112812035
H   H71       1.0  0.15740  0.37190  0.12480  1.0000 0.1112812035
H   H72       1.0  0.27080  0.33820  0.02060  1.0000 0.1192045494
H   H73       1.0  0.90540  0.98840  0.75630  1.0000 0.1112812035
H   H74       1.0  0.91460  0.82780  0.76340  1.0000 0.1299206931
H   H75       1.0  0.06290  0.79940  0.56170  1.0000 0.1299206931
H   H76       1.0  0.05650  0.96120  0.56300  1.0000 0.1192045494
H   H77       1.0  0.03790  0.70420  0.77190  1.0000 0.1299206931
H   H78       1.0  0.04500  0.54170  0.76780  1.0000 0.1192045494
H   H79       1.0  0.93990  0.47210  0.55780  1.0000 0.1112812035
H   H80       1.0  0.94370  0.63580  0.55380  1.0000 0.1457381006
C   C1        1.0  0.87470  0.77960  0.45230  1.0000 0.5740696843
C   C2        1.0  0.78800  0.79480  0.50950  1.0000 -0.0276916374
C   C3        1.0  0.71890  0.71570  0.52530  1.0000 -0.1033619475
C   C4        1.0  0.63220  0.73130  0.57070  1.0000 -0.1576453839
C   C5        1.0  0.61580  0.82480  0.60470  1.0000 0.0787809927
C   C6        1.0  0.69030  0.90250  0.59220  1.0000 -0.1576453839
C   C7        1.0  0.77290  0.88840  0.54550  1.0000 -0.0914245034
C   C8        1.0  0.51450  0.84150  0.64370  1.0000 -0.0276916374
C   C9        1.0  0.42750  0.82720  0.58690  1.0000 0.0878360756
C   C10       1.0  0.35710  0.74050  0.57460  1.0000 -0.1576453839
C   C11       1.0  0.27380  0.72770  0.52440  1.0000 -0.1033619475
C   C12       1.0  0.25810  0.80070  0.48750  1.0000 -0.0276916374
C   C13       1.0  0.32860  0.88500  0.49970  1.0000 -0.1033619475
C   C14       1.0  0.41250  0.89710  0.54690  1.0000 -0.1474915925
C   C15       1.0  0.16420  0.78940  0.43670  1.0000 0.5740696843
C   C16       1.0  0.49860  0.87210  0.72020  1.0000 -0.0190620652
C   C17       1.0  0.39990  0.89480  0.75870  1.0000 0.0350113641
C   C18       1.0  0.30370  0.90510  0.73060  1.0000 -0.1316877058
C   C19       1.0  0.22690  0.92810  0.78240  1.0000 -0.1135267187
C   C20       1.0  0.24020  0.93920  0.86020  1.0000 -0.1187527422
C   C21       1.0  0.33480  0.93060  0.88870  1.0000 -0.1474915925
C   C22       1.0  0.41470  0.91040  0.83840  1.0000 0.0140023318
C   C23       1.0  0.52190  0.90070  0.85330  1.0000 0.0140023318
C   C24       1.0  0.57270  0.90790  0.92320  1.0000 -0.1474915925
C   C25       1.0  0.67440  0.89760  0.92310  1.0000 -0.1033619475
C   C26       1.0  0.72800  0.87990  0.85390  1.0000 -0.1033619475
C   C27       1.0  0.67880  0.87090  0.78430  1.0000 -0.1380830977
C   C28       1.0  0.57340  0.88150  0.78390  1.0000 0.030133004
C   C29       1.0  0.85750  0.71420  0.24460  1.0000 0.5904019382
C   C30       1.0  0.76840  0.70590  0.19140  1.0000 -0.0276916374
C   C31       1.0  0.73730  0.78960  0.17690  1.0000 -0.0914245034
C   C32       1.0  0.65560  0.78360  0.12790  1.0000 -0.1474915925
C   C33       1.0  0.60160  0.69440  0.09190  1.0000 0.0787809927
C   C34       1.0  0.63090  0.61000  0.10790  1.0000 -0.1576453839
C   C35       1.0  0.71340  0.61580  0.15670  1.0000 -0.0914245034
C   C36       1.0  0.50910  0.68970  0.04240  1.0000 -0.0190620652
C   C37       1.0  0.41350  0.70800  0.08760  1.0000 0.0787809927
C   C38       1.0  0.39000  0.80110  0.11460  1.0000 -0.1576453839
C   C39       1.0  0.30420  0.81640  0.16010  1.0000 -0.1033619475
C   C40       1.0  0.24080  0.73860  0.18210  1.0000 -0.0190620652
C   C41       1.0  0.26450  0.64350  0.15470  1.0000 -0.0914245034
C   C42       1.0  0.34940  0.62930  0.10880  1.0000 -0.1474915925
C   C43       1.0  0.15060  0.75410  0.23490  1.0000 0.5904019382
C   C44       1.0  0.51160  0.66950  0.96440  1.0000 -0.0190620652
C   C45       1.0  0.42400  0.66350  0.91030  1.0000 0.030133004
C   C46       1.0  0.32090  0.67650  0.92220  1.0000 -0.1316877058
C   C47       1.0  0.25760  0.66920  0.85900  1.0000 -0.1033619475
C   C48       1.0  0.29410  0.64670  0.78430  1.0000 -0.1135267187
C   C49       1.0  0.39580  0.63310  0.77240  1.0000 -0.1380830977
C   C50       1.0  0.46030  0.64120  0.83430  1.0000 0.0140023318
C   C51       1.0  0.56960  0.63120  0.83590  1.0000 0.0196722727
C   C52       1.0  0.63770  0.61280  0.77650  1.0000 -0.1316877058
C   C53       1.0  0.73930  0.60970  0.79210  1.0000 -0.1187527422
C   C54       1.0  0.77290  0.62860  0.86560  1.0000 -0.1187527422
C   C55       1.0  0.70510  0.64910  0.92880  1.0000 -0.1380830977
C   C56       1.0  0.60210  0.64980  0.91330  1.0000 0.030133004
C   C57       1.0  0.06090  0.04980  0.28290  1.0000 0.0787809927
C   C58       1.0  0.05760  0.14720  0.27880  1.0000 -0.2082628477
C   C59       1.0  0.01240  0.20620  0.33820  1.0000 0.1046341881
C   C60       1.0  0.96920  0.16350  0.39750  1.0000 -0.1805587355
C   C61       1.0  0.97350  0.06590  0.39640  1.0000 0.0878360756
C   C62       1.0  0.00940  0.31080  0.33760  1.0000 0.1046341881
C   C63       1.0  0.97980  0.34160  0.27340  1.0000 -0.2082628477
C   C64       1.0  0.97630  0.43950  0.27590  1.0000 0.0687333178
C   C65       1.0  0.03610  0.48010  0.39930  1.0000 0.0787809927
C   C66       1.0  0.03690  0.38160  0.40120  1.0000 -0.1911560837
C   C67       1.0  0.12530  0.22040  0.54770  1.0000 0.5740696843
C   C68       1.0  0.21200  0.20520  0.49050  1.0000 -0.0276916374
C   C69       1.0  0.28110  0.28430  0.47470  1.0000 -0.1033619475
C   C70       1.0  0.36780  0.26870  0.42930  1.0000 -0.1576453839
C   C71       1.0  0.38420  0.17520  0.39530  1.0000 0.0787809927
C   C72       1.0  0.30970  0.09750  0.40780  1.0000 -0.1576453839
C   C73       1.0  0.22710  0.11160  0.45450  1.0000 -0.0914245034
C   C74       1.0  0.48550  0.15850  0.35630  1.0000 -0.0276916374
C   C75       1.0  0.57250  0.17280  0.41310  1.0000 0.0878360756
C   C76       1.0  0.64290  0.25950  0.42540  1.0000 -0.1576453839
C   C77       1.0  0.72620  0.27230  0.47560  1.0000 -0.1033619475
C   C78       1.0  0.74190  0.19930  0.51250  1.0000 -0.0276916374
C   C79       1.0  0.67140  0.11500  0.50030  1.0000 -0.1033619475
C   C80       1.0  0.58750  0.10290  0.45310  1.0000 -0.1474915925
C   C81       1.0  0.83580  0.21060  0.56330  1.0000 0.5740696843
C   C82       1.0  0.50140  0.12790  0.27980  1.0000 -0.0190620652
C   C83       1.0  0.60010  0.10520  0.24130  1.0000 0.0350113641
C   C84       1.0  0.69630  0.09490  0.26940  1.0000 -0.1316877058
C   C85       1.0  0.77310  0.07190  0.21760  1.0000 -0.1135267187
C   C86       1.0  0.75980  0.06080  0.13980  1.0000 -0.1187527422
C   C87       1.0  0.66520  0.06940  0.11130  1.0000 -0.1474915925
C   C88       1.0  0.58530  0.08960  0.16160  1.0000 0.0140023318
C   C89       1.0  0.47810  0.09930  0.14670  1.0000 0.0140023318
C   C90       1.0  0.42730  0.09210  0.07680  1.0000 -0.1474915925
C   C91       1.0  0.32560  0.10240  0.07690  1.0000 -0.1033619475
C   C92       1.0  0.27200  0.12010  0.14610  1.0000 -0.1033619475
C   C93       1.0  0.32120  0.12910  0.21570  1.0000 -0.1380830977
C   C94       1.0  0.42660  0.11850  0.21610  1.0000 0.030133004
C   C95       1.0  0.14250  0.28580  0.75540  1.0000 0.5904019382
C   C96       1.0  0.23160  0.29410  0.80860  1.0000 -0.0276916374
C   C97       1.0  0.26270  0.21040  0.82310  1.0000 -0.0914245034
C   C98       1.0  0.34440  0.21640  0.87210  1.0000 -0.1474915925
C   C99       1.0  0.39840  0.30560  0.90810  1.0000 0.0787809927
C   C100      1.0  0.36910  0.39000  0.89210  1.0000 -0.1576453839
C   C101      1.0  0.28660  0.38420  0.84330  1.0000 -0.0914245034
C   C102      1.0  0.49090  0.31030  0.95760  1.0000 -0.0190620652
C   C103      1.0  0.58650  0.29200  0.91240  1.0000 0.0787809927
C   C104      1.0  0.61000  0.19890  0.88540  1.0000 -0.1576453839
C   C105      1.0  0.69580  0.18360  0.83990  1.0000 -0.1033619475
C   C106      1.0  0.75920  0.26140  0.81790  1.0000 -0.0190620652
C   C107      1.0  0.73550  0.35650  0.84530  1.0000 -0.0914245034
C   C108      1.0  0.65060  0.37070  0.89120  1.0000 -0.1474915925
C   C109      1.0  0.84940  0.24590  0.76510  1.0000 0.5904019382
C   C110      1.0  0.48840  0.33050  0.03560  1.0000 -0.0190620652
C   C111      1.0  0.57600  0.33650  0.08970  1.0000 0.030133004
C   C112      1.0  0.67910  0.32350  0.07780  1.0000 -0.1316877058
C   C113      1.0  0.74240  0.33080  0.14100  1.0000 -0.1033619475
C   C114      1.0  0.70590  0.35330  0.21570  1.0000 -0.1135267187
C   C115      1.0  0.60420  0.36690  0.22760  1.0000 -0.1316877058
C   C116      1.0  0.53970  0.35880  0.16570  1.0000 0.0140023318
C   C117      1.0  0.43040  0.36880  0.16410  1.0000 0.0196722727
C   C118      1.0  0.36230  0.38720  0.22350  1.0000 -0.1316877058
C   C119      1.0  0.26070  0.39030  0.20790  1.0000 -0.1187527422
C   C120      1.0  0.22710  0.37140  0.13440  1.0000 -0.1187527422
C   C121      1.0  0.29490  0.35090  0.07120  1.0000 -0.1380830977
C   C122      1.0  0.39790  0.35020  0.08670  1.0000 0.030133004
C   C123      1.0  0.93910  0.95020  0.71710  1.0000 0.0787809927
C   C124      1.0  0.94240  0.85280  0.72120  1.0000 -0.2082628477
C   C125      1.0  0.98760  0.79380  0.66180  1.0000 0.1046341881
C   C126      1.0  0.03080  0.83650  0.60250  1.0000 -0.1805587355
C   C127      1.0  0.02650  0.93410  0.60360  1.0000 0.0878360756
C   C128      1.0  0.99060  0.68920  0.66240  1.0000 0.1046341881
C   C129      1.0  0.02020  0.65840  0.72660  1.0000 -0.2082628477
C   C130      1.0  0.02370  0.56050  0.72410  1.0000 0.0687333178
C   C131      1.0  0.96390  0.51990  0.60070  1.0000 0.0787809927
C   C132      1.0  0.96310  0.61840  0.59880  1.0000 -0.1911560837
N   N1        1.0  0.01850  0.00820  0.33990  1.0000 -0.2221971992
N   N2        1.0  0.00230  0.50800  0.33850  1.0000 -0.1983057354
N   N3        1.0  0.98150  0.99180  0.66010  1.0000 -0.2221971992
N   N4        1.0  0.99770  0.49200  0.66150  1.0000 -0.1983057354
O   O1        1.0  0.92540  0.85470  0.43340  1.0000 -0.5479944889
O   O2        1.0  0.89010  0.69190  0.42470  1.0000 -0.5581723595
O   O3        1.0  0.11050  0.70420  0.42080  1.0000 -0.5581723595
O   O4        1.0  0.14500  0.86280  0.41280  1.0000 -0.5311564151
O   O5        1.0  0.88090  0.63650  0.26000  1.0000 -0.540168697
O   O6        1.0  0.90400  0.79860  0.27070  1.0000 -0.540168697
O   O7        1.0  0.12700  0.83890  0.25330  1.0000 -0.5311564151
O   O8        1.0  0.10400  0.68000  0.25830  1.0000 -0.5581723595
O   O9        1.0  0.07460  0.14530  0.56660  1.0000 -0.5479944889
O   O10       1.0  0.10990  0.30810  0.57530  1.0000 -0.5581723595
O   O11       1.0  0.88950  0.29580  0.57920  1.0000 -0.5581723595
O   O12       1.0  0.85500  0.13720  0.58720  1.0000 -0.5311564151
O   O13       1.0  0.11910  0.36350  0.74000  1.0000 -0.540168697
O   O14       1.0  0.09600  0.20140  0.72930  1.0000 -0.540168697
O   O15       1.0  0.87300  0.16110  0.74670  1.0000 -0.5311564151
O   O16       1.0  0.89600  0.32000  0.74170  1.0000 -0.5581723595
