# DDEC6 charges by PACMAN v1.1 (https://github.com/mtap-research/PACMAN-charge/)
data_2018[Zn][sql]2[FSR]15
_chemical_formula_sum              "Zn2 H48 C34 N8 O8"
_cell_length_a       8.2612
_cell_length_b       8.5236
_cell_length_c       15.4406
_cell_angle_alpha    80.567
_cell_angle_beta     89.201
_cell_angle_gamma    85.325

_symmetry_space_group_name_H-M    "P 1"
_symmetry_Int_Tables_number       1

loop_
  _symmetry_equiv_pos_as_xyz
  'x, y, z'

loop_
  _atom_site_type_symbol
  _atom_site_label
  _atom_site_symmetry_multiplicity
  _atom_site_fract_x
  _atom_site_fract_y
  _atom_site_fract_z
  _atom_site_occupancy
  _atom_site_charge
Zn  Zn1       1.0  0.20907  0.37532  0.26604  1.0000 0.756248023
Zn  Zn2       1.0  0.79093  0.62468  0.73396  1.0000 0.756248023
H   H1        1.0  0.96619  0.02214  0.90946  1.0000 0.1206376495
H   H2        1.0  0.84270  0.07233  0.97980  1.0000 0.1130566531
H   H3        1.0  0.23953  0.26611  0.08010  1.0000 0.1281311575
H   H4        1.0  0.11854  0.12733  0.43865  1.0000 0.1281311575
H   H5        1.0  0.39420  0.84603  0.17925  1.0000 0.1206376495
H   H6        1.0  0.25955  0.94064  0.22705  1.0000 0.1206376495
H   H7        1.0  0.52290  0.75771  0.31771  1.0000 0.0989535186
H   H8        1.0  0.39527  0.86937  0.35923  1.0000 0.0989535186
H   H9        1.0  0.13659  0.21296  0.93706  1.0000 0.1206376495
H   H10       1.0  0.96429  0.29423  0.90808  1.0000 0.1206376495
H   H11       1.0  0.54981  0.33785  0.49308  1.0000 0.1206376495
H   H12       1.0  0.55294  0.47917  0.41374  1.0000 0.1206376495
H   H13       1.0  0.90297  0.54759  0.35116  1.0000 0.1206376495
H   H14       1.0  0.73999  0.59705  0.48855  1.0000 0.1130566531
H   H15       1.0  0.73761  0.45506  0.56710  1.0000 0.1130566531
H   H16       1.0  0.90999  0.18237  0.54521  1.0000 0.1396733879
H   H17       1.0  0.76839  0.35431  0.04956  1.0000 0.1396733879
H   H18       1.0  0.84463  0.42770  0.18857  1.0000 0.1396733879
H   H19       1.0  0.57294  0.02854  0.41549  1.0000 0.1281311575
H   H20       1.0  0.71835  0.91261  0.39236  1.0000 0.1206376495
H   H21       1.0  0.72061  0.09697  0.36124  1.0000 0.1206376495
H   H22       1.0  0.64262  0.95432  0.16401  1.0000 0.1206376495
H   H23       1.0  0.76303  0.05156  0.20730  1.0000 0.1281311575
H   H24       1.0  0.76077  0.86719  0.23842  1.0000 0.1281311575
H   H25       1.0  0.03381  0.97786  0.09054  1.0000 0.1206376495
H   H26       1.0  0.15730  0.92767  0.02020  1.0000 0.1130566531
H   H27       1.0  0.76047  0.73389  0.91990  1.0000 0.1281311575
H   H28       1.0  0.88146  0.87267  0.56135  1.0000 0.1281311575
H   H29       1.0  0.60580  0.15397  0.82075  1.0000 0.1206376495
H   H30       1.0  0.74045  0.05936  0.77295  1.0000 0.1206376495
H   H31       1.0  0.47710  0.24229  0.68229  1.0000 0.0989535186
H   H32       1.0  0.60473  0.13063  0.64077  1.0000 0.0989535186
H   H33       1.0  0.86341  0.78704  0.06294  1.0000 0.1206376495
H   H34       1.0  0.03571  0.70577  0.09192  1.0000 0.1206376495
H   H35       1.0  0.45019  0.66215  0.50692  1.0000 0.1206376495
H   H36       1.0  0.44706  0.52083  0.58626  1.0000 0.1206376495
H   H37       1.0  0.09703  0.45241  0.64884  1.0000 0.1206376495
H   H38       1.0  0.26001  0.40295  0.51145  1.0000 0.1130566531
H   H39       1.0  0.26239  0.54494  0.43290  1.0000 0.1130566531
H   H40       1.0  0.09001  0.81763  0.45479  1.0000 0.1396733879
H   H41       1.0  0.23161  0.64569  0.95044  1.0000 0.1396733879
H   H42       1.0  0.15537  0.57230  0.81143  1.0000 0.1396733879
H   H43       1.0  0.42706  0.97146  0.58451  1.0000 0.1281311575
H   H44       1.0  0.28165  0.08739  0.60764  1.0000 0.1206376495
H   H45       1.0  0.27939  0.90303  0.63876  1.0000 0.1206376495
H   H46       1.0  0.35738  0.04568  0.83599  1.0000 0.1206376495
H   H47       1.0  0.23697  0.94844  0.79270  1.0000 0.1281311575
H   H48       1.0  0.23923  0.13281  0.76158  1.0000 0.1281311575
C   C1        1.0  0.56750  0.99420  0.28648  1.0000 0.1492621858
C   C2        1.0  0.46120  0.14940  0.25665  1.0000 0.5445897836
C   C3        1.0  0.95710  0.06100  0.96509  1.0000 -0.1885138145
C   C4        1.0  0.13140  0.29720  0.09052  1.0000 0.0838986743
C   C5        1.0  0.24240  0.69790  0.25396  1.0000 0.5835736055
C   C6        1.0  0.04880  0.21950  0.43452  1.0000 -0.0494163953
C   C7        1.0  0.33600  0.84680  0.23419  1.0000 -0.3312970739
C   C8        1.0  0.45580  0.85760  0.30607  1.0000 -0.1951134693
C   C9        1.0  0.02340  0.22260  0.95440  1.0000 -0.1220913887
C   C10       1.0  0.56450  0.45060  0.47692  1.0000 -0.1798043218
C   C11       1.0  0.93140  0.44970  0.38596  1.0000 0.0853237618
C   C12       1.0  0.72780  0.48360  0.50380  1.0000 -0.1220913887
C   C13       1.0  0.93370  0.24880  0.49340  1.0000 -0.1095504131
C   C14       1.0  0.87270  0.34540  0.07270  1.0000 -0.0963288736
C   C15       1.0  0.91550  0.38520  0.14950  1.0000 -0.0494163953
C   C16       1.0  0.65280  0.00950  0.37190  1.0000 -0.4695131522
C   C17       1.0  0.69530  0.96400  0.21770  1.0000 -0.4559160661
C   C18       1.0  0.43250  0.00580  0.71352  1.0000 0.1492621858
C   C19       1.0  0.53880  0.85060  0.74335  1.0000 0.5445897836
C   C20       1.0  0.04290  0.93900  0.03491  1.0000 -0.1885138145
C   C21       1.0  0.86860  0.70280  0.90948  1.0000 0.0838986743
C   C22       1.0  0.75760  0.30210  0.74604  1.0000 0.5835736055
C   C23       1.0  0.95120  0.78050  0.56548  1.0000 -0.0494163953
C   C24       1.0  0.66400  0.15320  0.76581  1.0000 -0.3312970739
C   C25       1.0  0.54420  0.14240  0.69393  1.0000 -0.1885138145
C   C26       1.0  0.97660  0.77740  0.04560  1.0000 -0.1220913887
C   C27       1.0  0.43550  0.54940  0.52308  1.0000 -0.1798043218
C   C28       1.0  0.06860  0.55030  0.61404  1.0000 0.0853237618
C   C29       1.0  0.27220  0.51640  0.49620  1.0000 -0.1220913887
C   C30       1.0  0.06630  0.75120  0.50660  1.0000 -0.1095504131
C   C31       1.0  0.12730  0.65460  0.92730  1.0000 -0.0963288736
C   C32       1.0  0.08450  0.61480  0.85050  1.0000 -0.0494163953
C   C33       1.0  0.34720  0.99050  0.62810  1.0000 -0.4695131522
C   C34       1.0  0.30470  0.03600  0.78230  1.0000 -0.4559160661
N   N1        1.0  0.00980  0.29040  0.03589  1.0000 0.037611011
N   N2        1.0  0.07890  0.35380  0.16128  1.0000 -0.2913076025
N   N3        1.0  0.04740  0.34720  0.36721  1.0000 -0.2913076025
N   N4        1.0  0.85840  0.39530  0.46215  1.0000 0.037611011
N   N5        1.0  0.99020  0.70960  0.96411  1.0000 0.037611011
N   N6        1.0  0.92110  0.64620  0.83872  1.0000 -0.2913076025
N   N7        1.0  0.95260  0.65280  0.63279  1.0000 -0.2913076025
N   N8        1.0  0.14160  0.60470  0.53785  1.0000 0.037611011
O   O1        1.0  0.47270  0.22550  0.18169  1.0000 -0.5712560159
O   O2        1.0  0.35860  0.18980  0.31198  1.0000 -0.5511068445
O   O3        1.0  0.32690  0.56590  0.25374  1.0000 -0.5598981422
O   O4        1.0  0.09850  0.70640  0.26740  1.0000 -0.5712560159
O   O5        1.0  0.52730  0.77450  0.81831  1.0000 -0.5712560159
O   O6        1.0  0.64140  0.81020  0.68802  1.0000 -0.5511068445
O   O7        1.0  0.67310  0.43410  0.74626  1.0000 -0.5598981422
O   O8        1.0  0.90150  0.29360  0.73260  1.0000 -0.5712560159
