# DDEC6 charges by PACMAN v1.1 (https://github.com/mtap-research/PACMAN-charge/)
data_2018[Eu][nan]3[FSR]5
_chemical_formula_sum              "Eu4 H84 C92 N4 O44"
_cell_length_a       15.2483
_cell_length_b       15.2483
_cell_length_c       12.298
_cell_angle_alpha    74.5195
_cell_angle_beta     105.48
_cell_angle_gamma    96.6568

_symmetry_space_group_name_H-M    "P 1"
_symmetry_Int_Tables_number       1

loop_
  _symmetry_equiv_pos_as_xyz
  'x, y, z'

loop_
  _atom_site_type_symbol
  _atom_site_label
  _atom_site_symmetry_multiplicity
  _atom_site_fract_x
  _atom_site_fract_y
  _atom_site_fract_z
  _atom_site_occupancy
  _atom_site_charge
Eu  Eu1       1.0  0.95696  0.60328  0.06720  1.0000 2.133754411
Eu  Eu2       1.0  0.60328  0.95696  0.43280  1.0000 2.133754411
Eu  Eu3       1.0  0.04304  0.39672  0.93280  1.0000 2.133754411
Eu  Eu4       1.0  0.39672  0.04304  0.56720  1.0000 2.133754411
H   H1        1.0  0.79740  0.70340  0.69370  1.0000 0.1520725377
H   H2        1.0  0.59960  0.62540  0.43640  1.0000 0.1407106755
H   H3        1.0  0.77020  0.44080  0.67150  1.0000 0.1407106755
H   H4        1.0  0.51920  0.49540  0.39550  1.0000 0.1007231287
H   H5        1.0  0.60140  0.50200  0.33410  1.0000 0.1007231287
H   H6        1.0  0.50300  0.37960  0.29400  1.0000 0.1159222362
H   H7        1.0  0.50740  0.33860  0.42900  1.0000 0.1311531998
H   H8        1.0  0.59470  0.25290  0.37050  1.0000 0.0936466337
H   H9        1.0  0.66110  0.30390  0.46230  1.0000 0.1007231287
H   H10       1.0  0.77960  0.42180  0.17480  1.0000 0.1520725377
H   H11       1.0  0.88520  0.18820  0.18560  1.0000 0.1407106755
H   H12       1.0  0.69610  0.18150  0.36510  1.0000 0.1407106755
H   H13       1.0  0.77970  0.52030  0.39240  1.0000 0.1407106755
H   H14       1.0  0.76680  0.57160  0.25780  1.0000 0.1788275179
H   H15       1.0  0.82650  0.61970  0.35610  1.0000 0.1788275179
H   H16       1.0  0.90850  0.33350  0.55070  1.0000 0.1520725377
H   H17       1.0  0.81220  0.36880  0.46910  1.0000 0.1311531998
H   H18       1.0  0.87250  0.42610  0.55700  1.0000 0.1407106755
H   H19       1.0  0.01300  0.34300  0.47220  1.0000 0.1407106755
H   H20       1.0  0.05460  0.44200  0.42120  1.0000 0.1311531998
H   H21       1.0  0.99250  0.38470  0.33440  1.0000 0.1407106755
H   H22       1.0  0.70340  0.79740  0.80630  1.0000 0.1520725377
H   H23       1.0  0.62540  0.59960  0.06360  1.0000 0.1407106755
H   H24       1.0  0.44080  0.77020  0.82850  1.0000 0.1407106755
H   H25       1.0  0.49540  0.51920  0.10450  1.0000 0.1007231287
H   H26       1.0  0.50200  0.60140  0.16590  1.0000 0.1007231287
H   H27       1.0  0.37960  0.50300  0.20600  1.0000 0.1159222362
H   H28       1.0  0.33860  0.50740  0.07100  1.0000 0.1311531998
H   H29       1.0  0.25290  0.59470  0.12950  1.0000 0.0936466337
H   H30       1.0  0.30390  0.66110  0.03770  1.0000 0.1007231287
H   H31       1.0  0.42180  0.77960  0.32520  1.0000 0.1520725377
H   H32       1.0  0.18820  0.88520  0.31440  1.0000 0.1407106755
H   H33       1.0  0.18150  0.69610  0.13490  1.0000 0.1407106755
H   H34       1.0  0.52030  0.77970  0.10760  1.0000 0.1407106755
H   H35       1.0  0.57160  0.76680  0.24220  1.0000 0.1788275179
H   H36       1.0  0.61970  0.82650  0.14390  1.0000 0.1788275179
H   H37       1.0  0.33350  0.90850  0.94930  1.0000 0.1520725377
H   H38       1.0  0.36880  0.81220  0.03090  1.0000 0.1311531998
H   H39       1.0  0.42610  0.87250  0.94300  1.0000 0.1407106755
H   H40       1.0  0.34300  0.01300  0.02780  1.0000 0.1407106755
H   H41       1.0  0.44200  0.05460  0.07880  1.0000 0.1311531998
H   H42       1.0  0.38470  0.99250  0.16560  1.0000 0.1407106755
H   H43       1.0  0.20260  0.29660  0.30630  1.0000 0.1520725377
H   H44       1.0  0.40040  0.37460  0.56360  1.0000 0.1407106755
H   H45       1.0  0.22980  0.55920  0.32850  1.0000 0.1407106755
H   H46       1.0  0.48080  0.50460  0.60450  1.0000 0.1007231287
H   H47       1.0  0.39860  0.49800  0.66590  1.0000 0.1007231287
H   H48       1.0  0.49700  0.62040  0.70600  1.0000 0.1159222362
H   H49       1.0  0.49260  0.66140  0.57100  1.0000 0.1311531998
H   H50       1.0  0.40530  0.74710  0.62950  1.0000 0.0936466337
H   H51       1.0  0.33890  0.69610  0.53770  1.0000 0.1007231287
H   H52       1.0  0.22040  0.57820  0.82520  1.0000 0.1520725377
H   H53       1.0  0.11480  0.81180  0.81440  1.0000 0.1407106755
H   H54       1.0  0.30390  0.81850  0.63490  1.0000 0.1407106755
H   H55       1.0  0.22030  0.47970  0.60760  1.0000 0.1407106755
H   H56       1.0  0.23320  0.42840  0.74220  1.0000 0.1788275179
H   H57       1.0  0.17350  0.38030  0.64390  1.0000 0.1788275179
H   H58       1.0  0.09150  0.66650  0.44930  1.0000 0.1520725377
H   H59       1.0  0.18780  0.63120  0.53090  1.0000 0.1311531998
H   H60       1.0  0.12750  0.57390  0.44300  1.0000 0.1407106755
H   H61       1.0  0.98700  0.65700  0.52780  1.0000 0.1407106755
H   H62       1.0  0.94540  0.55800  0.57880  1.0000 0.1311531998
H   H63       1.0  0.00750  0.61530  0.66560  1.0000 0.1407106755
H   H64       1.0  0.29660  0.20260  0.19370  1.0000 0.1520725377
H   H65       1.0  0.37460  0.40040  0.93640  1.0000 0.1407106755
H   H66       1.0  0.55920  0.22980  0.17150  1.0000 0.1407106755
H   H67       1.0  0.50460  0.48080  0.89550  1.0000 0.1007231287
H   H68       1.0  0.49800  0.39860  0.83410  1.0000 0.1007231287
H   H69       1.0  0.62040  0.49700  0.79400  1.0000 0.1159222362
H   H70       1.0  0.66140  0.49260  0.92900  1.0000 0.1311531998
H   H71       1.0  0.74710  0.40530  0.87050  1.0000 0.0936466337
H   H72       1.0  0.69610  0.33890  0.96230  1.0000 0.1007231287
H   H73       1.0  0.57820  0.22040  0.67480  1.0000 0.1520725377
H   H74       1.0  0.81180  0.11480  0.68560  1.0000 0.1407106755
H   H75       1.0  0.81850  0.30390  0.86510  1.0000 0.1407106755
H   H76       1.0  0.47970  0.22030  0.89240  1.0000 0.1407106755
H   H77       1.0  0.42840  0.23320  0.75780  1.0000 0.1788275179
H   H78       1.0  0.38030  0.17350  0.85610  1.0000 0.1788275179
H   H79       1.0  0.66650  0.09150  0.05070  1.0000 0.1520725377
H   H80       1.0  0.63120  0.18780  0.96910  1.0000 0.1311531998
H   H81       1.0  0.57390  0.12750  0.05700  1.0000 0.1407106755
H   H82       1.0  0.65700  0.98700  0.97220  1.0000 0.1407106755
H   H83       1.0  0.55800  0.94540  0.92120  1.0000 0.1311531998
H   H84       1.0  0.61530  0.00750  0.83440  1.0000 0.1407106755
C   C1        1.0  0.86960  0.54120  0.80740  1.0000 0.6305308726
C   C2        1.0  0.79470  0.56810  0.69860  1.0000 0.010461543
C   C3        1.0  0.76770  0.65750  0.65550  1.0000 -0.1391692709
C   C4        1.0  0.69660  0.67920  0.55560  1.0000 0.010461543
C   C5        1.0  0.64950  0.61090  0.50260  1.0000 -0.2637149307
C   C6        1.0  0.67640  0.52200  0.54790  1.0000 0.2566891995
C   C7        1.0  0.75020  0.50120  0.64350  1.0000 -0.2213944929
C   C8        1.0  0.66840  0.77460  0.50740  1.0000 0.5616650668
C   C9        1.0  0.57250  0.46410  0.39530  1.0000 -0.0204710595
C   C10       1.0  0.54360  0.37160  0.37330  1.0000 -0.2213944929
C   C11       1.0  0.61970  0.31330  0.38350  1.0000 -0.0116649448
C   C12       1.0  0.72840  0.30940  0.27370  1.0000 0.2566891995
C   C13       1.0  0.78320  0.35760  0.20240  1.0000 -0.2033859926
C   C14       1.0  0.84240  0.31360  0.17100  1.0000 -0.0116649448
C   C15       1.0  0.84590  0.21930  0.20940  1.0000 -0.1246068354
C   C16       1.0  0.79170  0.17010  0.28250  1.0000 0.0010196886
C   C17       1.0  0.73300  0.21460  0.31520  1.0000 -0.2213944929
C   C18       1.0  0.79460  0.06780  0.32170  1.0000 0.6067801056
C   C19       1.0  0.90400  0.36500  0.09650  1.0000 0.6380682972
C   C20       1.0  0.89280  0.51920  0.33300  1.0000 0.5616650668
C   C21       1.0  0.80920  0.56140  0.33500  1.0000 -0.5748036715
C   C22       1.0  0.87440  0.38760  0.50540  1.0000 -0.3443032714
C   C23       1.0  0.00180  0.39900  0.41000  1.0000 -0.3323892641
C   C24       1.0  0.54120  0.86960  0.69260  1.0000 0.6305308726
C   C25       1.0  0.56810  0.79470  0.80140  1.0000 0.010461543
C   C26       1.0  0.65750  0.76770  0.84450  1.0000 -0.1391692709
C   C27       1.0  0.67920  0.69660  0.94440  1.0000 0.010461543
C   C28       1.0  0.61090  0.64950  0.99740  1.0000 -0.2637149307
C   C29       1.0  0.52200  0.67640  0.95210  1.0000 0.2566891995
C   C30       1.0  0.50120  0.75020  0.85650  1.0000 -0.2213944929
C   C31       1.0  0.77460  0.66840  0.99260  1.0000 0.5616650668
C   C32       1.0  0.46410  0.57250  0.10470  1.0000 -0.0204710595
C   C33       1.0  0.37160  0.54360  0.12670  1.0000 -0.2213944929
C   C34       1.0  0.31330  0.61970  0.11650  1.0000 -0.0116649448
C   C35       1.0  0.30940  0.72840  0.22630  1.0000 0.2566891995
C   C36       1.0  0.35760  0.78320  0.29760  1.0000 -0.2033859926
C   C37       1.0  0.31360  0.84240  0.32900  1.0000 -0.0116649448
C   C38       1.0  0.21930  0.84590  0.29060  1.0000 -0.1246068354
C   C39       1.0  0.17010  0.79170  0.21750  1.0000 0.0010196886
C   C40       1.0  0.21460  0.73300  0.18480  1.0000 -0.2213944929
C   C41       1.0  0.06780  0.79460  0.17830  1.0000 0.6067801056
C   C42       1.0  0.36500  0.90400  0.40350  1.0000 0.6380682972
C   C43       1.0  0.51920  0.89280  0.16700  1.0000 0.5616650668
C   C44       1.0  0.56140  0.80920  0.16500  1.0000 -0.5748036715
C   C45       1.0  0.38760  0.87440  0.99460  1.0000 -0.3443032714
C   C46       1.0  0.39900  0.00180  0.09000  1.0000 -0.3323892641
C   C47       1.0  0.13040  0.45880  0.19260  1.0000 0.6305308726
C   C48       1.0  0.20530  0.43190  0.30140  1.0000 0.010461543
C   C49       1.0  0.23230  0.34250  0.34450  1.0000 -0.1391692709
C   C50       1.0  0.30340  0.32080  0.44440  1.0000 0.010461543
C   C51       1.0  0.35050  0.38910  0.49740  1.0000 -0.2637149307
C   C52       1.0  0.32360  0.47800  0.45210  1.0000 0.2566891995
C   C53       1.0  0.24980  0.49880  0.35650  1.0000 -0.2213944929
C   C54       1.0  0.33160  0.22540  0.49260  1.0000 0.5616650668
C   C55       1.0  0.42750  0.53590  0.60470  1.0000 -0.0204710595
C   C56       1.0  0.45640  0.62840  0.62670  1.0000 -0.2213944929
C   C57       1.0  0.38030  0.68670  0.61650  1.0000 -0.0116649448
C   C58       1.0  0.27160  0.69060  0.72630  1.0000 0.2566891995
C   C59       1.0  0.21680  0.64240  0.79760  1.0000 -0.2033859926
C   C60       1.0  0.15760  0.68640  0.82900  1.0000 -0.0116649448
C   C61       1.0  0.15410  0.78070  0.79060  1.0000 -0.1246068354
C   C62       1.0  0.20830  0.82990  0.71750  1.0000 0.0010196886
C   C63       1.0  0.26700  0.78540  0.68480  1.0000 -0.2213944929
C   C64       1.0  0.20540  0.93220  0.67830  1.0000 0.6067801056
C   C65       1.0  0.09600  0.63500  0.90350  1.0000 0.6380682972
C   C66       1.0  0.10720  0.48080  0.66700  1.0000 0.5616650668
C   C67       1.0  0.19080  0.43860  0.66500  1.0000 -0.5748036715
C   C68       1.0  0.12560  0.61240  0.49460  1.0000 -0.3443032714
C   C69       1.0  0.99820  0.60100  0.59000  1.0000 -0.3323892641
C   C70       1.0  0.45880  0.13040  0.30740  1.0000 0.6305308726
C   C71       1.0  0.43190  0.20530  0.19860  1.0000 0.010461543
C   C72       1.0  0.34250  0.23230  0.15550  1.0000 -0.1391692709
C   C73       1.0  0.32080  0.30340  0.05560  1.0000 0.010461543
C   C74       1.0  0.38910  0.35050  0.00260  1.0000 -0.2637149307
C   C75       1.0  0.47800  0.32360  0.04790  1.0000 0.2566891995
C   C76       1.0  0.49880  0.24980  0.14350  1.0000 -0.2213944929
C   C77       1.0  0.22540  0.33160  0.00740  1.0000 0.5616650668
C   C78       1.0  0.53590  0.42750  0.89530  1.0000 -0.0204710595
C   C79       1.0  0.62840  0.45640  0.87330  1.0000 -0.2213944929
C   C80       1.0  0.68670  0.38030  0.88350  1.0000 -0.0116649448
C   C81       1.0  0.69060  0.27160  0.77370  1.0000 0.2566891995
C   C82       1.0  0.64240  0.21680  0.70240  1.0000 -0.2033859926
C   C83       1.0  0.68640  0.15760  0.67100  1.0000 -0.0116649448
C   C84       1.0  0.78070  0.15410  0.70940  1.0000 -0.1246068354
C   C85       1.0  0.82990  0.20830  0.78250  1.0000 0.0010196886
C   C86       1.0  0.78540  0.26700  0.81520  1.0000 -0.2213944929
C   C87       1.0  0.93220  0.20540  0.82170  1.0000 0.6067801056
C   C88       1.0  0.63500  0.09600  0.59650  1.0000 0.6380682972
C   C89       1.0  0.48080  0.10720  0.83300  1.0000 0.5616650668
C   C90       1.0  0.43860  0.19080  0.83500  1.0000 -0.5748036715
C   C91       1.0  0.61240  0.12560  0.00540  1.0000 -0.3443032714
C   C92       1.0  0.60100  0.99820  0.91000  1.0000 -0.3323892641
N   N1        1.0  0.92020  0.44000  0.41310  1.0000 -0.0116649448
N   N2        1.0  0.44000  0.92020  0.08690  1.0000 -0.0116649448
N   N3        1.0  0.07980  0.56000  0.58690  1.0000 -0.0116649448
N   N4        1.0  0.56000  0.07980  0.91310  1.0000 -0.0116649448
O   O1        1.0  0.89010  0.59510  0.87180  1.0000 -0.6331907723
O   O2        1.0  0.90530  0.46730  0.82560  1.0000 -0.6382275286
O   O3        1.0  0.72470  0.83970  0.52670  1.0000 -0.5777441773
O   O4        1.0  0.58890  0.78950  0.44630  1.0000 -0.6168482143
O   O5        1.0  0.63620  0.44940  0.50670  1.0000 -0.1685113224
O   O6        1.0  0.66870  0.35870  0.29730  1.0000 -0.1852203559
O   O7        1.0  0.91680  0.44900  0.08560  1.0000 -0.685796282
O   O8        1.0  0.93980  0.32020  0.04850  1.0000 -0.6168482143
O   O9        1.0  0.86410  0.03190  0.31640  1.0000 -0.4167131248
O   O10       1.0  0.73110  0.02270  0.35880  1.0000 -0.6382275286
O   O11       1.0  0.93910  0.56330  0.26360  1.0000 -0.6331907723
O   O12       1.0  0.59510  0.89010  0.62820  1.0000 -0.6331907723
O   O13       1.0  0.46730  0.90530  0.67440  1.0000 -0.6382275286
O   O14       1.0  0.83970  0.72470  0.97330  1.0000 -0.5777441773
O   O15       1.0  0.78950  0.58890  0.05370  1.0000 -0.6168482143
O   O16       1.0  0.44940  0.63620  0.99330  1.0000 -0.1685113224
O   O17       1.0  0.35870  0.66870  0.20270  1.0000 -0.1852203559
O   O18       1.0  0.44900  0.91680  0.41440  1.0000 -0.685796282
O   O19       1.0  0.32020  0.93980  0.45150  1.0000 -0.6168482143
O   O20       1.0  0.03190  0.86410  0.18360  1.0000 -0.4167131248
O   O21       1.0  0.02270  0.73110  0.14120  1.0000 -0.6382275286
O   O22       1.0  0.56330  0.93910  0.23640  1.0000 -0.6331907723
O   O23       1.0  0.10990  0.40490  0.12820  1.0000 -0.6331907723
O   O24       1.0  0.09470  0.53270  0.17440  1.0000 -0.6382275286
O   O25       1.0  0.27530  0.16030  0.47330  1.0000 -0.5777441773
O   O26       1.0  0.41110  0.21050  0.55370  1.0000 -0.6168482143
O   O27       1.0  0.36380  0.55060  0.49330  1.0000 -0.1685113224
O   O28       1.0  0.33130  0.64130  0.70270  1.0000 -0.1852203559
O   O29       1.0  0.08320  0.55100  0.91440  1.0000 -0.685796282
O   O30       1.0  0.06020  0.67980  0.95150  1.0000 -0.6168482143
O   O31       1.0  0.13590  0.96810  0.68360  1.0000 -0.4167131248
O   O32       1.0  0.26890  0.97730  0.64120  1.0000 -0.6382275286
O   O33       1.0  0.06090  0.43670  0.73640  1.0000 -0.6331907723
O   O34       1.0  0.40490  0.10990  0.37180  1.0000 -0.6331907723
O   O35       1.0  0.53270  0.09470  0.32560  1.0000 -0.6382275286
O   O36       1.0  0.16030  0.27530  0.02670  1.0000 -0.5777441773
O   O37       1.0  0.21050  0.41110  0.94630  1.0000 -0.6168482143
O   O38       1.0  0.55060  0.36380  0.00670  1.0000 -0.1685113224
O   O39       1.0  0.64130  0.33130  0.79730  1.0000 -0.1852203559
O   O40       1.0  0.55100  0.08320  0.58560  1.0000 -0.685796282
O   O41       1.0  0.67980  0.06020  0.54850  1.0000 -0.6168482143
O   O42       1.0  0.96810  0.13590  0.81640  1.0000 -0.4167131248
O   O43       1.0  0.97730  0.26890  0.85880  1.0000 -0.6382275286
O   O44       1.0  0.43670  0.06090  0.76360  1.0000 -0.6331907723
