# DDEC6 charges by PACMAN v1.1 (https://github.com/mtap-research/PACMAN-charge/)
data_2018[Nd][rtl]3[FSR]1
_chemical_formula_sum              "Nd4 P4 H60 C84 N4 O44"
_cell_length_a       11.668
_cell_length_b       17.693
_cell_length_c       18.5389
_cell_angle_alpha    90
_cell_angle_beta     127.484
_cell_angle_gamma    90

_symmetry_space_group_name_H-M    "P 1"
_symmetry_Int_Tables_number       1

loop_
  _symmetry_equiv_pos_as_xyz
  'x, y, z'

loop_
  _atom_site_type_symbol
  _atom_site_label
  _atom_site_symmetry_multiplicity
  _atom_site_fract_x
  _atom_site_fract_y
  _atom_site_fract_z
  _atom_site_occupancy
  _atom_site_charge
Nd  Nd1       1.0  0.51402  0.07136  0.59161  1.0000 2.0681319741
Nd  Nd2       1.0  0.48598  0.57136  0.90839  1.0000 2.0681319741
Nd  Nd3       1.0  0.48598  0.92864  0.40839  1.0000 2.0681319741
Nd  Nd4       1.0  0.51402  0.42864  0.09161  1.0000 2.0681319741
P   P1        1.0  0.41491  0.08484  0.75241  1.0000 0.8832644878
P   P2        1.0  0.58509  0.58484  0.74759  1.0000 0.8832644878
P   P3        1.0  0.58509  0.91516  0.24759  1.0000 0.8832644878
P   P4        1.0  0.41491  0.41516  0.25241  1.0000 0.8832644878
H   H1        1.0  0.01010  0.87580  0.13990  1.0000 0.3453959731
H   H2        1.0  0.30000  0.18270  0.46450  1.0000 0.3610351255
H   H3        1.0  0.27300  0.17270  0.52780  1.0000 0.3610351255
H   H4        1.0  0.21780  0.13110  0.78930  1.0000 0.1112139134
H   H5        1.0  0.98100  0.10350  0.72500  1.0000 0.1204156933
H   H6        1.0  0.96390  0.96060  0.55400  1.0000 0.1204156933
H   H7        1.0  0.20090  0.98710  0.61690  1.0000 0.1277062722
H   H8        1.0  0.39000  0.96410  0.84710  1.0000 0.1112139134
H   H9        1.0  0.54920  0.88480  0.96150  1.0000 0.1204156933
H   H10       1.0  0.87050  0.97400  0.97270  1.0000 0.1204156933
H   H11       1.0  0.71150  0.05790  0.85910  1.0000 0.1277062722
H   H12       1.0  0.38520  0.22810  0.68110  1.0000 0.1204156933
H   H13       1.0  0.38340  0.35030  0.72490  1.0000 0.1204156933
H   H14       1.0  0.52240  0.28200  0.96680  1.0000 0.1277062722
H   H15       1.0  0.52490  0.15380  0.92670  1.0000 0.1112139134
H   H16       1.0  0.98990  0.37580  0.36010  1.0000 0.3449203281
H   H17       1.0  0.70000  0.68270  0.03550  1.0000 0.3610351255
H   H18       1.0  0.72700  0.67270  0.97220  1.0000 0.3610351255
H   H19       1.0  0.78220  0.63110  0.71070  1.0000 0.1112139134
H   H20       1.0  0.01900  0.60350  0.77500  1.0000 0.1204156933
H   H21       1.0  0.03610  0.46060  0.94600  1.0000 0.1204156933
H   H22       1.0  0.79910  0.48710  0.88310  1.0000 0.1277062722
H   H23       1.0  0.61000  0.46410  0.65290  1.0000 0.1112139134
H   H24       1.0  0.45080  0.38480  0.53850  1.0000 0.1204156933
H   H25       1.0  0.12950  0.47400  0.52730  1.0000 0.1204156933
H   H26       1.0  0.28850  0.55790  0.64090  1.0000 0.1277062722
H   H27       1.0  0.61480  0.72810  0.81890  1.0000 0.1204156933
H   H28       1.0  0.61660  0.85030  0.77510  1.0000 0.1204156933
H   H29       1.0  0.47760  0.78200  0.53320  1.0000 0.1277062722
H   H30       1.0  0.47510  0.65380  0.57330  1.0000 0.1112139134
H   H31       1.0  0.98990  0.12420  0.86010  1.0000 0.3453959731
H   H32       1.0  0.70000  0.81730  0.53550  1.0000 0.3610351255
H   H33       1.0  0.72700  0.82730  0.47220  1.0000 0.3610351255
H   H34       1.0  0.78220  0.86890  0.21070  1.0000 0.1112139134
H   H35       1.0  0.01900  0.89650  0.27500  1.0000 0.1204156933
H   H36       1.0  0.03610  0.03940  0.44600  1.0000 0.1204156933
H   H37       1.0  0.79910  0.01290  0.38310  1.0000 0.1277062722
H   H38       1.0  0.61000  0.03590  0.15290  1.0000 0.1112139134
H   H39       1.0  0.45080  0.11520  0.03850  1.0000 0.1204156933
H   H40       1.0  0.12950  0.02600  0.02730  1.0000 0.1204156933
H   H41       1.0  0.28850  0.94210  0.14090  1.0000 0.1277062722
H   H42       1.0  0.61480  0.77190  0.31890  1.0000 0.1204156933
H   H43       1.0  0.61660  0.64970  0.27510  1.0000 0.1204156933
H   H44       1.0  0.47760  0.71800  0.03320  1.0000 0.1277062722
H   H45       1.0  0.47510  0.84620  0.07330  1.0000 0.1112139134
H   H46       1.0  0.01010  0.62420  0.63990  1.0000 0.3453959731
H   H47       1.0  0.30000  0.31730  0.96450  1.0000 0.3610351255
H   H48       1.0  0.27300  0.32730  0.02780  1.0000 0.3610351255
H   H49       1.0  0.21780  0.36890  0.28930  1.0000 0.1112139134
H   H50       1.0  0.98100  0.39650  0.22500  1.0000 0.1204156933
H   H51       1.0  0.96390  0.53940  0.05400  1.0000 0.1204156933
H   H52       1.0  0.20090  0.51290  0.11690  1.0000 0.1277062722
H   H53       1.0  0.39000  0.53590  0.34710  1.0000 0.1112139134
H   H54       1.0  0.54920  0.61520  0.46150  1.0000 0.1277062722
H   H55       1.0  0.87050  0.52600  0.47270  1.0000 0.1204156933
H   H56       1.0  0.71150  0.44210  0.35910  1.0000 0.1277062722
H   H57       1.0  0.38520  0.27190  0.18110  1.0000 0.1204156933
H   H58       1.0  0.38340  0.14970  0.22490  1.0000 0.1204156933
H   H59       1.0  0.52240  0.21800  0.46680  1.0000 0.1277062722
H   H60       1.0  0.52490  0.34620  0.42670  1.0000 0.1112139134
C   C1        1.0  0.23400  0.06220  0.70950  1.0000 -0.1583277674
C   C2        1.0  0.16710  0.09690  0.74150  1.0000 -0.0909184021
C   C3        1.0  0.02520  0.08060  0.70250  1.0000 -0.0973032901
C   C4        1.0  0.94760  0.03130  0.63110  1.0000 -0.0110067237
C   C5        1.0  0.01460  0.99570  0.60080  1.0000 -0.1092147683
C   C6        1.0  0.15680  0.01110  0.63880  1.0000 -0.0828039924
C   C7        1.0  0.79050  0.01730  0.58580  1.0000 0.6389668493
C   C8        1.0  0.53600  0.02020  0.84310  1.0000 -0.1468416842
C   C9        1.0  0.48760  0.96700  0.87300  1.0000 -0.0973032901
C   C10       1.0  0.58210  0.91920  0.93990  1.0000 -0.1092147683
C   C11       1.0  0.72540  0.91960  0.97720  1.0000 -0.0283368396
C   C12       1.0  0.77290  0.97210  0.94720  1.0000 -0.1092147683
C   C13       1.0  0.67830  0.02260  0.87960  1.0000 -0.0616557838
C   C14       1.0  0.82390  0.86430  0.05150  1.0000 0.5384342132
C   C15       1.0  0.44710  0.17900  0.79800  1.0000 -0.1468416842
C   C16       1.0  0.41020  0.23760  0.73840  1.0000 -0.0828039924
C   C17       1.0  0.41100  0.31040  0.76510  1.0000 -0.0973032901
C   C18       1.0  0.45220  0.32420  0.85060  1.0000 -0.0030714681
C   C19       1.0  0.49310  0.27050  0.90880  1.0000 -0.0909184021
C   C20       1.0  0.49390  0.19280  0.88490  1.0000 -0.0909184021
C   C21       1.0  0.45230  0.40440  0.87650  1.0000 0.6194458513
C   C22       1.0  0.76600  0.56220  0.79050  1.0000 -0.1583277674
C   C23       1.0  0.83290  0.59690  0.75850  1.0000 -0.0909184021
C   C24       1.0  0.97480  0.58060  0.79750  1.0000 -0.0973032901
C   C25       1.0  0.05240  0.53130  0.86890  1.0000 -0.0110067237
C   C26       1.0  0.98540  0.49570  0.89920  1.0000 -0.1092147683
C   C27       1.0  0.84320  0.51110  0.86120  1.0000 -0.0828039924
C   C28       1.0  0.20950  0.51730  0.91420  1.0000 0.6389668493
C   C29       1.0  0.46400  0.52020  0.65690  1.0000 -0.1468416842
C   C30       1.0  0.51240  0.46700  0.62700  1.0000 -0.0909184021
C   C31       1.0  0.41790  0.41920  0.56010  1.0000 -0.1092147683
C   C32       1.0  0.27460  0.41960  0.52280  1.0000 -0.0283368396
C   C33       1.0  0.22710  0.47210  0.55280  1.0000 -0.1092147683
C   C34       1.0  0.32170  0.52260  0.62040  1.0000 -0.0616557838
C   C35       1.0  0.17610  0.36430  0.44850  1.0000 0.5384342132
C   C36       1.0  0.55290  0.67900  0.70200  1.0000 -0.1468416842
C   C37       1.0  0.58980  0.73760  0.76160  1.0000 -0.0828039924
C   C38       1.0  0.58900  0.81040  0.73490  1.0000 -0.0973032901
C   C39       1.0  0.54780  0.82420  0.64940  1.0000 -0.0030714681
C   C40       1.0  0.50690  0.77050  0.59120  1.0000 -0.0909184021
C   C41       1.0  0.50610  0.69280  0.61510  1.0000 -0.0909184021
C   C42       1.0  0.54770  0.90440  0.62350  1.0000 0.6194458513
C   C43       1.0  0.76600  0.93780  0.29050  1.0000 -0.1583277674
C   C44       1.0  0.83290  0.90310  0.25850  1.0000 -0.0909184021
C   C45       1.0  0.97480  0.91940  0.29750  1.0000 -0.0973032901
C   C46       1.0  0.05240  0.96870  0.36890  1.0000 -0.0110067237
C   C47       1.0  0.98540  0.00430  0.39920  1.0000 -0.1092147683
C   C48       1.0  0.84320  0.98890  0.36120  1.0000 -0.0828039924
C   C49       1.0  0.20950  0.98270  0.41420  1.0000 0.6389668493
C   C50       1.0  0.46400  0.97980  0.15690  1.0000 -0.1468416842
C   C51       1.0  0.51240  0.03300  0.12700  1.0000 -0.0909184021
C   C52       1.0  0.41790  0.08080  0.06010  1.0000 -0.1092147683
C   C53       1.0  0.27460  0.08040  0.02280  1.0000 -0.0283368396
C   C54       1.0  0.22710  0.02790  0.05280  1.0000 -0.1092147683
C   C55       1.0  0.32170  0.97740  0.12040  1.0000 -0.0616557838
C   C56       1.0  0.17610  0.13570  0.94850  1.0000 0.5384342132
C   C57       1.0  0.55290  0.82100  0.20200  1.0000 -0.1468416842
C   C58       1.0  0.58980  0.76240  0.26160  1.0000 -0.0828039924
C   C59       1.0  0.58900  0.68960  0.23490  1.0000 -0.0973032901
C   C60       1.0  0.54780  0.67580  0.14940  1.0000 -0.0030714681
C   C61       1.0  0.50690  0.72950  0.09120  1.0000 -0.0909184021
C   C62       1.0  0.50610  0.80720  0.11510  1.0000 -0.0909184021
C   C63       1.0  0.54770  0.59560  0.12350  1.0000 0.6194458513
C   C64       1.0  0.23400  0.43780  0.20950  1.0000 -0.1583277674
C   C65       1.0  0.16710  0.40310  0.24150  1.0000 -0.0909184021
C   C66       1.0  0.02520  0.41940  0.20250  1.0000 -0.0973032901
C   C67       1.0  0.94760  0.46870  0.13110  1.0000 -0.0110067237
C   C68       1.0  0.01460  0.50430  0.10080  1.0000 -0.1092147683
C   C69       1.0  0.15680  0.48890  0.13880  1.0000 -0.0828039924
C   C70       1.0  0.79050  0.48270  0.08580  1.0000 0.6389668493
C   C71       1.0  0.53600  0.47980  0.34310  1.0000 -0.1468416842
C   C72       1.0  0.48760  0.53300  0.37300  1.0000 -0.0973032901
C   C73       1.0  0.58210  0.58080  0.43990  1.0000 -0.1092147683
C   C74       1.0  0.72540  0.58040  0.47720  1.0000 -0.0283368396
C   C75       1.0  0.77290  0.52790  0.44720  1.0000 -0.1092147683
C   C76       1.0  0.67830  0.47740  0.37960  1.0000 -0.0616557838
C   C77       1.0  0.82390  0.63570  0.55150  1.0000 0.5384342132
C   C78       1.0  0.44710  0.32100  0.29800  1.0000 -0.1468416842
C   C79       1.0  0.41020  0.26240  0.23840  1.0000 -0.0828039924
C   C80       1.0  0.41100  0.18960  0.26510  1.0000 -0.0973032901
C   C81       1.0  0.45220  0.17580  0.35060  1.0000 -0.0030714681
C   C82       1.0  0.49310  0.22950  0.40880  1.0000 -0.0909184021
C   C83       1.0  0.49390  0.30720  0.38490  1.0000 -0.0909184021
C   C84       1.0  0.45230  0.09560  0.37650  1.0000 0.6194458513
N   N1        1.0  0.74190  0.18440  0.71680  1.0000 0.6797268299
N   N2        1.0  0.25810  0.68440  0.78320  1.0000 0.6797268299
N   N3        1.0  0.25810  0.81560  0.28320  1.0000 0.6797268299
N   N4        1.0  0.74190  0.31560  0.21680  1.0000 0.6797268299
O   O1        1.0  0.42680  0.08220  0.67690  1.0000 -0.7789343389
O   O2        1.0  0.71930  0.98260  0.51120  1.0000 -0.6697995754
O   O3        1.0  0.74150  0.04210  0.62480  1.0000 -0.6503614875
O   O4        1.0  0.95910  0.87420  0.08420  1.0000 -0.4400750304
O   O5        1.0  0.78330  0.81620  0.07640  1.0000 -0.4721907022
O   O6        1.0  0.47960  0.41910  0.95170  1.0000 -0.7267482372
O   O7        1.0  0.42240  0.45570  0.82170  1.0000 -0.583794901
O   O8        1.0  0.65460  0.19740  0.63440  1.0000 -0.4562354775
O   O9        1.0  0.71910  0.13090  0.74760  1.0000 -0.4400750304
O   O10       1.0  0.85260  0.22110  0.76730  1.0000 -0.3520288857
O   O11       1.0  0.33930  0.17960  0.52150  1.0000 -0.7553443404
O   O12       1.0  0.57320  0.58220  0.82310  1.0000 -0.7789343389
O   O13       1.0  0.28070  0.48260  0.98880  1.0000 -0.6697995754
O   O14       1.0  0.25850  0.54210  0.87520  1.0000 -0.6503614875
O   O15       1.0  0.04090  0.37420  0.41580  1.0000 -0.4400750304
O   O16       1.0  0.21670  0.31620  0.42360  1.0000 -0.4721907022
O   O17       1.0  0.52040  0.91910  0.54830  1.0000 -0.7267482372
O   O18       1.0  0.57760  0.95570  0.67830  1.0000 -0.583794901
O   O19       1.0  0.34540  0.69740  0.86560  1.0000 -0.4562354775
O   O20       1.0  0.28090  0.63090  0.75240  1.0000 -0.4400750304
O   O21       1.0  0.14740  0.72110  0.73270  1.0000 -0.3520288857
O   O22       1.0  0.66070  0.67960  0.97850  1.0000 -0.7553443404
O   O23       1.0  0.57320  0.91780  0.32310  1.0000 -0.7789343389
O   O24       1.0  0.28070  0.01740  0.48880  1.0000 -0.6697995754
O   O25       1.0  0.25850  0.95790  0.37520  1.0000 -0.6503614875
O   O26       1.0  0.04090  0.12580  0.91580  1.0000 -0.4400750304
O   O27       1.0  0.21670  0.18380  0.92360  1.0000 -0.4721907022
O   O28       1.0  0.52040  0.58090  0.04830  1.0000 -0.7267482372
O   O29       1.0  0.57760  0.54430  0.17830  1.0000 -0.583794901
O   O30       1.0  0.34540  0.80260  0.36560  1.0000 -0.4562354775
O   O31       1.0  0.28090  0.86910  0.25240  1.0000 -0.4400750304
O   O32       1.0  0.14740  0.77890  0.23270  1.0000 -0.3520288857
O   O33       1.0  0.66070  0.82040  0.47850  1.0000 -0.7553443404
O   O34       1.0  0.42680  0.41780  0.17690  1.0000 -0.7789343389
O   O35       1.0  0.71930  0.51740  0.01120  1.0000 -0.6697995754
O   O36       1.0  0.74150  0.45790  0.12480  1.0000 -0.6503614875
O   O37       1.0  0.95910  0.62580  0.58420  1.0000 -0.4400750304
O   O38       1.0  0.78330  0.68380  0.57640  1.0000 -0.4721907022
O   O39       1.0  0.47960  0.08090  0.45170  1.0000 -0.7267482372
O   O40       1.0  0.42240  0.04430  0.32170  1.0000 -0.583794901
O   O41       1.0  0.65460  0.30260  0.13440  1.0000 -0.4562354775
O   O42       1.0  0.71910  0.36910  0.24760  1.0000 -0.4400750304
O   O43       1.0  0.85260  0.27890  0.26730  1.0000 -0.3520288857
O   O44       1.0  0.33930  0.32040  0.02150  1.0000 -0.7553443404
