# DDEC6 charges by PACMAN v1.1 (https://github.com/mtap-research/PACMAN-charge/)
data_2018[Gd][pcu]3[FSR]1
_chemical_formula_sum              "Gd6 H12 C48 O38 F24"
_cell_length_a       13.2487
_cell_length_b       13.2487
_cell_length_c       13.2487
_cell_angle_alpha    92.6543
_cell_angle_beta     92.6543
_cell_angle_gamma    92.6543

_symmetry_space_group_name_H-M    "P 1"
_symmetry_Int_Tables_number       1

loop_
  _symmetry_equiv_pos_as_xyz
  'x, y, z'

loop_
  _atom_site_type_symbol
  _atom_site_label
  _atom_site_symmetry_multiplicity
  _atom_site_fract_x
  _atom_site_fract_y
  _atom_site_fract_z
  _atom_site_occupancy
  _atom_site_charge
Gd  Gd1       1.0  0.44302  0.67823  0.60157  1.0000 2.0838057554
Gd  Gd2       1.0  0.67823  0.60157  0.44302  1.0000 2.0838057554
Gd  Gd3       1.0  0.60157  0.44302  0.67823  1.0000 2.0838057554
Gd  Gd4       1.0  0.55698  0.32177  0.39843  1.0000 2.0838057554
Gd  Gd5       1.0  0.32177  0.39843  0.55698  1.0000 2.0838057554
Gd  Gd6       1.0  0.39843  0.55698  0.32177  1.0000 2.0838057554
H   H1        1.0  0.42317  0.89978  0.72980  1.0000 0.4451664743
H   H2        1.0  0.33494  0.84989  0.67400  1.0000 0.4236114975
H   H3        1.0  0.89978  0.72980  0.42317  1.0000 0.4451664743
H   H4        1.0  0.84989  0.67400  0.33494  1.0000 0.4236114975
H   H5        1.0  0.72980  0.42317  0.89978  1.0000 0.4451664743
H   H6        1.0  0.67400  0.33494  0.84989  1.0000 0.4236114975
H   H7        1.0  0.57683  0.10022  0.27020  1.0000 0.4451664743
H   H8        1.0  0.66506  0.15011  0.32600  1.0000 0.4236114975
H   H9        1.0  0.10022  0.27020  0.57683  1.0000 0.4451664743
H   H10       1.0  0.15011  0.32600  0.66506  1.0000 0.4236114975
H   H11       1.0  0.27020  0.57683  0.10022  1.0000 0.4451664743
H   H12       1.0  0.32600  0.66506  0.15011  1.0000 0.4236114975
C   C1        1.0  0.31974  0.78574  0.40314  1.0000 0.6741119382
C   C2        1.0  0.27910  0.88730  0.37480  1.0000 -0.2308004516
C   C3        1.0  0.19427  0.89487  0.31097  1.0000 0.2086824732
C   C4        1.0  0.15550  0.98700  0.29040  1.0000 0.0242807307
C   C5        1.0  0.20266  0.07396  0.33256  1.0000 0.2086824732
C   C6        1.0  0.29020  0.07250  0.39330  1.0000 -0.2308004516
C   C7        1.0  0.32434  0.97834  0.41264  1.0000 0.273187037
C   C8        1.0  0.34705  0.16945  0.43495  1.0000 0.6741119382
C   C9        1.0  0.78574  0.40314  0.31974  1.0000 0.6741119382
C   C10       1.0  0.88730  0.37480  0.27910  1.0000 -0.2308004516
C   C11       1.0  0.89487  0.31097  0.19427  1.0000 0.2086824732
C   C12       1.0  0.98700  0.29040  0.15550  1.0000 0.0242807307
C   C13       1.0  0.07396  0.33256  0.20266  1.0000 0.2086824732
C   C14       1.0  0.07250  0.39330  0.29020  1.0000 -0.2308004516
C   C15       1.0  0.97834  0.41264  0.32434  1.0000 0.273187037
C   C16       1.0  0.16945  0.43495  0.34705  1.0000 0.6741119382
C   C17       1.0  0.40314  0.31974  0.78574  1.0000 0.6741119382
C   C18       1.0  0.37480  0.27910  0.88730  1.0000 -0.2308004516
C   C19       1.0  0.31097  0.19427  0.89487  1.0000 0.2086824732
C   C20       1.0  0.29040  0.15550  0.98700  1.0000 0.0242807307
C   C21       1.0  0.33256  0.20266  0.07396  1.0000 0.2086824732
C   C22       1.0  0.39330  0.29020  0.07250  1.0000 -0.2308004516
C   C23       1.0  0.41264  0.32434  0.97834  1.0000 0.273187037
C   C24       1.0  0.43495  0.34705  0.16945  1.0000 0.6741119382
C   C25       1.0  0.68026  0.21426  0.59686  1.0000 0.6741119382
C   C26       1.0  0.72090  0.11270  0.62520  1.0000 -0.2308004516
C   C27       1.0  0.80573  0.10513  0.68903  1.0000 0.2086824732
C   C28       1.0  0.84450  0.01300  0.70960  1.0000 0.0271689688
C   C29       1.0  0.79734  0.92604  0.66744  1.0000 0.2086824732
C   C30       1.0  0.70980  0.92750  0.60670  1.0000 -0.2308004516
C   C31       1.0  0.67566  0.02166  0.58736  1.0000 0.273187037
C   C32       1.0  0.65295  0.83055  0.56505  1.0000 0.6741119382
C   C33       1.0  0.21426  0.59686  0.68026  1.0000 0.6741119382
C   C34       1.0  0.11270  0.62520  0.72090  1.0000 -0.2308004516
C   C35       1.0  0.10513  0.68903  0.80573  1.0000 0.2086824732
C   C36       1.0  0.01300  0.70960  0.84450  1.0000 0.0242807307
C   C37       1.0  0.92604  0.66744  0.79734  1.0000 0.2086824732
C   C38       1.0  0.92750  0.60670  0.70980  1.0000 -0.2308004516
C   C39       1.0  0.02166  0.58736  0.67566  1.0000 0.273187037
C   C40       1.0  0.83055  0.56505  0.65295  1.0000 0.6741119382
C   C41       1.0  0.59686  0.68026  0.21426  1.0000 0.6741119382
C   C42       1.0  0.62520  0.72090  0.11270  1.0000 -0.2308004516
C   C43       1.0  0.68903  0.80573  0.10513  1.0000 0.2086824732
C   C44       1.0  0.70960  0.84450  0.01300  1.0000 0.0271689688
C   C45       1.0  0.66744  0.79734  0.92604  1.0000 0.2086824732
C   C46       1.0  0.60670  0.70980  0.92750  1.0000 -0.2308004516
C   C47       1.0  0.58736  0.67566  0.02166  1.0000 0.273187037
C   C48       1.0  0.56505  0.65295  0.83055  1.0000 0.6741119382
O   O1        1.0  0.50969  0.65347  0.43894  1.0000 -0.8821123484
O   O2        1.0  0.34647  0.77998  0.49386  1.0000 -0.5570494477
O   O3        1.0  0.32218  0.71865  0.33417  1.0000 -0.5519041528
O   O4        1.0  0.43578  0.18260  0.40828  1.0000 -0.5519041528
O   O5        1.0  0.29980  0.22609  0.49162  1.0000 -0.5519041528
O   O6        1.0  0.39760  0.85110  0.69150  1.0000 -0.716689134
O   O7        1.0  0.65347  0.43894  0.50969  1.0000 -0.8821123484
O   O8        1.0  0.77998  0.49386  0.34647  1.0000 -0.5570494477
O   O9        1.0  0.71865  0.33417  0.32218  1.0000 -0.5519041528
O   O10       1.0  0.18260  0.40828  0.43578  1.0000 -0.5519041528
O   O11       1.0  0.22609  0.49162  0.29980  1.0000 -0.5519041528
O   O12       1.0  0.85110  0.69150  0.39760  1.0000 -0.714936817
O   O13       1.0  0.43894  0.50969  0.65347  1.0000 -0.8821123484
O   O14       1.0  0.49386  0.34647  0.77998  1.0000 -0.5570494477
O   O15       1.0  0.33417  0.32218  0.71865  1.0000 -0.5519041528
O   O16       1.0  0.40828  0.43578  0.18260  1.0000 -0.5519041528
O   O17       1.0  0.49162  0.29980  0.22609  1.0000 -0.5519041528
O   O18       1.0  0.69150  0.39760  0.85110  1.0000 -0.716689134
O   O19       1.0  0.49031  0.34653  0.56106  1.0000 -0.8821123484
O   O20       1.0  0.65353  0.22002  0.50614  1.0000 -0.5570494477
O   O21       1.0  0.67782  0.28135  0.66583  1.0000 -0.5519041528
O   O22       1.0  0.56422  0.81740  0.59172  1.0000 -0.5519041528
O   O23       1.0  0.70020  0.77391  0.50838  1.0000 -0.5519041528
O   O24       1.0  0.60240  0.14890  0.30850  1.0000 -0.716689134
O   O25       1.0  0.34653  0.56106  0.49031  1.0000 -0.8821123484
O   O26       1.0  0.22002  0.50614  0.65353  1.0000 -0.5570494477
O   O27       1.0  0.28135  0.66583  0.67782  1.0000 -0.5519041528
O   O28       1.0  0.81740  0.59172  0.56422  1.0000 -0.5519041528
O   O29       1.0  0.77391  0.50838  0.70020  1.0000 -0.5519041528
O   O30       1.0  0.14890  0.30850  0.60240  1.0000 -0.716689134
O   O31       1.0  0.56106  0.49031  0.34653  1.0000 -0.8821123484
O   O32       1.0  0.50614  0.65353  0.22002  1.0000 -0.5570494477
O   O33       1.0  0.66583  0.67782  0.28135  1.0000 -0.5519041528
O   O34       1.0  0.59172  0.56422  0.81740  1.0000 -0.5519041528
O   O35       1.0  0.50838  0.70020  0.77391  1.0000 -0.5519041528
O   O36       1.0  0.30850  0.60240  0.14890  1.0000 -0.714936817
O   O37       1.0  0.60120  0.60120  0.60120  1.0000 -0.8593981508
O   O38       1.0  0.39880  0.39880  0.39880  1.0000 -0.8593981508
F   F1        1.0  0.14439  0.81157  0.26988  1.0000 -0.1296623839
F   F2        1.0  0.06980  0.99104  0.22902  1.0000 -0.0991160298
F   F3        1.0  0.16186  0.16236  0.31316  1.0000 -0.0991160298
F   F4        1.0  0.40796  0.97592  0.47388  1.0000 -0.1296623839
F   F5        1.0  0.81157  0.26988  0.14439  1.0000 -0.1296623839
F   F6        1.0  0.99104  0.22902  0.06980  1.0000 -0.0991160298
F   F7        1.0  0.16236  0.31316  0.16186  1.0000 -0.0991160298
F   F8        1.0  0.97592  0.47388  0.40796  1.0000 -0.1296623839
F   F9        1.0  0.26988  0.14439  0.81157  1.0000 -0.1296623839
F   F10       1.0  0.22902  0.06980  0.99104  1.0000 -0.0991160298
F   F11       1.0  0.31316  0.16186  0.16236  1.0000 -0.0991160298
F   F12       1.0  0.47388  0.40796  0.97592  1.0000 -0.1296623839
F   F13       1.0  0.85561  0.18843  0.73012  1.0000 -0.1296623839
F   F14       1.0  0.93020  0.00896  0.77098  1.0000 -0.0991160298
F   F15       1.0  0.83814  0.83764  0.68684  1.0000 -0.0991160298
F   F16       1.0  0.59204  0.02408  0.52612  1.0000 -0.1296623839
F   F17       1.0  0.18843  0.73012  0.85561  1.0000 -0.1296623839
F   F18       1.0  0.00896  0.77098  0.93020  1.0000 -0.0991160298
F   F19       1.0  0.83764  0.68684  0.83814  1.0000 -0.0991160298
F   F20       1.0  0.02408  0.52612  0.59204  1.0000 -0.1296623839
F   F21       1.0  0.73012  0.85561  0.18843  1.0000 -0.1296623839
F   F22       1.0  0.77098  0.93020  0.00896  1.0000 -0.0991160298
F   F23       1.0  0.68684  0.83814  0.83764  1.0000 -0.0991160298
F   F24       1.0  0.52612  0.59204  0.02408  1.0000 -0.1296623839
