# DDEC6 charges by PACMAN v1.1 (https://github.com/mtap-research/PACMAN-charge/)
data_2018[Cd][tfz]3[FSR]4
_chemical_formula_sum              "Cd6 H92 C140 N8 O26"
_cell_length_a       14.6314
_cell_length_b       16.8317
_cell_length_c       19.7532
_cell_angle_alpha    76.99
_cell_angle_beta     72.839
_cell_angle_gamma    75.875

_symmetry_space_group_name_H-M    "P 1"
_symmetry_Int_Tables_number       1

loop_
  _symmetry_equiv_pos_as_xyz
  'x, y, z'

loop_
  _atom_site_type_symbol
  _atom_site_label
  _atom_site_symmetry_multiplicity
  _atom_site_fract_x
  _atom_site_fract_y
  _atom_site_fract_z
  _atom_site_occupancy
  _atom_site_charge
Cd  Cd1       1.0  0.11085  0.32291  0.37672  1.0000 0.9039768128
Cd  Cd2       1.0  0.00195  0.25972  0.24743  1.0000 0.9864713101
Cd  Cd3       1.0  0.88516  0.19582  0.11902  1.0000 0.9058917909
Cd  Cd4       1.0  0.88915  0.67709  0.62328  1.0000 0.9039768128
Cd  Cd5       1.0  0.99805  0.74028  0.75257  1.0000 0.9864713101
Cd  Cd6       1.0  0.11484  0.80418  0.88098  1.0000 0.9058917909
H   H1        1.0  0.07254  0.39823  0.20309  1.0000 0.4026031046
H   H2        1.0  0.97038  0.42908  0.24865  1.0000 0.3926087766
H   H3        1.0  0.12754  0.19359  0.51741  1.0000 0.1111716058
H   H4        1.0  0.09581  0.17730  0.64110  1.0000 0.1208295276
H   H5        1.0  0.03662  0.42629  0.62129  1.0000 0.1406352966
H   H6        1.0  0.07161  0.43497  0.49897  1.0000 0.1111716058
H   H7        1.0  0.02550  0.33760  0.74589  1.0000 0.1208295276
H   H8        1.0  0.99841  0.18151  0.74853  1.0000 0.1111716058
H   H9        1.0  0.97559  0.09540  0.87137  1.0000 0.1406352966
H   H10       1.0  0.93263  0.08615  0.99573  1.0000 0.1111716058
H   H11       1.0  0.88136  0.32475  0.97806  1.0000 0.1208295276
H   H12       1.0  0.92990  0.34317  0.85630  1.0000 0.1406352966
H   H13       1.0  0.86599  0.13063  0.32763  1.0000 0.1208295276
H   H14       1.0  0.85025  0.99401  0.34474  1.0000 0.1111716058
H   H15       1.0  0.11462  0.93992  0.22600  1.0000 0.1111716058
H   H16       1.0  0.12162  0.07947  0.20302  1.0000 0.1026903628
H   H17       1.0  0.82783  0.34710  0.53459  1.0000 0.1208295276
H   H18       1.0  0.68379  0.34430  0.62128  1.0000 0.1111716058
H   H19       1.0  0.59310  0.22328  0.50611  1.0000 0.1111716058
H   H20       1.0  0.73679  0.23046  0.41654  1.0000 0.1208295276
H   H21       1.0  0.23328  0.50268  0.89164  1.0000 0.1208295276
H   H22       1.0  0.31266  0.38424  0.84187  1.0000 0.1111716058
H   H23       1.0  0.34096  0.51785  0.64368  1.0000 0.1208295276
H   H24       1.0  0.25086  0.63537  0.69319  1.0000 0.1208295276
H   H25       1.0  0.40187  0.93929  0.77906  1.0000 0.1208295276
H   H26       1.0  0.47656  0.05306  0.72876  1.0000 0.1111716058
H   H27       1.0  0.21423  0.20120  0.74248  1.0000 0.1111716058
H   H28       1.0  0.13976  0.08786  0.78930  1.0000 0.1026903628
H   H29       1.0  0.50128  0.40984  0.63612  1.0000 0.1111716058
H   H30       1.0  0.29226  0.28992  0.76881  1.0000 0.1111716058
H   H31       1.0  0.51797  0.16670  0.63346  1.0000 0.1111716058
H   H32       1.0  0.17881  0.13138  0.97813  1.0000 0.1208295276
H   H33       1.0  0.32424  0.12894  0.89129  1.0000 0.1111716058
H   H34       1.0  0.40018  0.28380  0.98353  1.0000 0.1111716058
H   H35       1.0  0.25457  0.28946  0.06793  1.0000 0.1208295276
H   H36       1.0  0.60534  0.54106  0.72314  1.0000 0.1208295276
H   H37       1.0  0.53151  0.42784  0.77258  1.0000 0.1111716058
H   H38       1.0  0.79491  0.27833  0.76061  1.0000 0.1111716058
H   H39       1.0  0.86645  0.39371  0.70998  1.0000 0.1026903628
H   H40       1.0  0.77663  0.97899  0.61496  1.0000 0.1208295276
H   H41       1.0  0.70411  0.09755  0.66405  1.0000 0.1111716058
H   H42       1.0  0.63506  0.96079  0.85907  1.0000 0.1208295276
H   H43       1.0  0.71830  0.84254  0.81521  1.0000 0.1208295276
H   H44       1.0  0.48877  0.31767  0.86771  1.0000 0.1111716058
H   H45       1.0  0.71546  0.18759  0.73847  1.0000 0.1111716058
H   H46       1.0  0.49723  0.07565  0.86798  1.0000 0.1111716058
H   H47       1.0  0.92746  0.60177  0.79691  1.0000 0.4026031046
H   H48       1.0  0.02962  0.57092  0.75135  1.0000 0.3926087766
H   H49       1.0  0.87246  0.80641  0.48259  1.0000 0.1111716058
H   H50       1.0  0.90419  0.82270  0.35890  1.0000 0.1208295276
H   H51       1.0  0.96338  0.57371  0.37871  1.0000 0.1406352966
H   H52       1.0  0.92839  0.56503  0.50103  1.0000 0.1111716058
H   H53       1.0  0.97450  0.66240  0.25411  1.0000 0.1208295276
H   H54       1.0  0.00159  0.81849  0.25147  1.0000 0.1111716058
H   H55       1.0  0.02441  0.90460  0.12863  1.0000 0.1406352966
H   H56       1.0  0.06737  0.91385  0.00427  1.0000 0.1111716058
H   H57       1.0  0.11864  0.67525  0.02194  1.0000 0.1208295276
H   H58       1.0  0.07010  0.65683  0.14370  1.0000 0.1406352966
H   H59       1.0  0.13401  0.86937  0.67237  1.0000 0.1208295276
H   H60       1.0  0.14975  0.00599  0.65526  1.0000 0.1111716058
H   H61       1.0  0.88538  0.06008  0.77400  1.0000 0.1111716058
H   H62       1.0  0.87838  0.92053  0.79698  1.0000 0.1026903628
H   H63       1.0  0.17217  0.65290  0.46541  1.0000 0.1208295276
H   H64       1.0  0.31621  0.65570  0.37872  1.0000 0.1111716058
H   H65       1.0  0.40690  0.77672  0.49389  1.0000 0.1111716058
H   H66       1.0  0.26321  0.76954  0.58346  1.0000 0.1208295276
H   H67       1.0  0.76672  0.49732  0.10836  1.0000 0.1208295276
H   H68       1.0  0.68734  0.61576  0.15813  1.0000 0.1111716058
H   H69       1.0  0.65904  0.48215  0.35632  1.0000 0.1208295276
H   H70       1.0  0.74914  0.36463  0.30681  1.0000 0.1208295276
H   H71       1.0  0.59813  0.06071  0.22094  1.0000 0.1208295276
H   H72       1.0  0.52344  0.94694  0.27124  1.0000 0.1111716058
H   H73       1.0  0.78577  0.79880  0.25752  1.0000 0.1111716058
H   H74       1.0  0.86024  0.91214  0.21070  1.0000 0.1026903628
H   H75       1.0  0.49872  0.59016  0.36388  1.0000 0.1111716058
H   H76       1.0  0.70774  0.71008  0.23119  1.0000 0.1111716058
H   H77       1.0  0.48203  0.83330  0.36654  1.0000 0.1111716058
H   H78       1.0  0.82119  0.86862  0.02187  1.0000 0.1208295276
H   H79       1.0  0.67576  0.87106  0.10871  1.0000 0.1111716058
H   H80       1.0  0.59982  0.71620  0.01647  1.0000 0.1111716058
H   H81       1.0  0.74543  0.71054  0.93207  1.0000 0.1208295276
H   H82       1.0  0.39466  0.45894  0.27686  1.0000 0.1208295276
H   H83       1.0  0.46849  0.57216  0.22742  1.0000 0.1111716058
H   H84       1.0  0.20509  0.72167  0.23939  1.0000 0.1111716058
H   H85       1.0  0.13355  0.60629  0.29002  1.0000 0.1026903628
H   H86       1.0  0.22337  0.02101  0.38504  1.0000 0.1208295276
H   H87       1.0  0.29589  0.90245  0.33595  1.0000 0.1111716058
H   H88       1.0  0.36494  0.03921  0.14093  1.0000 0.1208295276
H   H89       1.0  0.28170  0.15746  0.18479  1.0000 0.1208295276
H   H90       1.0  0.51123  0.68233  0.13229  1.0000 0.1111716058
H   H91       1.0  0.28454  0.81241  0.26153  1.0000 0.1111716058
H   H92       1.0  0.50277  0.92435  0.13202  1.0000 0.1111716058
C   C1        1.0  0.10790  0.24140  0.53910  1.0000 0.1026903628
C   C2        1.0  0.08800  0.23060  0.61340  1.0000 -0.1921047669
C   C3        1.0  0.05600  0.30200  0.64550  1.0000 0.1584390997
C   C4        1.0  0.05340  0.37740  0.60140  1.0000 -0.1921047669
C   C5        1.0  0.07510  0.38230  0.52800  1.0000 0.0812263351
C   C6        1.0  0.02490  0.29270  0.72520  1.0000 -0.1319906228
C   C7        1.0  0.99700  0.22740  0.76890  1.0000 -0.1319906228
C   C8        1.0  0.96270  0.22000  0.84890  1.0000 0.1584390997
C   C9        1.0  0.95910  0.14390  0.89190  1.0000 -0.2094681016
C   C10       1.0  0.93060  0.13890  0.96690  1.0000 0.1026903628
C   C11       1.0  0.90240  0.27720  0.95590  1.0000 0.0724465175
C   C12       1.0  0.93120  0.28930  0.88300  1.0000 -0.1921047669
C   C13       1.0  0.91830  0.09250  0.30510  1.0000 0.0724465175
C   C14       1.0  0.90980  0.00900  0.31740  1.0000 0.0040797934
C   C15       1.0  0.06120  0.97750  0.24820  1.0000 0.0290968594
C   C16       1.0  0.06550  0.06210  0.23480  1.0000 0.0290968594
C   C17       1.0  0.89280  0.29140  0.40850  1.0000 0.5812594045
C   C18       1.0  0.79920  0.28850  0.46660  1.0000 -0.037827341
C   C19       1.0  0.78040  0.32260  0.52810  1.0000 -0.0987476356
C   C20       1.0  0.69390  0.32140  0.57990  1.0000 -0.15200983
C   C21       1.0  0.62120  0.28710  0.57240  1.0000 0.0724465175
C   C22       1.0  0.63960  0.24990  0.51120  1.0000 -0.157974044
C   C23       1.0  0.72650  0.25270  0.45840  1.0000 -0.1130882354
C   C24       1.0  0.18380  0.65780  0.82960  1.0000 0.5812594045
C   C25       1.0  0.23410  0.58190  0.79740  1.0000 -0.037827341
C   C26       1.0  0.25340  0.50610  0.84140  1.0000 -0.0938408481
C   C27       1.0  0.30230  0.43540  0.81140  1.0000 -0.157974044
C   C28       1.0  0.33590  0.43830  0.73840  1.0000 0.0724465175
C   C29       1.0  0.31780  0.51420  0.69380  1.0000 -0.15200983
C   C30       1.0  0.26520  0.58500  0.72370  1.0000 -0.0987476356
C   C31       1.0  0.21210  0.93040  0.82460  1.0000 0.5386378317
C   C32       1.0  0.26250  0.00170  0.79120  1.0000 -0.0322940537
C   C33       1.0  0.36340  0.99250  0.77190  1.0000 -0.0987476356
C   C34       1.0  0.40820  0.06060  0.74210  1.0000 -0.15200983
C   C35       1.0  0.35300  0.13920  0.73200  1.0000 0.0724465175
C   C36       1.0  0.25270  0.14800  0.74990  1.0000 -0.157974044
C   C37       1.0  0.20800  0.08040  0.77840  1.0000 -0.1152987233
C   C38       1.0  0.52660  0.28750  0.62700  1.0000 0.0812263351
C   C39       1.0  0.47590  0.36090  0.65410  1.0000 -0.2013958296
C   C40       1.0  0.38800  0.36200  0.70740  1.0000 0.0812263351
C   C41       1.0  0.35050  0.28960  0.73230  1.0000 -0.2013958296
C   C42       1.0  0.39690  0.21560  0.70450  1.0000 0.0873828157
C   C43       1.0  0.48540  0.21560  0.65220  1.0000 -0.2094681016
C   C44       1.0  0.10580  0.21690  0.08770  1.0000 0.5812594045
C   C45       1.0  0.20010  0.21370  0.03190  1.0000 -0.049708279
C   C46       1.0  0.22320  0.16300  0.97880  1.0000 -0.0987476356
C   C47       1.0  0.31090  0.16030  0.92810  1.0000 -0.15200983
C   C48       1.0  0.38100  0.20310  0.92980  1.0000 0.0812263351
C   C49       1.0  0.35590  0.25240  0.98230  1.0000 -0.15200983
C   C50       1.0  0.26830  0.25640  0.03230  1.0000 -0.0987476356
C   C51       1.0  0.79410  0.55050  0.67900  1.0000 0.5510673671
C   C52       1.0  0.74430  0.47850  0.71220  1.0000 -0.0212883326
C   C53       1.0  0.64390  0.48790  0.73060  1.0000 -0.0938408481
C   C54       1.0  0.59990  0.42000  0.75980  1.0000 -0.15200983
C   C55       1.0  0.65460  0.33970  0.77090  1.0000 0.0724465175
C   C56       1.0  0.75560  0.33100  0.75280  1.0000 -0.15200983
C   C57       1.0  0.79810  0.40070  0.72300  1.0000 -0.1130882354
C   C58       1.0  0.81110  0.82070  0.67590  1.0000 0.568729177
C   C59       1.0  0.75850  0.89660  0.70860  1.0000 -0.0212883326
C   C60       1.0  0.75080  0.97490  0.66490  1.0000 -0.0987476356
C   C61       1.0  0.70610  0.04550  0.69410  1.0000 -0.157974044
C   C62       1.0  0.66270  0.04110  0.76900  1.0000 0.0607936828
C   C63       1.0  0.66690  0.96480  0.80990  1.0000 -0.1441450865
C   C64       1.0  0.71440  0.89360  0.78390  1.0000 -0.1152987233
C   C65       1.0  0.47540  0.19930  0.87450  1.0000 0.0812263351
C   C66       1.0  0.51970  0.26820  0.84940  1.0000 -0.2013958296
C   C67       1.0  0.60860  0.26630  0.79790  1.0000 0.0873828157
C   C68       1.0  0.65500  0.19040  0.77270  1.0000 -0.2013958296
C   C69       1.0  0.61360  0.11990  0.79720  1.0000 0.0812263351
C   C70       1.0  0.52460  0.12360  0.84940  1.0000 -0.2013958296
C   C71       1.0  0.89210  0.75860  0.46090  1.0000 0.1026903628
C   C72       1.0  0.91200  0.76940  0.38660  1.0000 -0.1921047669
C   C73       1.0  0.94400  0.69800  0.35450  1.0000 0.1584390997
C   C74       1.0  0.94660  0.62260  0.39860  1.0000 -0.1921047669
C   C75       1.0  0.92490  0.61770  0.47200  1.0000 0.0812263351
C   C76       1.0  0.97510  0.70730  0.27480  1.0000 -0.1319906228
C   C77       1.0  0.00300  0.77260  0.23110  1.0000 -0.1319906228
C   C78       1.0  0.03730  0.78000  0.15110  1.0000 0.1584390997
C   C79       1.0  0.04090  0.85610  0.10810  1.0000 -0.2094681016
C   C80       1.0  0.06940  0.86110  0.03310  1.0000 0.1026903628
C   C81       1.0  0.09760  0.72280  0.04410  1.0000 0.0724465175
C   C82       1.0  0.06880  0.71070  0.11700  1.0000 -0.1921047669
C   C83       1.0  0.08170  0.90750  0.69490  1.0000 0.0724465175
C   C84       1.0  0.09020  0.99100  0.68260  1.0000 0.0040797934
C   C85       1.0  0.93880  0.02250  0.75180  1.0000 0.0290968594
C   C86       1.0  0.93450  0.93790  0.76520  1.0000 0.0290968594
C   C87       1.0  0.10720  0.70860  0.59150  1.0000 0.5812594045
C   C88       1.0  0.20080  0.71150  0.53340  1.0000 -0.037827341
C   C89       1.0  0.21960  0.67740  0.47190  1.0000 -0.0987476356
C   C90       1.0  0.30610  0.67860  0.42010  1.0000 -0.15200983
C   C91       1.0  0.37880  0.71290  0.42760  1.0000 0.0724465175
C   C92       1.0  0.36040  0.75010  0.48880  1.0000 -0.157974044
C   C93       1.0  0.27350  0.74730  0.54160  1.0000 -0.1130882354
C   C94       1.0  0.81620  0.34220  0.17040  1.0000 0.5812594045
C   C95       1.0  0.76590  0.41810  0.20260  1.0000 -0.037827341
C   C96       1.0  0.74660  0.49390  0.15860  1.0000 -0.0938408481
C   C97       1.0  0.69770  0.56460  0.18860  1.0000 -0.157974044
C   C98       1.0  0.66410  0.56170  0.26160  1.0000 0.0724465175
C   C99       1.0  0.68220  0.48580  0.30620  1.0000 -0.15200983
C   C100      1.0  0.73480  0.41500  0.27630  1.0000 -0.0987476356
C   C101      1.0  0.78790  0.06960  0.17540  1.0000 0.5386378317
C   C102      1.0  0.73750  0.99830  0.20880  1.0000 -0.0322940537
C   C103      1.0  0.63660  0.00750  0.22810  1.0000 -0.0938408481
C   C104      1.0  0.59180  0.93940  0.25790  1.0000 -0.15200983
C   C105      1.0  0.64700  0.86080  0.26800  1.0000 0.0724465175
C   C106      1.0  0.74730  0.85200  0.25010  1.0000 -0.157974044
C   C107      1.0  0.79200  0.91960  0.22160  1.0000 -0.1152987233
C   C108      1.0  0.47340  0.71250  0.37300  1.0000 0.0812263351
C   C109      1.0  0.52410  0.63910  0.34590  1.0000 -0.2013958296
C   C110      1.0  0.61200  0.63800  0.29260  1.0000 0.0812263351
C   C111      1.0  0.64950  0.71040  0.26770  1.0000 -0.2013958296
C   C112      1.0  0.60310  0.78440  0.29550  1.0000 0.0873828157
C   C113      1.0  0.51460  0.78440  0.34780  1.0000 -0.2094681016
C   C114      1.0  0.89420  0.78310  0.91230  1.0000 0.5812594045
C   C115      1.0  0.79990  0.78630  0.96810  1.0000 -0.049708279
C   C116      1.0  0.77680  0.83700  0.02120  1.0000 -0.0987476356
C   C117      1.0  0.68910  0.83970  0.07190  1.0000 -0.15200983
C   C118      1.0  0.61900  0.79690  0.07020  1.0000 0.0812263351
C   C119      1.0  0.64410  0.74760  0.01770  1.0000 -0.15200983
C   C120      1.0  0.73170  0.74360  0.96770  1.0000 -0.0987476356
C   C121      1.0  0.20590  0.44950  0.32100  1.0000 0.5510673671
C   C122      1.0  0.25570  0.52150  0.28780  1.0000 -0.0212883326
C   C123      1.0  0.35610  0.51210  0.26940  1.0000 -0.0938408481
C   C124      1.0  0.40010  0.58000  0.24020  1.0000 -0.15200983
C   C125      1.0  0.34540  0.66030  0.22910  1.0000 0.0724465175
C   C126      1.0  0.24440  0.66900  0.24720  1.0000 -0.15200983
C   C127      1.0  0.20190  0.59930  0.27700  1.0000 -0.1130882354
C   C128      1.0  0.18890  0.17930  0.32410  1.0000 0.568729177
C   C129      1.0  0.24150  0.10340  0.29140  1.0000 -0.0212883326
C   C130      1.0  0.24920  0.02510  0.33510  1.0000 -0.0987476356
C   C131      1.0  0.29390  0.95450  0.30590  1.0000 -0.157974044
C   C132      1.0  0.33730  0.95890  0.23100  1.0000 0.0607936828
C   C133      1.0  0.33310  0.03520  0.19010  1.0000 -0.1441450865
C   C134      1.0  0.28560  0.10640  0.21610  1.0000 -0.1130882354
C   C135      1.0  0.52460  0.80070  0.12550  1.0000 0.0812263351
C   C136      1.0  0.48030  0.73180  0.15060  1.0000 -0.2013958296
C   C137      1.0  0.39140  0.73370  0.20210  1.0000 0.0873828157
C   C138      1.0  0.34500  0.80960  0.22730  1.0000 -0.2013958296
C   C139      1.0  0.38640  0.88010  0.20280  1.0000 0.0812263351
C   C140      1.0  0.47540  0.87640  0.15060  1.0000 -0.2013958296
N   N1        1.0  0.10120  0.31470  0.49640  1.0000 -0.2390104385
N   N2        1.0  0.90140  0.20430  0.99840  1.0000 -0.2339638622
N   N3        1.0  0.99420  0.11860  0.26470  1.0000 -0.2094681016
N   N4        1.0  0.98370  0.94940  0.29140  1.0000 -0.2013958296
N   N5        1.0  0.89880  0.68530  0.50360  1.0000 -0.2390104385
N   N6        1.0  0.09860  0.79570  0.00160  1.0000 -0.2339638622
N   N7        1.0  0.00580  0.88140  0.73530  1.0000 -0.2094681016
N   N8        1.0  0.01630  0.05060  0.70860  1.0000 -0.2013958296
O   O1        1.0  0.94970  0.33100  0.41580  1.0000 -0.5515237303
O   O2        1.0  0.90510  0.25490  0.35700  1.0000 -0.5689918847
O   O3        1.0  0.18340  0.65980  0.89230  1.0000 -0.5301950625
O   O4        1.0  0.14350  0.72140  0.79210  1.0000 -0.6025352628
O   O5        1.0  0.12060  0.94210  0.84080  1.0000 -0.5637667031
O   O6        1.0  0.26160  0.85890  0.83720  1.0000 -0.5360792132
O   O7        1.0  0.09350  0.26020  0.13580  1.0000 -0.5830855222
O   O8        1.0  0.04680  0.17420  0.08560  1.0000 -0.5689918847
O   O9        1.0  0.74460  0.62160  0.66560  1.0000 -0.5301950625
O   O10       1.0  0.88510  0.53920  0.66640  1.0000 -0.5689918847
O   O11       1.0  0.81310  0.82040  0.61290  1.0000 -0.5301950625
O   O12       1.0  0.85240  0.75950  0.71500  1.0000 -0.6025352628
O   O13       1.0  0.01910  0.39500  0.23240  1.0000 -0.6840557904
O   O14       1.0  0.05030  0.66900  0.58420  1.0000 -0.5515237303
O   O15       1.0  0.09490  0.74510  0.64300  1.0000 -0.5689918847
O   O16       1.0  0.81660  0.34020  0.10770  1.0000 -0.5301950625
O   O17       1.0  0.85650  0.27860  0.20790  1.0000 -0.6025352628
O   O18       1.0  0.87940  0.05790  0.15920  1.0000 -0.5637667031
O   O19       1.0  0.73840  0.14110  0.16280  1.0000 -0.5360792132
O   O20       1.0  0.90650  0.73980  0.86420  1.0000 -0.5830855222
O   O21       1.0  0.95320  0.82580  0.91440  1.0000 -0.5689918847
O   O22       1.0  0.25540  0.37840  0.33440  1.0000 -0.5301950625
O   O23       1.0  0.11490  0.46080  0.33360  1.0000 -0.5689918847
O   O24       1.0  0.18690  0.17960  0.38710  1.0000 -0.5301950625
O   O25       1.0  0.14760  0.24050  0.28500  1.0000 -0.6025352628
O   O26       1.0  0.98090  0.60500  0.76760  1.0000 -0.6840557904
