# DDEC6 charges by PACMAN v1.1 (https://github.com/mtap-research/PACMAN-charge/)
data_2018[Gd][rtl]3[FSR]1
_chemical_formula_sum              "Gd4 P4 H60 C84 N4 O44"
_cell_length_a       11.6158
_cell_length_b       17.606
_cell_length_c       18.6776
_cell_angle_alpha    90
_cell_angle_beta     127.141
_cell_angle_gamma    90

_symmetry_space_group_name_H-M    "P 1"
_symmetry_Int_Tables_number       1

loop_
  _symmetry_equiv_pos_as_xyz
  'x, y, z'

loop_
  _atom_site_type_symbol
  _atom_site_label
  _atom_site_symmetry_multiplicity
  _atom_site_fract_x
  _atom_site_fract_y
  _atom_site_fract_z
  _atom_site_occupancy
  _atom_site_charge
Gd  Gd1       1.0  0.51290  0.42874  0.59229  1.0000 2.0208219298
Gd  Gd2       1.0  0.48710  0.92874  0.90771  1.0000 2.0208219298
Gd  Gd3       1.0  0.48710  0.57126  0.40771  1.0000 2.0208219298
Gd  Gd4       1.0  0.51290  0.07126  0.09229  1.0000 2.0208219298
P   P1        1.0  0.41410  0.41942  0.75099  1.0000 0.8876946279
P   P2        1.0  0.58590  0.91942  0.74901  1.0000 0.8876946279
P   P3        1.0  0.58590  0.58058  0.24901  1.0000 0.8876946279
P   P4        1.0  0.41410  0.08058  0.25099  1.0000 0.8876946279
H   H1        1.0  0.01470  0.65650  0.12760  1.0000 0.3500624035
H   H2        1.0  0.37530  0.28590  0.51810  1.0000 0.3500624035
H   H3        1.0  0.32260  0.30990  0.56420  1.0000 0.3500624035
H   H4        1.0  0.19970  0.51610  0.61710  1.0000 0.1295899907
H   H5        1.0  0.96070  0.54090  0.55210  1.0000 0.1205449697
H   H6        1.0  0.97830  0.39990  0.72560  1.0000 0.1205449697
H   H7        1.0  0.21760  0.37340  0.78970  1.0000 0.110962773
H   H8        1.0  0.71330  0.44840  0.85610  1.0000 0.1295899907
H   H9        1.0  0.87210  0.53030  0.97100  1.0000 0.1205449697
H   H10       1.0  0.54830  0.62480  0.95710  1.0000 0.1205449697
H   H11       1.0  0.38800  0.54200  0.84380  1.0000 0.1205449697
H   H12       1.0  0.39040  0.27290  0.68580  1.0000 0.110962773
H   H13       1.0  0.39620  0.15080  0.73340  1.0000 0.1205449697
H   H14       1.0  0.52540  0.23140  0.97150  1.0000 0.1295899907
H   H15       1.0  0.51800  0.35430  0.92390  1.0000 0.110962773
H   H16       1.0  0.98530  0.15650  0.37240  1.0000 0.3500624035
H   H17       1.0  0.62470  0.78590  0.98190  1.0000 0.3500624035
H   H18       1.0  0.67740  0.80990  0.93580  1.0000 0.3500624035
H   H19       1.0  0.80030  0.01610  0.88290  1.0000 0.1295899907
H   H20       1.0  0.03930  0.04090  0.94790  1.0000 0.1205449697
H   H21       1.0  0.02170  0.89990  0.77440  1.0000 0.1205449697
H   H22       1.0  0.78240  0.87340  0.71030  1.0000 0.110962773
H   H23       1.0  0.28670  0.94840  0.64390  1.0000 0.1295899907
H   H24       1.0  0.12790  0.03030  0.52900  1.0000 0.1205449697
H   H25       1.0  0.45170  0.12480  0.54290  1.0000 0.1205449697
H   H26       1.0  0.61200  0.04200  0.65620  1.0000 0.1205449697
H   H27       1.0  0.60960  0.77290  0.81420  1.0000 0.110962773
H   H28       1.0  0.60380  0.65080  0.76660  1.0000 0.1205449697
H   H29       1.0  0.47460  0.73140  0.52850  1.0000 0.1295899907
H   H30       1.0  0.48200  0.85430  0.57610  1.0000 0.110962773
H   H31       1.0  0.98530  0.34350  0.87240  1.0000 0.3500624035
H   H32       1.0  0.62470  0.71410  0.48190  1.0000 0.3500624035
H   H33       1.0  0.67740  0.69010  0.43580  1.0000 0.3500624035
H   H34       1.0  0.80030  0.48390  0.38290  1.0000 0.1295899907
H   H35       1.0  0.03930  0.45910  0.44790  1.0000 0.1205449697
H   H36       1.0  0.02170  0.60010  0.27440  1.0000 0.1205449697
H   H37       1.0  0.78240  0.62660  0.21030  1.0000 0.110962773
H   H38       1.0  0.28670  0.55160  0.14390  1.0000 0.1295899907
H   H39       1.0  0.12790  0.46970  0.02900  1.0000 0.1205449697
H   H40       1.0  0.45170  0.37520  0.04290  1.0000 0.1205449697
H   H41       1.0  0.61200  0.45800  0.15620  1.0000 0.1205449697
H   H42       1.0  0.60960  0.72710  0.31420  1.0000 0.110962773
H   H43       1.0  0.60380  0.84920  0.26660  1.0000 0.1205449697
H   H44       1.0  0.47460  0.76860  0.02850  1.0000 0.1295899907
H   H45       1.0  0.48200  0.64570  0.07610  1.0000 0.110962773
H   H46       1.0  0.01470  0.84350  0.62760  1.0000 0.3500624035
H   H47       1.0  0.37530  0.21410  0.01810  1.0000 0.3500624035
H   H48       1.0  0.32260  0.19010  0.06420  1.0000 0.3500624035
H   H49       1.0  0.19970  0.98390  0.11710  1.0000 0.1295899907
H   H50       1.0  0.96070  0.95910  0.05210  1.0000 0.1205449697
H   H51       1.0  0.97830  0.10010  0.22560  1.0000 0.1205449697
H   H52       1.0  0.21760  0.12660  0.28970  1.0000 0.110962773
H   H53       1.0  0.71330  0.05160  0.35610  1.0000 0.1295899907
H   H54       1.0  0.87210  0.96970  0.47100  1.0000 0.1205449697
H   H55       1.0  0.54830  0.87520  0.45710  1.0000 0.1205449697
H   H56       1.0  0.38800  0.95800  0.34380  1.0000 0.1205449697
H   H57       1.0  0.39040  0.22710  0.18580  1.0000 0.110962773
H   H58       1.0  0.39620  0.34920  0.23340  1.0000 0.1205449697
H   H59       1.0  0.52540  0.26860  0.47150  1.0000 0.1295899907
H   H60       1.0  0.51800  0.14570  0.42390  1.0000 0.110962773
C   C1        1.0  0.23221  0.44172  0.70891  1.0000 -0.1579608499
C   C2        1.0  0.15495  0.49181  0.63855  1.0000 -0.0800422347
C   C3        1.0  0.01152  0.50649  0.59932  1.0000 -0.1005910869
C   C4        1.0  0.94341  0.47064  0.62961  1.0000 -0.0087712127
C   C5        1.0  0.02210  0.42230  0.70260  1.0000 -0.090007002
C   C6        1.0  0.16590  0.40700  0.74160  1.0000 -0.090007002
C   C7        1.0  0.78533  0.48262  0.58353  1.0000 0.6390473851
C   C8        1.0  0.53451  0.48502  0.83961  1.0000 -0.1435352108
C   C9        1.0  0.67950  0.48311  0.87700  1.0000 -0.0616995581
C   C10       1.0  0.77440  0.53270  0.94540  1.0000 -0.1005910869
C   C11       1.0  0.72640  0.58577  0.97620  1.0000 -0.0288430649
C   C12       1.0  0.58220  0.58880  0.93750  1.0000 -0.1005910869
C   C13       1.0  0.48580  0.53910  0.86950  1.0000 -0.090007002
C   C14       1.0  0.82567  0.63955  0.05097  1.0000 0.5383005747
C   C15       1.0  0.44922  0.32579  0.79902  1.0000 -0.1458681306
C   C16       1.0  0.41555  0.26476  0.74285  1.0000 -0.090007002
C   C17       1.0  0.41927  0.19175  0.77137  1.0000 -0.090007002
C   C18       1.0  0.45704  0.17935  0.85604  1.0000 -0.0087712127
C   C19       1.0  0.49620  0.23988  0.91360  1.0000 -0.090007002
C   C20       1.0  0.49216  0.31349  0.88526  1.0000 -0.090007002
C   C21       1.0  0.45600  0.10001  0.88420  1.0000 0.6287608155
C   C22       1.0  0.76779  0.94172  0.79109  1.0000 -0.1579608499
C   C23       1.0  0.84505  0.99181  0.86145  1.0000 -0.0800422347
C   C24       1.0  0.98848  0.00649  0.90068  1.0000 -0.1005910869
C   C25       1.0  0.05659  0.97064  0.87039  1.0000 -0.0087712127
C   C26       1.0  0.97790  0.92230  0.79740  1.0000 -0.090007002
C   C27       1.0  0.83410  0.90700  0.75840  1.0000 -0.090007002
C   C28       1.0  0.21467  0.98262  0.91647  1.0000 0.6390473851
C   C29       1.0  0.46549  0.98502  0.66039  1.0000 -0.1435352108
C   C30       1.0  0.32050  0.98311  0.62300  1.0000 -0.0616995581
C   C31       1.0  0.22560  0.03270  0.55460  1.0000 -0.1005910869
C   C32       1.0  0.27360  0.08577  0.52380  1.0000 -0.0288430649
C   C33       1.0  0.41780  0.08880  0.56250  1.0000 -0.1005910869
C   C34       1.0  0.51420  0.03910  0.63050  1.0000 -0.090007002
C   C35       1.0  0.17433  0.13955  0.44903  1.0000 0.5383005747
C   C36       1.0  0.55078  0.82579  0.70098  1.0000 -0.1458681306
C   C37       1.0  0.58445  0.76476  0.75715  1.0000 -0.090007002
C   C38       1.0  0.58073  0.69175  0.72863  1.0000 -0.090007002
C   C39       1.0  0.54296  0.67935  0.64396  1.0000 -0.0087712127
C   C40       1.0  0.50380  0.73988  0.58640  1.0000 -0.090007002
C   C41       1.0  0.50784  0.81349  0.61474  1.0000 -0.090007002
C   C42       1.0  0.54400  0.60001  0.61580  1.0000 0.6287608155
C   C43       1.0  0.76779  0.55828  0.29109  1.0000 -0.1579608499
C   C44       1.0  0.84505  0.50819  0.36145  1.0000 -0.0800422347
C   C45       1.0  0.98848  0.49351  0.40068  1.0000 -0.1005910869
C   C46       1.0  0.05659  0.52936  0.37039  1.0000 -0.0087712127
C   C47       1.0  0.97790  0.57770  0.29740  1.0000 -0.090007002
C   C48       1.0  0.83410  0.59300  0.25840  1.0000 -0.090007002
C   C49       1.0  0.21467  0.51738  0.41647  1.0000 0.6390473851
C   C50       1.0  0.46549  0.51498  0.16039  1.0000 -0.1435352108
C   C51       1.0  0.32050  0.51689  0.12300  1.0000 -0.0616995581
C   C52       1.0  0.22560  0.46730  0.05460  1.0000 -0.1005910869
C   C53       1.0  0.27360  0.41423  0.02380  1.0000 -0.0288430649
C   C54       1.0  0.41780  0.41120  0.06250  1.0000 -0.1005910869
C   C55       1.0  0.51420  0.46090  0.13050  1.0000 -0.090007002
C   C56       1.0  0.17433  0.36045  0.94903  1.0000 0.5383005747
C   C57       1.0  0.55078  0.67421  0.20098  1.0000 -0.1458681306
C   C58       1.0  0.58445  0.73524  0.25715  1.0000 -0.090007002
C   C59       1.0  0.58073  0.80825  0.22863  1.0000 -0.090007002
C   C60       1.0  0.54296  0.82065  0.14396  1.0000 -0.0087712127
C   C61       1.0  0.50380  0.76012  0.08640  1.0000 -0.090007002
C   C62       1.0  0.50784  0.68651  0.11474  1.0000 -0.090007002
C   C63       1.0  0.54400  0.89999  0.11580  1.0000 0.6287608155
C   C64       1.0  0.23221  0.05828  0.20891  1.0000 -0.1579608499
C   C65       1.0  0.15495  0.00819  0.13855  1.0000 -0.0800422347
C   C66       1.0  0.01152  0.99351  0.09932  1.0000 -0.1005910869
C   C67       1.0  0.94341  0.02936  0.12961  1.0000 -0.0087712127
C   C68       1.0  0.02210  0.07770  0.20260  1.0000 -0.090007002
C   C69       1.0  0.16590  0.09300  0.24160  1.0000 -0.090007002
C   C70       1.0  0.78533  0.01738  0.08353  1.0000 0.6390473851
C   C71       1.0  0.53451  0.01498  0.33961  1.0000 -0.1458681306
C   C72       1.0  0.67950  0.01689  0.37700  1.0000 -0.0616995581
C   C73       1.0  0.77440  0.96730  0.44540  1.0000 -0.1005910869
C   C74       1.0  0.72640  0.91423  0.47620  1.0000 -0.0288430649
C   C75       1.0  0.58220  0.91120  0.43750  1.0000 -0.1005910869
C   C76       1.0  0.48580  0.96090  0.36950  1.0000 -0.090007002
C   C77       1.0  0.82567  0.86045  0.55097  1.0000 0.5383005747
C   C78       1.0  0.44922  0.17421  0.29902  1.0000 -0.1458681306
C   C79       1.0  0.41555  0.23524  0.24285  1.0000 -0.090007002
C   C80       1.0  0.41927  0.30825  0.27137  1.0000 -0.090007002
C   C81       1.0  0.45704  0.32065  0.35604  1.0000 -0.0087712127
C   C82       1.0  0.49620  0.26012  0.41360  1.0000 -0.090007002
C   C83       1.0  0.49216  0.18651  0.38526  1.0000 -0.090007002
C   C84       1.0  0.45600  0.39999  0.38420  1.0000 0.6287608155
N   N1        1.0  0.73930  0.31707  0.71630  1.0000 0.6932018706
N   N2        1.0  0.26070  0.81707  0.78370  1.0000 0.6932018706
N   N3        1.0  0.26070  0.68293  0.28370  1.0000 0.6932018706
N   N4        1.0  0.73930  0.18293  0.21630  1.0000 0.6932018706
O   O1        1.0  0.42696  0.41991  0.67636  1.0000 -0.7616101495
O   O2        1.0  0.71460  0.51480  0.50857  1.0000 -0.6355456851
O   O3        1.0  0.73575  0.45947  0.62336  1.0000 -0.6533327541
O   O4        1.0  0.96284  0.62783  0.08494  1.0000 -0.4554103306
O   O5        1.0  0.78665  0.68745  0.07805  1.0000 -0.4855859122
O   O6        1.0  0.47835  0.08922  0.95819  1.0000 -0.7103916547
O   O7        1.0  0.43332  0.04689  0.83263  1.0000 -0.6051121941
O   O8        1.0  0.71479  0.37293  0.74536  1.0000 -0.4502613621
O   O9        1.0  0.65222  0.30432  0.63422  1.0000 -0.4783907872
O   O10       1.0  0.84799  0.27885  0.76719  1.0000 -0.3674940756
O   O11       1.0  0.33948  0.32324  0.52754  1.0000 -0.7393699279
O   O12       1.0  0.57304  0.91991  0.82364  1.0000 -0.7616101495
O   O13       1.0  0.28540  0.01480  0.99143  1.0000 -0.6355456851
O   O14       1.0  0.26425  0.95947  0.87664  1.0000 -0.6533327541
O   O15       1.0  0.03716  0.12783  0.41506  1.0000 -0.4502613621
O   O16       1.0  0.21335  0.18745  0.42195  1.0000 -0.4783907872
O   O17       1.0  0.52165  0.58922  0.54181  1.0000 -0.7103916547
O   O18       1.0  0.56668  0.54689  0.66737  1.0000 -0.6051121941
O   O19       1.0  0.28521  0.87293  0.75464  1.0000 -0.4502613621
O   O20       1.0  0.34778  0.80432  0.86578  1.0000 -0.4783907872
O   O21       1.0  0.15201  0.77885  0.73281  1.0000 -0.3674940756
O   O22       1.0  0.66052  0.82324  0.97246  1.0000 -0.7393699279
O   O23       1.0  0.57304  0.58009  0.32364  1.0000 -0.7616101495
O   O24       1.0  0.28540  0.48520  0.49143  1.0000 -0.6355456851
O   O25       1.0  0.26425  0.54053  0.37664  1.0000 -0.6533327541
O   O26       1.0  0.03716  0.37217  0.91506  1.0000 -0.4502613621
O   O27       1.0  0.21335  0.31255  0.92195  1.0000 -0.4855859122
O   O28       1.0  0.52165  0.91078  0.04181  1.0000 -0.7103916547
O   O29       1.0  0.56668  0.95311  0.16737  1.0000 -0.6051121941
O   O30       1.0  0.28521  0.62707  0.25464  1.0000 -0.4502613621
O   O31       1.0  0.34778  0.69568  0.36578  1.0000 -0.4783907872
O   O32       1.0  0.15201  0.72115  0.23281  1.0000 -0.3674940756
O   O33       1.0  0.66052  0.67676  0.47246  1.0000 -0.7393699279
O   O34       1.0  0.42696  0.08009  0.17636  1.0000 -0.7616101495
O   O35       1.0  0.71460  0.98520  0.00857  1.0000 -0.6355456851
O   O36       1.0  0.73575  0.04053  0.12336  1.0000 -0.6533327541
O   O37       1.0  0.96284  0.87217  0.58494  1.0000 -0.4502613621
O   O38       1.0  0.78665  0.81255  0.57805  1.0000 -0.4783907872
O   O39       1.0  0.47835  0.41078  0.45819  1.0000 -0.7103916547
O   O40       1.0  0.43332  0.45311  0.33263  1.0000 -0.6051121941
O   O41       1.0  0.71479  0.12707  0.24536  1.0000 -0.4502613621
O   O42       1.0  0.65222  0.19568  0.13422  1.0000 -0.4783907872
O   O43       1.0  0.84799  0.22115  0.26719  1.0000 -0.3674940756
O   O44       1.0  0.33948  0.17676  0.02754  1.0000 -0.7393699279
