# DDEC6 charges by PACMAN v1.1 (https://github.com/mtap-research/PACMAN-charge/)
data_2018[FeZn][nuc]3[FSR]1
_chemical_formula_sum              "O64 C120 H80 Zn8 Fe4"
_cell_length_a       11.0038
_cell_length_b       11.0038
_cell_length_c       47.139
_cell_angle_alpha    90
_cell_angle_beta     90
_cell_angle_gamma    90

_symmetry_space_group_name_H-M    "P 1"
_symmetry_Int_Tables_number       1

loop_
  _symmetry_equiv_pos_as_xyz
  'x, y, z'

loop_
  _atom_site_type_symbol
  _atom_site_label
  _atom_site_symmetry_multiplicity
  _atom_site_fract_x
  _atom_site_fract_y
  _atom_site_fract_z
  _atom_site_occupancy
  _atom_site_charge
O   O1        1.0  0.76990  0.03270  0.49610  1.0000 -0.532738136
O   O2        1.0  0.85430  0.18370  0.47176  1.0000 -0.5535232764
O   O3        1.0  0.58750  0.39650  0.29382  1.0000 -0.5581559691
O   O4        1.0  0.30510  0.05270  0.49938  1.0000 -0.532738136
O   O5        1.0  0.21730  0.17240  0.46672  1.0000 -0.5535232764
C   C1        1.0  0.76580  0.11630  0.47899  1.0000 0.5868674885
C   C2        1.0  0.30760  0.12030  0.47777  1.0000 0.5978538651
O   O6        1.0  0.47370  0.55040  0.31058  1.0000 -0.5377995719
C   C3        1.0  0.64530  0.14990  0.46507  1.0000 -0.0122962691
C   C4        1.0  0.64880  0.20850  0.43891  1.0000 -0.1564955939
H   H1        1.0  0.72280  0.22970  0.43080  1.0000 0.1191689994
C   C5        1.0  0.42930  0.14840  0.46463  1.0000 -0.0228722125
C   C6        1.0  0.53890  0.39890  0.34277  1.0000 -0.0268274826
C   C7        1.0  0.53500  0.45320  0.31319  1.0000 0.5978538651
C   C8        1.0  0.54050  0.29560  0.39670  1.0000 0.0802982129
H   H2        1.0  0.74670  0.74700  0.48530  1.0000 0.3807662964
C   C9        1.0  0.43070  0.20660  0.43802  1.0000 -0.1476836871
H   H3        1.0  0.35790  0.22620  0.42910  1.0000 0.1191689994
C   C10       1.0  0.54030  0.23490  0.42510  1.0000 0.068542346
C   C11       1.0  0.45610  0.43630  0.36273  1.0000 -0.0976933673
H   H4        1.0  0.39990  0.49670  0.35840  1.0000 0.1191689994
C   C12       1.0  0.53620  0.11670  0.47744  1.0000 -0.1295643415
H   H5        1.0  0.53560  0.07320  0.49440  1.0000 0.1191689994
C   C13       1.0  0.62400  0.31380  0.34935  1.0000 -0.0976933673
H   H6        1.0  0.68010  0.28930  0.33570  1.0000 0.1191689994
C   C14       1.0  0.45720  0.38230  0.38960  1.0000 -0.1435752068
H   H7        1.0  0.39970  0.40620  0.40300  1.0000 0.1136526135
C   C15       1.0  0.62710  0.26370  0.37618  1.0000 -0.1476836871
H   H8        1.0  0.68760  0.20790  0.38070  1.0000 0.1191689994
O   O7        1.0  0.03190  0.30390  0.44229  1.0000 -0.6196485613
H   H9        1.0  0.03210  0.29350  0.42440  1.0000 0.3704489578
H   H10       1.0  0.03000  0.37950  0.44590  1.0000 0.3807662964
Zn  Zn1       1.0  0.03509  0.16323  0.47280  1.0000 1.2334224876
Fe  Fe1       1.0  0.16323  0.03509  0.52720  1.0000 1.047975212
O   O8        1.0  0.23010  0.96730  0.99610  1.0000 -0.532738136
O   O9        1.0  0.14570  0.81630  0.97176  1.0000 -0.5535232764
O   O10       1.0  0.41250  0.60350  0.79382  1.0000 -0.5581559691
O   O11       1.0  0.69490  0.94730  0.99938  1.0000 -0.532738136
O   O12       1.0  0.78270  0.82760  0.96672  1.0000 -0.5535232764
C   C16       1.0  0.23420  0.88370  0.97899  1.0000 0.5868674885
C   C17       1.0  0.69240  0.87970  0.97777  1.0000 0.5978538651
O   O13       1.0  0.52630  0.44960  0.81058  1.0000 -0.5377995719
C   C18       1.0  0.35470  0.85010  0.96507  1.0000 -0.0122962691
C   C19       1.0  0.35120  0.79150  0.93891  1.0000 -0.1564955939
H   H11       1.0  0.27720  0.77030  0.93080  1.0000 0.1191689994
C   C20       1.0  0.57070  0.85160  0.96463  1.0000 -0.0228722125
C   C21       1.0  0.46110  0.60110  0.84277  1.0000 -0.0268274826
C   C22       1.0  0.46500  0.54680  0.81319  1.0000 0.5978538651
C   C23       1.0  0.45950  0.70440  0.89670  1.0000 0.0802982129
H   H12       1.0  0.25330  0.25300  0.98530  1.0000 0.3807662964
C   C24       1.0  0.56930  0.79340  0.93802  1.0000 -0.1476836871
H   H13       1.0  0.64210  0.77380  0.92910  1.0000 0.1191689994
C   C25       1.0  0.45970  0.76510  0.92510  1.0000 0.068542346
C   C26       1.0  0.54390  0.56370  0.86273  1.0000 -0.0976933673
H   H14       1.0  0.60010  0.50330  0.85840  1.0000 0.1191689994
C   C27       1.0  0.46380  0.88330  0.97744  1.0000 -0.1295643415
H   H15       1.0  0.46440  0.92680  0.99440  1.0000 0.1191689994
C   C28       1.0  0.37600  0.68620  0.84935  1.0000 -0.0976933673
H   H16       1.0  0.31990  0.71070  0.83570  1.0000 0.1191689994
C   C29       1.0  0.54280  0.61770  0.88960  1.0000 -0.1435752068
H   H17       1.0  0.60030  0.59380  0.90300  1.0000 0.1136526135
C   C30       1.0  0.37290  0.73630  0.87618  1.0000 -0.1476836871
H   H18       1.0  0.31240  0.79210  0.88070  1.0000 0.1191689994
O   O14       1.0  0.96810  0.69610  0.94229  1.0000 -0.6196485613
H   H19       1.0  0.96790  0.70650  0.92440  1.0000 0.3704489578
H   H20       1.0  0.97000  0.62050  0.94590  1.0000 0.3807662964
Zn  Zn2       1.0  0.96491  0.83677  0.97280  1.0000 1.2403816279
Fe  Fe2       1.0  0.83677  0.96491  0.02720  1.0000 1.043823808
O   O15       1.0  0.46730  0.26990  0.24610  1.0000 -0.532738136
O   O16       1.0  0.31630  0.35430  0.22176  1.0000 -0.5535232764
O   O17       1.0  0.10350  0.08750  0.04382  1.0000 -0.5581559691
O   O18       1.0  0.44730  0.80510  0.24938  1.0000 -0.532738136
O   O19       1.0  0.32760  0.71730  0.21672  1.0000 -0.5535232764
C   C31       1.0  0.38370  0.26580  0.22899  1.0000 0.5868674885
C   C32       1.0  0.37970  0.80760  0.22777  1.0000 0.5978538651
O   O20       1.0  0.94960  0.97370  0.06058  1.0000 -0.5377995719
C   C33       1.0  0.35010  0.14530  0.21507  1.0000 -0.0122962691
C   C34       1.0  0.29150  0.14880  0.18891  1.0000 -0.1564955939
H   H21       1.0  0.27030  0.22280  0.18080  1.0000 0.1191689994
C   C35       1.0  0.35160  0.92930  0.21463  1.0000 -0.0228722125
C   C36       1.0  0.10110  0.03890  0.09277  1.0000 -0.0268274826
C   C37       1.0  0.04680  0.03500  0.06319  1.0000 0.5978538651
C   C38       1.0  0.20440  0.04050  0.14670  1.0000 0.0802982129
H   H22       1.0  0.75300  0.24670  0.23530  1.0000 0.3807662964
C   C39       1.0  0.29340  0.93070  0.18802  1.0000 -0.1476836871
H   H23       1.0  0.27380  0.85790  0.17910  1.0000 0.1191689994
C   C40       1.0  0.26510  0.04030  0.17510  1.0000 0.068542346
C   C41       1.0  0.06370  0.95610  0.11273  1.0000 -0.0976933673
H   H24       1.0  0.00330  0.89990  0.10840  1.0000 0.1191689994
C   C42       1.0  0.38330  0.03620  0.22744  1.0000 -0.1295643415
H   H25       1.0  0.42680  0.03560  0.24440  1.0000 0.1191689994
C   C43       1.0  0.18620  0.12400  0.09935  1.0000 -0.0976933673
H   H26       1.0  0.21070  0.18010  0.08570  1.0000 0.1191689994
C   C44       1.0  0.11770  0.95720  0.13960  1.0000 -0.1435752068
H   H27       1.0  0.09380  0.89970  0.15300  1.0000 0.1136526135
C   C45       1.0  0.23630  0.12710  0.12618  1.0000 -0.1476836871
H   H28       1.0  0.29210  0.18760  0.13070  1.0000 0.1191689994
O   O21       1.0  0.19610  0.53190  0.19229  1.0000 -0.6196485613
H   H29       1.0  0.20650  0.53210  0.17440  1.0000 0.3704489578
H   H30       1.0  0.12050  0.53000  0.19590  1.0000 0.3807662964
Zn  Zn3       1.0  0.33677  0.53509  0.22280  1.0000 1.2334224876
Fe  Fe3       1.0  0.46491  0.66323  0.27720  1.0000 1.043823808
O   O22       1.0  0.53270  0.73010  0.74610  1.0000 -0.532738136
O   O23       1.0  0.68370  0.64570  0.72176  1.0000 -0.5535232764
O   O24       1.0  0.89650  0.91250  0.54382  1.0000 -0.5581559691
O   O25       1.0  0.55270  0.19490  0.74938  1.0000 -0.532738136
O   O26       1.0  0.67240  0.28270  0.71672  1.0000 -0.5535232764
C   C46       1.0  0.61630  0.73420  0.72899  1.0000 0.5868674885
C   C47       1.0  0.62030  0.19240  0.72777  1.0000 0.5978538651
O   O27       1.0  0.05040  0.02630  0.56058  1.0000 -0.5377995719
C   C48       1.0  0.64990  0.85470  0.71507  1.0000 -0.0122962691
C   C49       1.0  0.70850  0.85120  0.68891  1.0000 -0.1564955939
H   H31       1.0  0.72970  0.77720  0.68080  1.0000 0.1191689994
C   C50       1.0  0.64840  0.07070  0.71463  1.0000 -0.0228722125
C   C51       1.0  0.89890  0.96110  0.59277  1.0000 -0.0268274826
C   C52       1.0  0.95320  0.96500  0.56319  1.0000 0.5978538651
C   C53       1.0  0.79560  0.95950  0.64670  1.0000 0.0802982129
H   H32       1.0  0.24700  0.75330  0.73530  1.0000 0.3807662964
C   C54       1.0  0.70660  0.06930  0.68802  1.0000 -0.1476836871
H   H33       1.0  0.72620  0.14210  0.67910  1.0000 0.1191689994
C   C55       1.0  0.73490  0.95970  0.67510  1.0000 0.068542346
C   C56       1.0  0.93630  0.04390  0.61273  1.0000 -0.0976933673
H   H34       1.0  0.99670  0.10010  0.60840  1.0000 0.1191689994
C   C57       1.0  0.61670  0.96380  0.72744  1.0000 -0.1295643415
H   H35       1.0  0.57320  0.96440  0.74440  1.0000 0.1191689994
C   C58       1.0  0.81380  0.87600  0.59935  1.0000 -0.0976933673
H   H36       1.0  0.78930  0.81990  0.58570  1.0000 0.1191689994
C   C59       1.0  0.88230  0.04280  0.63960  1.0000 -0.1435752068
H   H37       1.0  0.90620  0.10030  0.65300  1.0000 0.1136526135
C   C60       1.0  0.76370  0.87290  0.62618  1.0000 -0.1476836871
H   H38       1.0  0.70790  0.81240  0.63070  1.0000 0.1191689994
O   O28       1.0  0.80390  0.46810  0.69229  1.0000 -0.6196485613
H   H39       1.0  0.79350  0.46790  0.67440  1.0000 0.3704489578
H   H40       1.0  0.87950  0.47000  0.69590  1.0000 0.3807662964
Zn  Zn4       1.0  0.66323  0.46491  0.72280  1.0000 1.2403816279
Fe  Fe4       1.0  0.53509  0.33677  0.77720  1.0000 1.047975212
O   O29       1.0  0.73010  0.53270  0.25390  1.0000 -0.5377995719
O   O30       1.0  0.64570  0.68370  0.27824  1.0000 -0.5377995719
O   O31       1.0  0.91250  0.89650  0.45618  1.0000 -0.5581559691
O   O32       1.0  0.19490  0.55270  0.25062  1.0000 -0.5535232764
O   O33       1.0  0.28270  0.67240  0.28328  1.0000 -0.532738136
C   C61       1.0  0.73420  0.61630  0.27101  1.0000 0.5868674885
C   C62       1.0  0.19240  0.62030  0.27223  1.0000 0.5978538651
O   O34       1.0  0.02630  0.05040  0.43942  1.0000 -0.5535232764
C   C63       1.0  0.85470  0.64990  0.28493  1.0000 -0.0122962691
C   C64       1.0  0.85120  0.70850  0.31109  1.0000 -0.1476836871
H   H41       1.0  0.77720  0.72970  0.31920  1.0000 0.1191689994
C   C65       1.0  0.07070  0.64840  0.28537  1.0000 -0.0228722125
C   C66       1.0  0.96110  0.89890  0.40723  1.0000 -0.0268274826
C   C67       1.0  0.96500  0.95320  0.43681  1.0000 0.5978538651
C   C68       1.0  0.95950  0.79560  0.35330  1.0000 0.0802982129
H   H42       1.0  0.75330  0.24700  0.26470  1.0000 0.3807662964
C   C69       1.0  0.06930  0.70660  0.31198  1.0000 -0.1476836871
H   H43       1.0  0.14210  0.72620  0.32090  1.0000 0.1191689994
C   C70       1.0  0.95970  0.73490  0.32490  1.0000 0.068542346
C   C71       1.0  0.04390  0.93630  0.38727  1.0000 -0.0976933673
H   H44       1.0  0.10010  0.99670  0.39160  1.0000 0.1191689994
C   C72       1.0  0.96380  0.61670  0.27256  1.0000 -0.1295643415
H   H45       1.0  0.96440  0.57320  0.25560  1.0000 0.1191689994
C   C73       1.0  0.87600  0.81380  0.40065  1.0000 -0.0976933673
H   H46       1.0  0.81990  0.78930  0.41430  1.0000 0.1191689994
C   C74       1.0  0.04280  0.88230  0.36040  1.0000 -0.1435752068
H   H47       1.0  0.10030  0.90620  0.34700  1.0000 0.1136526135
C   C75       1.0  0.87290  0.76370  0.37382  1.0000 -0.1476836871
H   H48       1.0  0.81240  0.70790  0.36930  1.0000 0.1191689994
O   O35       1.0  0.46810  0.80390  0.30771  1.0000 -0.6196485613
H   H49       1.0  0.46790  0.79350  0.32560  1.0000 0.3704489578
H   H50       1.0  0.47000  0.87950  0.30410  1.0000 0.3807662964
O   O36       1.0  0.26990  0.46730  0.75390  1.0000 -0.532738136
O   O37       1.0  0.35430  0.31630  0.77824  1.0000 -0.5377995719
O   O38       1.0  0.08750  0.10350  0.95618  1.0000 -0.5581559691
O   O39       1.0  0.80510  0.44730  0.75062  1.0000 -0.5535232764
O   O40       1.0  0.71730  0.32760  0.78328  1.0000 -0.5377995719
C   C76       1.0  0.26580  0.38370  0.77101  1.0000 0.5868674885
C   C77       1.0  0.80760  0.37970  0.77223  1.0000 0.5978538651
O   O41       1.0  0.97370  0.94960  0.93942  1.0000 -0.5535232764
C   C78       1.0  0.14530  0.35010  0.78493  1.0000 -0.0122962691
C   C79       1.0  0.14880  0.29150  0.81109  1.0000 -0.1476836871
H   H51       1.0  0.22280  0.27030  0.81920  1.0000 0.1191689994
C   C80       1.0  0.92930  0.35160  0.78537  1.0000 -0.0228722125
C   C81       1.0  0.03890  0.10110  0.90723  1.0000 -0.0268274826
C   C82       1.0  0.03500  0.04680  0.93681  1.0000 0.5978538651
C   C83       1.0  0.04050  0.20440  0.85330  1.0000 0.0802982129
H   H52       1.0  0.24670  0.75300  0.76470  1.0000 0.3807662964
C   C84       1.0  0.93070  0.29340  0.81198  1.0000 -0.1476836871
H   H53       1.0  0.85790  0.27380  0.82090  1.0000 0.1191689994
C   C85       1.0  0.04030  0.26510  0.82490  1.0000 0.068542346
C   C86       1.0  0.95610  0.06370  0.88727  1.0000 -0.0976933673
H   H54       1.0  0.89990  0.00330  0.89160  1.0000 0.1191689994
C   C87       1.0  0.03620  0.38330  0.77256  1.0000 -0.1295643415
H   H55       1.0  0.03560  0.42680  0.75560  1.0000 0.1191689994
C   C88       1.0  0.12400  0.18620  0.90065  1.0000 -0.0976933673
H   H56       1.0  0.18010  0.21070  0.91430  1.0000 0.1191689994
C   C89       1.0  0.95720  0.11770  0.86040  1.0000 -0.1435752068
H   H57       1.0  0.89970  0.09380  0.84700  1.0000 0.1136526135
C   C90       1.0  0.12710  0.23630  0.87382  1.0000 -0.1476836871
H   H58       1.0  0.18760  0.29210  0.86930  1.0000 0.1191689994
O   O42       1.0  0.53190  0.19610  0.80771  1.0000 -0.6196485613
H   H59       1.0  0.53210  0.20650  0.82560  1.0000 0.3704489578
H   H60       1.0  0.53000  0.12050  0.80410  1.0000 0.3807662964
O   O43       1.0  0.03270  0.76990  0.50390  1.0000 -0.5377995719
O   O44       1.0  0.18370  0.85430  0.52824  1.0000 -0.5377995719
O   O45       1.0  0.39650  0.58750  0.70618  1.0000 -0.5581559691
O   O46       1.0  0.05270  0.30510  0.50062  1.0000 -0.5535232764
O   O47       1.0  0.17240  0.21730  0.53328  1.0000 -0.5377995719
C   C91       1.0  0.11630  0.76580  0.52101  1.0000 0.5868674885
C   C92       1.0  0.12030  0.30760  0.52223  1.0000 0.5978538651
O   O48       1.0  0.55040  0.47370  0.68942  1.0000 -0.5535232764
C   C93       1.0  0.14990  0.64530  0.53493  1.0000 -0.0122962691
C   C94       1.0  0.20850  0.64880  0.56109  1.0000 -0.1476836871
H   H61       1.0  0.22970  0.72280  0.56920  1.0000 0.1191689994
C   C95       1.0  0.14840  0.42930  0.53537  1.0000 -0.0228722125
C   C96       1.0  0.39890  0.53890  0.65723  1.0000 -0.0268274826
C   C97       1.0  0.45320  0.53500  0.68681  1.0000 0.5978538651
C   C98       1.0  0.29560  0.54050  0.60330  1.0000 0.0802982129
H   H62       1.0  0.74700  0.74670  0.51470  1.0000 0.3807662964
C   C99       1.0  0.20660  0.43070  0.56198  1.0000 -0.1476836871
H   H63       1.0  0.22620  0.35790  0.57090  1.0000 0.1191689994
C   C100      1.0  0.23490  0.54030  0.57490  1.0000 0.068542346
C   C101      1.0  0.43630  0.45610  0.63727  1.0000 -0.0976933673
H   H64       1.0  0.49670  0.39990  0.64160  1.0000 0.1191689994
C   C102      1.0  0.11670  0.53620  0.52256  1.0000 -0.1295643415
H   H65       1.0  0.07320  0.53560  0.50560  1.0000 0.1191689994
C   C103      1.0  0.31380  0.62400  0.65065  1.0000 -0.0976933673
H   H66       1.0  0.28930  0.68010  0.66430  1.0000 0.1191689994
C   C104      1.0  0.38230  0.45720  0.61040  1.0000 -0.1435752068
H   H67       1.0  0.40620  0.39970  0.59700  1.0000 0.1136526135
C   C105      1.0  0.26370  0.62710  0.62382  1.0000 -0.1476836871
H   H68       1.0  0.20790  0.68760  0.61930  1.0000 0.1191689994
O   O49       1.0  0.30390  0.03190  0.55771  1.0000 -0.6196485613
H   H69       1.0  0.29350  0.03210  0.57560  1.0000 0.3704489578
H   H70       1.0  0.37950  0.03000  0.55410  1.0000 0.3807662964
O   O50       1.0  0.96730  0.23010  0.00390  1.0000 -0.5377995719
O   O51       1.0  0.81630  0.14570  0.02824  1.0000 -0.532738136
O   O52       1.0  0.60350  0.41250  0.20618  1.0000 -0.5581559691
O   O53       1.0  0.94730  0.69490  0.00062  1.0000 -0.5535232764
O   O54       1.0  0.82760  0.78270  0.03328  1.0000 -0.5377995719
C   C106      1.0  0.88370  0.23420  0.02101  1.0000 0.5868674885
C   C107      1.0  0.87970  0.69240  0.02223  1.0000 0.5978538651
O   O55       1.0  0.44960  0.52630  0.18942  1.0000 -0.5535232764
C   C108      1.0  0.85010  0.35470  0.03493  1.0000 -0.0122962691
C   C109      1.0  0.79150  0.35120  0.06109  1.0000 -0.1476836871
H   H71       1.0  0.77030  0.27720  0.06920  1.0000 0.1191689994
C   C110      1.0  0.85160  0.57070  0.03537  1.0000 -0.0228722125
C   C111      1.0  0.60110  0.46110  0.15723  1.0000 -0.0268274826
C   C112      1.0  0.54680  0.46500  0.18681  1.0000 0.5978538651
C   C113      1.0  0.70440  0.45950  0.10330  1.0000 0.0802982129
H   H72       1.0  0.25300  0.25330  0.01470  1.0000 0.3807662964
C   C114      1.0  0.79340  0.56930  0.06198  1.0000 -0.1476836871
H   H73       1.0  0.77380  0.64210  0.07090  1.0000 0.1191689994
C   C115      1.0  0.76510  0.45970  0.07490  1.0000 0.068542346
C   C116      1.0  0.56370  0.54390  0.13727  1.0000 -0.0976933673
H   H74       1.0  0.50330  0.60010  0.14160  1.0000 0.1191689994
C   C117      1.0  0.88330  0.46380  0.02256  1.0000 -0.1295643415
H   H75       1.0  0.92680  0.46440  0.00560  1.0000 0.1191689994
C   C118      1.0  0.68620  0.37600  0.15065  1.0000 -0.0976933673
H   H76       1.0  0.71070  0.31990  0.16430  1.0000 0.1191689994
C   C119      1.0  0.61770  0.54280  0.11040  1.0000 -0.1435752068
H   H77       1.0  0.59380  0.60030  0.09700  1.0000 0.1136526135
C   C120      1.0  0.73630  0.37290  0.12382  1.0000 -0.1476836871
H   H78       1.0  0.79210  0.31240  0.11930  1.0000 0.1191689994
O   O56       1.0  0.69610  0.96810  0.05771  1.0000 -0.6196485613
H   H79       1.0  0.70650  0.96790  0.07560  1.0000 0.3704489578
H   H80       1.0  0.62050  0.97000  0.05410  1.0000 0.3807662964
O   O57       1.0  0.03870  0.03870  0.50000  1.0000 -0.9143052999
O   O58       1.0  0.77910  0.77910  0.50000  1.0000 -0.6343413297
Zn  Zn5       1.0  0.91374  0.91374  0.50000  1.0000 1.220256358
O   O59       1.0  0.96130  0.96130  0.00000  1.0000 -0.9143052999
O   O60       1.0  0.22090  0.22090  0.00000  1.0000 -0.6343413297
Zn  Zn6       1.0  0.08626  0.08626  0.00000  1.0000 1.220256358
O   O61       1.0  0.46130  0.53870  0.25000  1.0000 -0.9143052999
O   O62       1.0  0.72090  0.27910  0.25000  1.0000 -0.6343413297
Zn  Zn7       1.0  0.58626  0.41374  0.25000  1.0000 1.220256358
O   O63       1.0  0.53870  0.46130  0.75000  1.0000 -0.9143052999
O   O64       1.0  0.27910  0.72090  0.75000  1.0000 -0.6343413297
Zn  Zn8       1.0  0.41374  0.58626  0.75000  1.0000 1.220256358
