# DDEC6 charges by PACMAN v1.1 (https://github.com/mtap-research/PACMAN-charge/)
data_2018[U][sql]2[FSR]1
_chemical_formula_sum              "U2 H64 C56 S2 N26 O30"
_cell_length_a       12.3485
_cell_length_b       12.8164
_cell_length_c       14.5041
_cell_angle_alpha    95.197
_cell_angle_beta     110.171
_cell_angle_gamma    98.578

_symmetry_space_group_name_H-M    "P 1"
_symmetry_Int_Tables_number       1

loop_
  _symmetry_equiv_pos_as_xyz
  'x, y, z'

loop_
  _atom_site_type_symbol
  _atom_site_label
  _atom_site_symmetry_multiplicity
  _atom_site_fract_x
  _atom_site_fract_y
  _atom_site_fract_z
  _atom_site_occupancy
  _atom_site_charge
U   U1        1.0  0.25832  0.56264  0.61653  1.0000 2.5024839012
U   U2        1.0  0.74168  0.43736  0.38347  1.0000 2.5024839012
H   H1        1.0  0.32056  0.24273  0.65520  1.0000 0.1116408342
H   H2        1.0  0.39071  0.15197  0.63861  1.0000 0.1116408342
H   H3        1.0  0.50936  0.65897  0.70041  1.0000 0.3478438226
H   H4        1.0  0.50508  0.55371  0.72501  1.0000 0.3790747193
H   H5        1.0  0.99225  0.24434  0.19769  1.0000 0.0924885986
H   H6        1.0  0.23517  0.52175  0.93242  1.0000 0.099514046
H   H7        1.0  0.30954  0.54390  0.86280  1.0000 0.1116408342
H   H8        1.0  0.57473  0.27687  0.54125  1.0000 0.1634763968
H   H9        1.0  0.55935  0.60413  0.21214  1.0000 0.099514046
H   H10       1.0  0.93095  0.37000  0.09910  1.0000 0.099514046
H   H11       1.0  0.54613  0.14845  0.40585  1.0000 0.1497219471
H   H12       1.0  0.95522  0.98342  0.29138  1.0000 0.0828084467
H   H13       1.0  0.93819  0.17180  0.33300  1.0000 0.1116408342
H   H14       1.0  0.81620  0.19129  0.34019  1.0000 0.1292000083
H   H15       1.0  0.01550  0.05534  0.16047  1.0000 0.099514046
H   H16       1.0  0.94553  0.99584  0.04904  1.0000 0.1116408342
H   H17       1.0  0.26447  0.35643  0.38618  1.0000 0.1709083585
H   H18       1.0  0.85483  0.81819  0.29413  1.0000 0.099514046
H   H19       1.0  0.72697  0.66821  0.06060  1.0000 0.1116408342
H   H20       1.0  0.74926  0.65797  0.17443  1.0000 0.1116408342
H   H21       1.0  0.36379  0.55002  0.11910  1.0000 0.099514046
H   H22       1.0  0.58943  0.07441  0.07921  1.0000 0.099514046
H   H23       1.0  0.47905  0.10717  0.99861  1.0000 0.099514046
H   H24       1.0  0.45995  0.96814  0.13776  1.0000 0.099514046
H   H25       1.0  0.35053  0.00309  0.05828  1.0000 0.099514046
H   H26       1.0  0.23852  0.22168  0.25767  1.0000 0.14038555
H   H27       1.0  0.28818  0.07269  0.19536  1.0000 0.1198316536
H   H28       1.0  0.39423  0.02479  0.26551  1.0000 0.1292000083
H   H29       1.0  0.52859  0.14891  0.21993  1.0000 0.1116408342
H   H30       1.0  0.41647  0.18217  0.14118  1.0000 0.1198316536
H   H31       1.0  0.79974  0.26184  0.84326  1.0000 0.1198316536
H   H32       1.0  0.82258  0.37468  0.91064  1.0000 0.099514046
H   H33       1.0  0.67944  0.75727  0.34480  1.0000 0.1116408342
H   H34       1.0  0.60929  0.84803  0.36139  1.0000 0.1116408342
H   H35       1.0  0.49064  0.34103  0.29959  1.0000 0.3478438226
H   H36       1.0  0.49492  0.44629  0.27499  1.0000 0.3790747193
H   H37       1.0  0.00775  0.75566  0.80231  1.0000 0.0924885986
H   H38       1.0  0.76483  0.47825  0.06758  1.0000 0.099514046
H   H39       1.0  0.69046  0.45610  0.13720  1.0000 0.1116408342
H   H40       1.0  0.42527  0.72313  0.45875  1.0000 0.1634763968
H   H41       1.0  0.44065  0.39587  0.78786  1.0000 0.099514046
H   H42       1.0  0.06905  0.63000  0.90090  1.0000 0.099514046
H   H43       1.0  0.45387  0.85155  0.59415  1.0000 0.1497219471
H   H44       1.0  0.04478  0.01658  0.70862  1.0000 0.0828084467
H   H45       1.0  0.06181  0.82820  0.66700  1.0000 0.1116408342
H   H46       1.0  0.18380  0.80871  0.65981  1.0000 0.1292000083
H   H47       1.0  0.98450  0.94466  0.83953  1.0000 0.099514046
H   H48       1.0  0.05447  0.00416  0.95096  1.0000 0.1116408342
H   H49       1.0  0.73553  0.64357  0.61382  1.0000 0.1709083585
H   H50       1.0  0.14517  0.18181  0.70587  1.0000 0.099514046
H   H51       1.0  0.27303  0.33179  0.93940  1.0000 0.1116408342
H   H52       1.0  0.25074  0.34203  0.82557  1.0000 0.1116408342
H   H53       1.0  0.63621  0.44998  0.88090  1.0000 0.099514046
H   H54       1.0  0.41057  0.92559  0.92079  1.0000 0.099514046
H   H55       1.0  0.52095  0.89283  0.00139  1.0000 0.099514046
H   H56       1.0  0.54005  0.03186  0.86224  1.0000 0.099514046
H   H57       1.0  0.64947  0.99691  0.94172  1.0000 0.099514046
H   H58       1.0  0.76148  0.77832  0.74233  1.0000 0.14038555
H   H59       1.0  0.71182  0.92731  0.80464  1.0000 0.1198316536
H   H60       1.0  0.60577  0.97521  0.73449  1.0000 0.1292000083
H   H61       1.0  0.47141  0.85109  0.78007  1.0000 0.1116408342
H   H62       1.0  0.58353  0.81783  0.85882  1.0000 0.1198316536
H   H63       1.0  0.20026  0.73816  0.15674  1.0000 0.1198316536
H   H64       1.0  0.17742  0.62532  0.08936  1.0000 0.099514046
C   C1        1.0  0.36390  0.18880  0.68740  1.0000 0.0293324539
C   C2        1.0  0.23930  0.71380  0.80890  1.0000 0.5701094238
C   C3        1.0  0.42290  0.33090  0.47690  1.0000 0.0293324539
C   C4        1.0  0.90810  0.22150  0.15250  1.0000 0.1198316536
C   C5        1.0  0.28860  0.57720  0.91700  1.0000 0.0238991283
C   C6        1.0  0.50460  0.63630  0.00040  1.0000 0.522834274
C   C7        1.0  0.50620  0.26750  0.48300  1.0000 -0.1397261503
C   C8        1.0  0.52930  0.65780  0.16870  1.0000 0.1198316536
C   C9        1.0  0.44110  0.41850  0.56140  1.0000 0.5837277738
C   C10       1.0  0.86590  0.30760  0.08660  1.0000 0.1116408342
C   C11       1.0  0.48840  0.19060  0.40330  1.0000 0.0293324539
C   C12       1.0  0.87140  0.97020  0.24490  1.0000 0.1116408342
C   C13       1.0  0.85220  0.15890  0.29620  1.0000 0.0370622786
C   C14       1.0  0.93660  0.03420  0.10760  1.0000 0.0370622786
C   C15       1.0  0.80120  0.86470  0.08800  1.0000 0.522834274
C   C16       1.0  0.32240  0.31380  0.39180  1.0000 -0.1397261503
C   C17       1.0  0.57680  0.22370  0.78640  1.0000 0.5287594763
C   C18       1.0  0.85220  0.15010  0.98500  1.0000 0.5287594763
C   C19       1.0  0.80230  0.85990  0.24960  1.0000 0.1198316536
C   C20       1.0  0.70900  0.69470  0.11890  1.0000 0.0293324539
C   C21       1.0  0.39620  0.62040  0.10490  1.0000 0.1116408342
C   C22       1.0  0.50570  0.04930  0.03640  1.0000 -0.1397261503
C   C23       1.0  0.72150  0.99640  0.30410  1.0000 0.522834274
C   C24       1.0  0.43430  0.02720  0.10140  1.0000 -0.1397261503
C   C25       1.0  0.30780  0.23460  0.31570  1.0000 -0.0053486013
C   C26       1.0  0.37240  0.09010  0.23850  1.0000 -0.1260544988
C   C27       1.0  0.44520  0.12330  0.17640  1.0000 -0.1679944726
C   C28       1.0  0.78200  0.29920  0.89760  1.0000 0.0238991283
C   C29       1.0  0.63610  0.81120  0.31260  1.0000 0.0293324539
C   C30       1.0  0.76070  0.28620  0.19110  1.0000 0.5701094238
C   C31       1.0  0.57710  0.66910  0.52310  1.0000 0.0293324539
C   C32       1.0  0.09190  0.77850  0.84750  1.0000 0.1198316536
C   C33       1.0  0.71140  0.42280  0.08300  1.0000 0.0238991283
C   C34       1.0  0.49540  0.36370  0.99960  1.0000 0.5287594763
C   C35       1.0  0.49380  0.73250  0.51700  1.0000 -0.1397261503
C   C36       1.0  0.47070  0.34220  0.83130  1.0000 0.1198316536
C   C37       1.0  0.55890  0.58150  0.43860  1.0000 0.5837277738
C   C38       1.0  0.13410  0.69240  0.91340  1.0000 0.1116408342
C   C39       1.0  0.51160  0.80940  0.59670  1.0000 0.0293324539
C   C40       1.0  0.12860  0.02980  0.75510  1.0000 0.1116408342
C   C41       1.0  0.14780  0.84110  0.70380  1.0000 0.0370622786
C   C42       1.0  0.06340  0.96580  0.89240  1.0000 0.0370622786
C   C43       1.0  0.19880  0.13530  0.91200  1.0000 0.522834274
C   C44       1.0  0.67760  0.68620  0.60820  1.0000 -0.1397261503
C   C45       1.0  0.42320  0.77630  0.21360  1.0000 0.5287594763
C   C46       1.0  0.14780  0.84990  0.01500  1.0000 0.5287594763
C   C47       1.0  0.19770  0.14010  0.75040  1.0000 0.1198316536
C   C48       1.0  0.29100  0.30530  0.88110  1.0000 0.0293324539
C   C49       1.0  0.60380  0.37960  0.89510  1.0000 0.1116408342
C   C50       1.0  0.49430  0.95070  0.96360  1.0000 -0.1397261503
C   C51       1.0  0.27850  0.00360  0.69590  1.0000 0.522834274
C   C52       1.0  0.56570  0.97280  0.89860  1.0000 -0.1397261503
C   C53       1.0  0.69220  0.76540  0.68430  1.0000 -0.0053486013
C   C54       1.0  0.62760  0.90990  0.76150  1.0000 -0.1260544988
C   C55       1.0  0.55480  0.87670  0.82360  1.0000 -0.1679944726
C   C56       1.0  0.21800  0.70080  0.10240  1.0000 0.0238991283
S   S1        1.0  0.96585  0.53154  0.62273  1.0000 1.4858465759
S   S2        1.0  0.03415  0.46846  0.37727  1.0000 1.4858465759
N   N1        1.0  0.39000  0.17520  0.32230  1.0000 0.1198316536
N   N2        1.0  0.75570  0.80811  0.14645  1.0000 -0.2196108905
N   N3        1.0  0.82770  0.25110  0.98629  1.0000 -0.2196108905
N   N4        1.0  0.65610  0.29500  0.86529  1.0000 -0.2196108905
N   N5        1.0  0.80710  0.04514  0.27308  1.0000 -0.2496999646
N   N6        1.0  0.71550  0.88840  0.28787  1.0000 -0.2314382943
N   N7        1.0  0.17100  0.78856  0.79176  1.0000 -0.2496999646
N   N8        1.0  0.22710  0.66225  0.88285  1.0000 -0.2314382943
N   N9        1.0  0.58380  0.66690  0.09522  1.0000 -0.2371687474
N   N10       1.0  0.39410  0.61300  0.00393  1.0000 -0.2314382943
N   N11       1.0  0.89140  0.12904  0.08082  1.0000 -0.256142165
N   N12       1.0  0.86200  0.96230  0.14214  1.0000 -0.2314382943
N   N13       1.0  0.46630  0.24300  0.77250  1.0000 -0.256142165
N   N14       1.0  0.61000  0.82480  0.67770  1.0000 0.1198316536
N   N15       1.0  0.24430  0.19189  0.85355  1.0000 -0.2196108905
N   N16       1.0  0.17230  0.74890  0.01371  1.0000 -0.2314382943
N   N17       1.0  0.34390  0.70500  0.13471  1.0000 -0.2196108905
N   N18       1.0  0.19290  0.95486  0.72692  1.0000 -0.2496999646
N   N19       1.0  0.28450  0.11160  0.71213  1.0000 -0.2371687474
N   N20       1.0  0.82900  0.21144  0.20824  1.0000 -0.2496999646
N   N21       1.0  0.77290  0.33775  0.11715  1.0000 -0.2196108905
N   N22       1.0  0.41620  0.33310  0.90478  1.0000 -0.2371687474
N   N23       1.0  0.60590  0.38700  0.99607  1.0000 -0.2371687474
N   N24       1.0  0.10860  0.87096  0.91918  1.0000 -0.256142165
N   N25       1.0  0.13800  0.03770  0.85786  1.0000 -0.2371687474
N   N26       1.0  0.53370  0.75700  0.22750  1.0000 -0.256142165
O   O1        1.0  0.30401  0.69422  0.76254  1.0000 -0.5917259189
O   O2        1.0  0.25550  0.45395  0.68362  1.0000 -0.7101008924
O   O3        1.0  0.08188  0.59255  0.62981  1.0000 -0.7758583458
O   O4        1.0  0.87990  0.54641  0.52490  1.0000 -0.7427904042
O   O5        1.0  0.52910  0.62735  0.92529  1.0000 -0.4985400023
O   O6        1.0  0.36990  0.48281  0.53931  1.0000 -0.6386819812
O   O7        1.0  0.84230  0.08884  0.91170  1.0000 -0.5198030106
O   O8        1.0  0.51990  0.42340  0.64238  1.0000 -0.5198030106
O   O9        1.0  0.96920  0.41890  0.62400  1.0000 -0.6386819812
O   O10       1.0  0.47193  0.61007  0.72346  1.0000 -0.7285251053
O   O11       1.0  0.26490  0.67168  0.55050  1.0000 -0.675986472
O   O12       1.0  0.60080  0.15489  0.73651  1.0000 -0.5198030106
O   O13       1.0  0.78910  0.83436  0.00217  1.0000 -0.510207239
O   O14       1.0  0.66270  0.04185  0.34131  1.0000 -0.510207239
O   O15       1.0  0.93470  0.57900  0.70222  1.0000 -0.675986472
O   O16       1.0  0.69599  0.30578  0.23746  1.0000 -0.5917259189
O   O17       1.0  0.74450  0.54605  0.31638  1.0000 -0.7101008924
O   O18       1.0  0.91812  0.40745  0.37019  1.0000 -0.7758583458
O   O19       1.0  0.12010  0.45359  0.47510  1.0000 -0.7427904042
O   O20       1.0  0.47090  0.37265  0.07471  1.0000 -0.4985400023
O   O21       1.0  0.63010  0.51719  0.46069  1.0000 -0.6386819812
O   O22       1.0  0.15770  0.91116  0.08830  1.0000 -0.5198030106
O   O23       1.0  0.48010  0.57660  0.35762  1.0000 -0.5198030106
O   O24       1.0  0.03080  0.58110  0.37600  1.0000 -0.6386819812
O   O25       1.0  0.52807  0.38993  0.27654  1.0000 -0.7285251053
O   O26       1.0  0.73510  0.32832  0.44950  1.0000 -0.675986472
O   O27       1.0  0.39920  0.84511  0.26349  1.0000 -0.5198030106
O   O28       1.0  0.21090  0.16564  0.99783  1.0000 -0.510207239
O   O29       1.0  0.33730  0.95815  0.65869  1.0000 -0.510207239
O   O30       1.0  0.06530  0.42100  0.29778  1.0000 -0.675986472
