# DDEC6 charges by PACMAN v1.1 (https://github.com/mtap-research/PACMAN-charge/)
data_2019[Eu][sql]2[FSR]3
_chemical_formula_sum              "Eu8 H128 C72 O64"
_cell_length_a       8.7086
_cell_length_b       14.324
_cell_length_c       23.429
_cell_angle_alpha    90
_cell_angle_beta     90
_cell_angle_gamma    90

_symmetry_space_group_name_H-M    "P 1"
_symmetry_Int_Tables_number       1

loop_
  _symmetry_equiv_pos_as_xyz
  'x, y, z'

loop_
  _atom_site_type_symbol
  _atom_site_label
  _atom_site_symmetry_multiplicity
  _atom_site_fract_x
  _atom_site_fract_y
  _atom_site_fract_z
  _atom_site_occupancy
  _atom_site_charge
Eu  Eu1       1.0  0.72923  0.67712  0.18817  1.0000 1.9910370924
Eu  Eu2       1.0  0.72467  0.53517  0.80770  1.0000 2.0010846176
Eu  Eu3       1.0  0.77077  0.32288  0.68817  1.0000 1.9910370924
Eu  Eu4       1.0  0.77533  0.46483  0.30770  1.0000 2.0010846176
Eu  Eu5       1.0  0.27077  0.17712  0.31183  1.0000 1.9910370924
Eu  Eu6       1.0  0.27533  0.03517  0.69230  1.0000 2.0010846176
Eu  Eu7       1.0  0.22923  0.82288  0.81183  1.0000 1.9910370924
Eu  Eu8       1.0  0.22467  0.96483  0.19230  1.0000 2.0010846176
H   H1        1.0  0.80610  0.86049  0.16435  1.0000 0.3595215746
H   H2        1.0  0.66523  0.86635  0.18764  1.0000 0.3595215746
H   H3        1.0  0.98988  0.75026  0.24277  1.0000 0.3674032682
H   H4        1.0  0.93588  0.68587  0.28007  1.0000 0.3595215746
H   H5        1.0  0.92453  0.54915  0.71489  1.0000 0.3674032682
H   H6        1.0  0.92692  0.64458  0.72358  1.0000 0.3775249192
H   H7        1.0  0.80303  0.71605  0.84140  1.0000 0.3595215746
H   H8        1.0  0.66345  0.70186  0.86434  1.0000 0.3455672928
H   H9        1.0  0.08595  0.71295  0.03498  1.0000 0.0942530104
H   H10       1.0  0.94982  0.72328  0.94354  1.0000 0.1093879701
H   H11       1.0  0.80406  0.68830  0.97641  1.0000 0.0993098088
H   H12       1.0  0.93148  0.54455  0.99807  1.0000 0.1393471801
H   H13       1.0  0.07896  0.57979  0.96543  1.0000 0.1307041202
H   H14       1.0  0.86551  0.85493  0.02504  1.0000 0.1307041202
H   H15       1.0  0.02531  0.85573  0.99424  1.0000 0.1393471801
H   H16       1.0  0.01692  0.86223  0.06096  1.0000 0.1307041202
H   H17       1.0  0.00743  0.51680  0.12164  1.0000 0.1093879701
H   H18       1.0  0.25716  0.48447  0.19615  1.0000 0.1093879701
H   H19       1.0  0.17203  0.58067  0.19213  1.0000 0.1093879701
H   H20       1.0  0.33698  0.50065  0.09945  1.0000 0.1307041202
H   H21       1.0  0.25481  0.59819  0.09663  1.0000 0.1393471801
H   H22       1.0  0.13948  0.34199  0.14710  1.0000 0.1393471801
H   H23       1.0  0.16045  0.39447  0.08891  1.0000 0.1162167259
H   H24       1.0  0.99831  0.35671  0.10657  1.0000 0.1307041202
H   H25       1.0  0.25112  0.53598  0.39713  1.0000 0.1093879701
H   H26       1.0  0.24117  0.64983  0.30105  1.0000 0.1093879701
H   H27       1.0  0.33413  0.55715  0.30876  1.0000 0.1093879701
H   H28       1.0  0.41539  0.73362  0.35701  1.0000 0.1393471801
H   H29       1.0  0.49620  0.64142  0.37786  1.0000 0.1524158933
H   H30       1.0  0.11244  0.71075  0.40169  1.0000 0.1307041202
H   H31       1.0  0.25359  0.67893  0.43837  1.0000 0.1093879701
H   H32       1.0  0.09251  0.63268  0.44800  1.0000 0.1307041202
H   H33       1.0  0.69390  0.13951  0.66435  1.0000 0.3595215746
H   H34       1.0  0.83477  0.13365  0.68764  1.0000 0.3595215746
H   H35       1.0  0.51012  0.24974  0.74277  1.0000 0.3674032682
H   H36       1.0  0.56412  0.31413  0.78007  1.0000 0.3595215746
H   H37       1.0  0.57547  0.45085  0.21489  1.0000 0.3674032682
H   H38       1.0  0.57308  0.35542  0.22358  1.0000 0.3775249192
H   H39       1.0  0.69697  0.28395  0.34140  1.0000 0.3595215746
H   H40       1.0  0.83655  0.29814  0.36434  1.0000 0.3455672928
H   H41       1.0  0.41405  0.28705  0.53498  1.0000 0.0942530104
H   H42       1.0  0.55018  0.27672  0.44354  1.0000 0.1093879701
H   H43       1.0  0.69594  0.31170  0.47641  1.0000 0.0993098088
H   H44       1.0  0.56852  0.45545  0.49807  1.0000 0.1393471801
H   H45       1.0  0.42104  0.42021  0.46543  1.0000 0.1307041202
H   H46       1.0  0.63449  0.14507  0.52504  1.0000 0.1307041202
H   H47       1.0  0.47469  0.14427  0.49424  1.0000 0.1393471801
H   H48       1.0  0.48308  0.13777  0.56096  1.0000 0.1307041202
H   H49       1.0  0.49257  0.48320  0.62164  1.0000 0.1093879701
H   H50       1.0  0.24284  0.51553  0.69615  1.0000 0.1093879701
H   H51       1.0  0.32797  0.41933  0.69213  1.0000 0.1093879701
H   H52       1.0  0.16302  0.49935  0.59945  1.0000 0.1307041202
H   H53       1.0  0.24519  0.40181  0.59663  1.0000 0.1393471801
H   H54       1.0  0.36052  0.65801  0.64710  1.0000 0.1393471801
H   H55       1.0  0.33955  0.60553  0.58891  1.0000 0.1162167259
H   H56       1.0  0.50169  0.64329  0.60657  1.0000 0.1307041202
H   H57       1.0  0.24888  0.46402  0.89713  1.0000 0.1093879701
H   H58       1.0  0.25883  0.35017  0.80105  1.0000 0.1093879701
H   H59       1.0  0.16587  0.44285  0.80876  1.0000 0.1093879701
H   H60       1.0  0.08461  0.26638  0.85701  1.0000 0.1393471801
H   H61       1.0  0.00380  0.35858  0.87786  1.0000 0.1524158933
H   H62       1.0  0.38756  0.28925  0.90169  1.0000 0.1307041202
H   H63       1.0  0.24641  0.32107  0.93837  1.0000 0.1093879701
H   H64       1.0  0.40749  0.36732  0.94800  1.0000 0.1307041202
H   H65       1.0  0.19390  0.36049  0.33565  1.0000 0.3595215746
H   H66       1.0  0.33477  0.36635  0.31236  1.0000 0.3595215746
H   H67       1.0  0.01012  0.25026  0.25723  1.0000 0.3674032682
H   H68       1.0  0.06412  0.18587  0.21993  1.0000 0.3595215746
H   H69       1.0  0.07547  0.04915  0.78511  1.0000 0.3674032682
H   H70       1.0  0.07308  0.14458  0.77642  1.0000 0.3775249192
H   H71       1.0  0.19697  0.21605  0.65860  1.0000 0.3595215746
H   H72       1.0  0.33655  0.20186  0.63566  1.0000 0.3455672928
H   H73       1.0  0.91405  0.21295  0.46502  1.0000 0.0942530104
H   H74       1.0  0.05018  0.22328  0.55646  1.0000 0.1093879701
H   H75       1.0  0.19594  0.18830  0.52359  1.0000 0.0993098088
H   H76       1.0  0.06852  0.04455  0.50193  1.0000 0.1393471801
H   H77       1.0  0.92104  0.07979  0.53457  1.0000 0.1307041202
H   H78       1.0  0.13449  0.35493  0.47496  1.0000 0.1307041202
H   H79       1.0  0.97469  0.35573  0.50576  1.0000 0.1393471801
H   H80       1.0  0.98308  0.36223  0.43904  1.0000 0.1307041202
H   H81       1.0  0.99257  0.01680  0.37836  1.0000 0.1093879701
H   H82       1.0  0.74284  0.98447  0.30385  1.0000 0.1093879701
H   H83       1.0  0.82797  0.08067  0.30787  1.0000 0.1093879701
H   H84       1.0  0.66302  0.00065  0.40055  1.0000 0.1307041202
H   H85       1.0  0.74519  0.09819  0.40337  1.0000 0.1393471801
H   H86       1.0  0.86052  0.84199  0.35290  1.0000 0.1393471801
H   H87       1.0  0.83955  0.89447  0.41109  1.0000 0.1162167259
H   H88       1.0  0.00169  0.85671  0.39343  1.0000 0.1307041202
H   H89       1.0  0.74888  0.03598  0.10287  1.0000 0.1093879701
H   H90       1.0  0.75883  0.14983  0.19895  1.0000 0.1093879701
H   H91       1.0  0.66587  0.05715  0.19124  1.0000 0.1093879701
H   H92       1.0  0.58461  0.23362  0.14299  1.0000 0.1393471801
H   H93       1.0  0.50380  0.14142  0.12214  1.0000 0.1524158933
H   H94       1.0  0.88756  0.21075  0.09831  1.0000 0.1307041202
H   H95       1.0  0.74641  0.17893  0.06163  1.0000 0.1093879701
H   H96       1.0  0.90749  0.13268  0.05200  1.0000 0.1307041202
H   H97       1.0  0.30610  0.63951  0.83565  1.0000 0.3595215746
H   H98       1.0  0.16523  0.63365  0.81236  1.0000 0.3595215746
H   H99       1.0  0.48988  0.74974  0.75723  1.0000 0.3674032682
H   H100      1.0  0.43588  0.81413  0.71993  1.0000 0.3595215746
H   H101      1.0  0.42453  0.95085  0.28511  1.0000 0.3674032682
H   H102      1.0  0.42692  0.85542  0.27642  1.0000 0.3775249192
H   H103      1.0  0.30303  0.78395  0.15860  1.0000 0.3595215746
H   H104      1.0  0.16345  0.79814  0.13566  1.0000 0.3455672928
H   H105      1.0  0.58595  0.78705  0.96502  1.0000 0.0942530104
H   H106      1.0  0.44982  0.77672  0.05646  1.0000 0.1093879701
H   H107      1.0  0.30406  0.81170  0.02359  1.0000 0.0993098088
H   H108      1.0  0.43148  0.95545  0.00193  1.0000 0.1393471801
H   H109      1.0  0.57896  0.92021  0.03457  1.0000 0.1307041202
H   H110      1.0  0.36551  0.64507  0.97496  1.0000 0.1307041202
H   H111      1.0  0.52531  0.64427  0.00576  1.0000 0.1393471801
H   H112      1.0  0.51692  0.63777  0.93904  1.0000 0.1307041202
H   H113      1.0  0.50743  0.98320  0.87836  1.0000 0.1093879701
H   H114      1.0  0.75716  0.01553  0.80385  1.0000 0.1093879701
H   H115      1.0  0.67203  0.91933  0.80787  1.0000 0.1093879701
H   H116      1.0  0.83698  0.99935  0.90055  1.0000 0.1307041202
H   H117      1.0  0.75481  0.90181  0.90337  1.0000 0.1393471801
H   H118      1.0  0.63948  0.15801  0.85290  1.0000 0.1393471801
H   H119      1.0  0.66045  0.10553  0.91109  1.0000 0.1162167259
H   H120      1.0  0.49831  0.14329  0.89343  1.0000 0.1307041202
H   H121      1.0  0.75112  0.96402  0.60287  1.0000 0.1093879701
H   H122      1.0  0.74117  0.85017  0.69895  1.0000 0.1093879701
H   H123      1.0  0.83413  0.94285  0.69124  1.0000 0.1093879701
H   H124      1.0  0.91539  0.76638  0.64299  1.0000 0.1393471801
H   H125      1.0  0.99620  0.85858  0.62214  1.0000 0.1524158933
H   H126      1.0  0.61244  0.78925  0.59831  1.0000 0.1307041202
H   H127      1.0  0.75359  0.82107  0.56163  1.0000 0.1093879701
H   H128      1.0  0.59251  0.86732  0.55200  1.0000 0.1307041202
C   C1        1.0  0.89730  0.69770  0.08420  1.0000 0.5680976429
C   C2        1.0  0.97760  0.73060  0.03150  1.0000 -0.05930178
C   C3        1.0  0.91540  0.68630  0.97580  1.0000 -0.1421389549
C   C4        1.0  0.96790  0.58370  0.96710  1.0000 -0.3218656661
C   C5        1.0  0.89500  0.55330  0.90940  1.0000 0.6193260842
C   C6        1.0  0.97070  0.83540  0.02760  1.0000 -0.3974783104
C   C7        1.0  0.95000  0.46820  0.20090  1.0000 0.6193260842
C   C8        1.0  0.05710  0.47610  0.14970  1.0000 -0.05930178
C   C9        1.0  0.20160  0.52570  0.17060  1.0000 -0.1421389549
C   C10       1.0  0.30820  0.55510  0.12160  1.0000 -0.3218656661
C   C11       1.0  0.44910  0.60080  0.14500  1.0000 0.6323949018
C   C12       1.0  0.09210  0.38380  0.12040  1.0000 -0.3974783104
C   C13       1.0  0.05270  0.54400  0.35220  1.0000 0.5817912438
C   C14       1.0  0.19830  0.58630  0.37670  1.0000 -0.05930178
C   C15       1.0  0.30050  0.61340  0.32810  1.0000 -0.146934726
C   C16       1.0  0.44510  0.67100  0.34580  1.0000 -0.3218656661
C   C17       1.0  0.55030  0.67460  0.29550  1.0000 0.6780533113
C   C18       1.0  0.16100  0.65860  0.42000  1.0000 -0.3974783104
C   C19       1.0  0.60270  0.30230  0.58420  1.0000 0.5680976429
C   C20       1.0  0.52240  0.26940  0.53150  1.0000 -0.05930178
C   C21       1.0  0.58460  0.31370  0.47580  1.0000 -0.1421389549
C   C22       1.0  0.53210  0.41630  0.46710  1.0000 -0.3218656661
C   C23       1.0  0.60500  0.44670  0.40940  1.0000 0.6193260842
C   C24       1.0  0.52930  0.16460  0.52760  1.0000 -0.3974783104
C   C25       1.0  0.55000  0.53180  0.70090  1.0000 0.6193260842
C   C26       1.0  0.44290  0.52390  0.64970  1.0000 -0.05930178
C   C27       1.0  0.29840  0.47430  0.67060  1.0000 -0.1421389549
C   C28       1.0  0.19180  0.44490  0.62160  1.0000 -0.3218656661
C   C29       1.0  0.05090  0.39920  0.64500  1.0000 0.6323949018
C   C30       1.0  0.40790  0.61620  0.62040  1.0000 -0.3974783104
C   C31       1.0  0.44730  0.45600  0.85220  1.0000 0.5817912438
C   C32       1.0  0.30170  0.41370  0.87670  1.0000 -0.05930178
C   C33       1.0  0.19950  0.38660  0.82810  1.0000 -0.146934726
C   C34       1.0  0.05490  0.32900  0.84580  1.0000 -0.3218656661
C   C35       1.0  0.94970  0.32540  0.79550  1.0000 0.6780533113
C   C36       1.0  0.33900  0.34140  0.92000  1.0000 -0.3974783104
C   C37       1.0  0.10270  0.19770  0.41580  1.0000 0.5680976429
C   C38       1.0  0.02240  0.23060  0.46850  1.0000 -0.05930178
C   C39       1.0  0.08460  0.18630  0.52420  1.0000 -0.1421389549
C   C40       1.0  0.03210  0.08370  0.53290  1.0000 -0.3218656661
C   C41       1.0  0.10500  0.05330  0.59060  1.0000 0.6193260842
C   C42       1.0  0.02930  0.33540  0.47240  1.0000 -0.3974783104
C   C43       1.0  0.05000  0.96820  0.29910  1.0000 0.6193260842
C   C44       1.0  0.94290  0.97610  0.35030  1.0000 -0.05930178
C   C45       1.0  0.79840  0.02570  0.32940  1.0000 -0.1421389549
C   C46       1.0  0.69180  0.05510  0.37840  1.0000 -0.3218656661
C   C47       1.0  0.55090  0.10080  0.35500  1.0000 0.6323949018
C   C48       1.0  0.90790  0.88380  0.37960  1.0000 -0.3974783104
C   C49       1.0  0.94730  0.04400  0.14780  1.0000 0.5817912438
C   C50       1.0  0.80170  0.08630  0.12330  1.0000 -0.05930178
C   C51       1.0  0.69950  0.11340  0.17190  1.0000 -0.146934726
C   C52       1.0  0.55490  0.17100  0.15420  1.0000 -0.3218656661
C   C53       1.0  0.44970  0.17460  0.20450  1.0000 0.6780533113
C   C54       1.0  0.83900  0.15860  0.08000  1.0000 -0.3974783104
C   C55       1.0  0.39730  0.80230  0.91580  1.0000 0.5680976429
C   C56       1.0  0.47760  0.76940  0.96850  1.0000 -0.05930178
C   C57       1.0  0.41540  0.81370  0.02420  1.0000 -0.1421389549
C   C58       1.0  0.46790  0.91630  0.03290  1.0000 -0.3218656661
C   C59       1.0  0.39500  0.94670  0.09060  1.0000 0.6193260842
C   C60       1.0  0.47070  0.66460  0.97240  1.0000 -0.3974783104
C   C61       1.0  0.45000  0.03180  0.79910  1.0000 0.6193260842
C   C62       1.0  0.55710  0.02390  0.85030  1.0000 -0.05930178
C   C63       1.0  0.70160  0.97430  0.82940  1.0000 -0.1421389549
C   C64       1.0  0.80820  0.94490  0.87840  1.0000 -0.3218656661
C   C65       1.0  0.94910  0.89920  0.85500  1.0000 0.6323949018
C   C66       1.0  0.59210  0.11620  0.87960  1.0000 -0.3974783104
C   C67       1.0  0.55270  0.95600  0.64780  1.0000 0.5817912438
C   C68       1.0  0.69830  0.91370  0.62330  1.0000 -0.05930178
C   C69       1.0  0.80050  0.88660  0.67190  1.0000 -0.146934726
C   C70       1.0  0.94510  0.82900  0.65420  1.0000 -0.3218656661
C   C71       1.0  0.05030  0.82540  0.70450  1.0000 0.6780533113
C   C72       1.0  0.66100  0.84140  0.58000  1.0000 -0.3974783104
O   O1        1.0  0.76650  0.66180  0.08370  1.0000 -0.596029856
O   O2        1.0  0.71670  0.83670  0.16270  1.0000 -0.7596606097
O   O3        1.0  0.96270  0.70920  0.13340  1.0000 -0.6554621539
O   O4        1.0  0.90690  0.73170  0.25890  1.0000 -0.7596606097
O   O5        1.0  0.76270  0.51540  0.91170  1.0000 -0.6494674466
O   O6        1.0  0.89870  0.59330  0.73750  1.0000 -0.7718125563
O   O7        1.0  0.96080  0.56920  0.86200  1.0000 -0.634786912
O   O8        1.0  0.71340  0.69640  0.83333  1.0000 -0.7718125563
O   O9        1.0  0.86490  0.53710  0.21360  1.0000 -0.7518506131
O   O10       1.0  0.95090  0.39860  0.23290  1.0000 -0.5646851889
O   O11       1.0  0.56140  0.54760  0.16130  1.0000 -0.6554621539
O   O12       1.0  0.46420  0.68650  0.14930  1.0000 -0.5882594145
O   O13       1.0  0.04090  0.45450  0.34840  1.0000 -0.6404611549
O   O14       1.0  0.94650  0.59410  0.33490  1.0000 -0.5882594145
O   O15       1.0  0.63690  0.60350  0.28370  1.0000 -0.7718125563
O   O16       1.0  0.55640  0.74390  0.26290  1.0000 -0.6094268642
O   O17       1.0  0.73350  0.33820  0.58370  1.0000 -0.596029856
O   O18       1.0  0.78330  0.16330  0.66270  1.0000 -0.7596606097
O   O19       1.0  0.53730  0.29080  0.63340  1.0000 -0.6554621539
O   O20       1.0  0.59310  0.26830  0.75890  1.0000 -0.7596606097
O   O21       1.0  0.73730  0.48460  0.41170  1.0000 -0.6494674466
O   O22       1.0  0.60130  0.40670  0.23750  1.0000 -0.7718125563
O   O23       1.0  0.53920  0.43080  0.36200  1.0000 -0.634786912
O   O24       1.0  0.78660  0.30360  0.33333  1.0000 -0.7718125563
O   O25       1.0  0.63510  0.46290  0.71360  1.0000 -0.7518506131
O   O26       1.0  0.54910  0.60140  0.73290  1.0000 -0.5646851889
O   O27       1.0  0.93860  0.45240  0.66130  1.0000 -0.6554621539
O   O28       1.0  0.03580  0.31350  0.64930  1.0000 -0.5882594145
O   O29       1.0  0.45910  0.54550  0.84840  1.0000 -0.6404611549
O   O30       1.0  0.55350  0.40590  0.83490  1.0000 -0.5882594145
O   O31       1.0  0.86310  0.39650  0.78370  1.0000 -0.7718125563
O   O32       1.0  0.94360  0.25610  0.76290  1.0000 -0.6094268642
O   O33       1.0  0.23350  0.16180  0.41630  1.0000 -0.596029856
O   O34       1.0  0.28330  0.33670  0.33730  1.0000 -0.7596606097
O   O35       1.0  0.03730  0.20920  0.36660  1.0000 -0.6554621539
O   O36       1.0  0.09310  0.23170  0.24110  1.0000 -0.7596606097
O   O37       1.0  0.23730  0.01540  0.58830  1.0000 -0.6494674466
O   O38       1.0  0.10130  0.09330  0.76250  1.0000 -0.7718125563
O   O39       1.0  0.03920  0.06920  0.63800  1.0000 -0.634786912
O   O40       1.0  0.28660  0.19640  0.66667  1.0000 -0.7718125563
O   O41       1.0  0.13510  0.03710  0.28640  1.0000 -0.7518506131
O   O42       1.0  0.04910  0.89860  0.26710  1.0000 -0.5646851889
O   O43       1.0  0.43860  0.04760  0.33870  1.0000 -0.6554621539
O   O44       1.0  0.53580  0.18650  0.35070  1.0000 -0.5882594145
O   O45       1.0  0.95910  0.95450  0.15160  1.0000 -0.6404611549
O   O46       1.0  0.05350  0.09410  0.16510  1.0000 -0.5882594145
O   O47       1.0  0.36310  0.10350  0.21630  1.0000 -0.7718125563
O   O48       1.0  0.44360  0.24390  0.23710  1.0000 -0.6094268642
O   O49       1.0  0.26650  0.83820  0.91630  1.0000 -0.596029856
O   O50       1.0  0.21670  0.66330  0.83730  1.0000 -0.7596606097
O   O51       1.0  0.46270  0.79080  0.86660  1.0000 -0.6554621539
O   O52       1.0  0.40690  0.76830  0.74110  1.0000 -0.7596606097
O   O53       1.0  0.26270  0.98460  0.08830  1.0000 -0.6494674466
O   O54       1.0  0.39870  0.90670  0.26250  1.0000 -0.7718125563
O   O55       1.0  0.46080  0.93080  0.13800  1.0000 -0.634786912
O   O56       1.0  0.21340  0.80360  0.16667  1.0000 -0.7718125563
O   O57       1.0  0.36490  0.96290  0.78640  1.0000 -0.7518506131
O   O58       1.0  0.45090  0.10140  0.76710  1.0000 -0.5646851889
O   O59       1.0  0.06140  0.95240  0.83870  1.0000 -0.6554621539
O   O60       1.0  0.96420  0.81350  0.85070  1.0000 -0.5882594145
O   O61       1.0  0.54090  0.04550  0.65160  1.0000 -0.6404611549
O   O62       1.0  0.44650  0.90590  0.66510  1.0000 -0.5882594145
O   O63       1.0  0.13690  0.89650  0.71630  1.0000 -0.7718125563
O   O64       1.0  0.05640  0.75610  0.73710  1.0000 -0.6094268642
