# DDEC6 charges by PACMAN v1.1 (https://github.com/mtap-research/PACMAN-charge/)
data_2019[Zn][sql]2[FSR]15
_chemical_formula_sum              "Zn8 H144 C168 N16 O40"
_cell_length_a       10.1635
_cell_length_b       19.3156
_cell_length_c       23.1978
_cell_angle_alpha    90
_cell_angle_beta     90
_cell_angle_gamma    90

_symmetry_space_group_name_H-M    "P 1"
_symmetry_Int_Tables_number       1

loop_
  _symmetry_equiv_pos_as_xyz
  'x, y, z'

loop_
  _atom_site_type_symbol
  _atom_site_label
  _atom_site_symmetry_multiplicity
  _atom_site_fract_x
  _atom_site_fract_y
  _atom_site_fract_z
  _atom_site_occupancy
  _atom_site_charge
Zn  Zn1       1.0  0.19322  0.16104  0.09940  1.0000 0.7331904519
Zn  Zn2       1.0  0.30678  0.83896  0.59940  1.0000 0.7331904519
Zn  Zn3       1.0  0.30678  0.66104  0.40060  1.0000 0.7331904519
Zn  Zn4       1.0  0.19322  0.33896  0.90060  1.0000 0.7331904519
Zn  Zn5       1.0  0.80678  0.83896  0.90060  1.0000 0.7331904519
Zn  Zn6       1.0  0.69322  0.16104  0.40060  1.0000 0.7331904519
Zn  Zn7       1.0  0.69322  0.33896  0.59940  1.0000 0.7331904519
Zn  Zn8       1.0  0.80678  0.66104  0.09940  1.0000 0.7331904519
H   H1        1.0  0.70403  0.14570  0.09806  1.0000 0.1201266885
H   H2        1.0  0.49276  0.32148  0.07351  1.0000 0.1201266885
H   H3        1.0  0.13532  0.96520  0.96064  1.0000 0.147663911
H   H4        1.0  0.24012  0.19640  0.97829  1.0000 0.1129235111
H   H5        1.0  0.89168  0.32960  0.07705  1.0000 0.141934516
H   H6        1.0  0.14359  0.01940  0.04957  1.0000 0.1044138718
H   H7        1.0  0.22969  0.14866  0.88716  1.0000 0.141934516
H   H8        1.0  0.43398  0.89376  0.79965  1.0000 0.141934516
H   H9        1.0  0.13974  0.97125  0.85694  1.0000 0.1279749098
H   H10       1.0  0.12278  0.04614  0.82814  1.0000 0.1129235111
H   H11       1.0  0.19705  0.97420  0.64432  1.0000 0.1129235111
H   H12       1.0  0.59045  0.48849  0.04041  1.0000 0.1201266885
H   H13       1.0  0.53904  0.41792  0.01214  1.0000 0.1279749098
H   H14       1.0  0.51205  0.43345  0.07886  1.0000 0.1129235111
H   H15       1.0  0.37728  0.98969  0.85752  1.0000 0.1201266885
H   H16       1.0  0.35421  0.06032  0.82268  1.0000 0.1201266885
H   H17       1.0  0.21040  0.04207  0.72646  1.0000 0.141934516
H   H18       1.0  0.42611  0.83300  0.71388  1.0000 0.1201266885
H   H19       1.0  0.79597  0.85430  0.59806  1.0000 0.1201266885
H   H20       1.0  0.00724  0.67852  0.57351  1.0000 0.1201266885
H   H21       1.0  0.36468  0.03480  0.46064  1.0000 0.147663911
H   H22       1.0  0.25988  0.80360  0.47829  1.0000 0.1129235111
H   H23       1.0  0.60832  0.67040  0.57705  1.0000 0.141934516
H   H24       1.0  0.35641  0.98060  0.54957  1.0000 0.1044138718
H   H25       1.0  0.27031  0.85134  0.38716  1.0000 0.141934516
H   H26       1.0  0.06602  0.10624  0.29965  1.0000 0.141934516
H   H27       1.0  0.36026  0.02875  0.35694  1.0000 0.1279749098
H   H28       1.0  0.37722  0.95386  0.32814  1.0000 0.1129235111
H   H29       1.0  0.30295  0.02580  0.14432  1.0000 0.1129235111
H   H30       1.0  0.90955  0.51151  0.54041  1.0000 0.1201266885
H   H31       1.0  0.96096  0.58208  0.51214  1.0000 0.1279749098
H   H32       1.0  0.98795  0.56655  0.57886  1.0000 0.1129235111
H   H33       1.0  0.12272  0.01031  0.35752  1.0000 0.1201266885
H   H34       1.0  0.14579  0.93968  0.32268  1.0000 0.1201266885
H   H35       1.0  0.28960  0.95793  0.22646  1.0000 0.141934516
H   H36       1.0  0.07389  0.16700  0.21388  1.0000 0.1201266885
H   H37       1.0  0.79597  0.64570  0.40194  1.0000 0.1201266885
H   H38       1.0  0.00724  0.82148  0.42649  1.0000 0.1201266885
H   H39       1.0  0.36468  0.46520  0.53936  1.0000 0.147663911
H   H40       1.0  0.25988  0.69640  0.52171  1.0000 0.1129235111
H   H41       1.0  0.60832  0.82960  0.42295  1.0000 0.141934516
H   H42       1.0  0.35641  0.51940  0.45043  1.0000 0.1044138718
H   H43       1.0  0.27031  0.64866  0.61284  1.0000 0.141934516
H   H44       1.0  0.06602  0.39376  0.70035  1.0000 0.141934516
H   H45       1.0  0.36026  0.47125  0.64306  1.0000 0.1279749098
H   H46       1.0  0.37722  0.54614  0.67186  1.0000 0.1129235111
H   H47       1.0  0.30295  0.47420  0.85568  1.0000 0.1129235111
H   H48       1.0  0.90955  0.98849  0.45959  1.0000 0.1201266885
H   H49       1.0  0.96096  0.91792  0.48786  1.0000 0.1279749098
H   H50       1.0  0.98795  0.93345  0.42114  1.0000 0.1129235111
H   H51       1.0  0.12272  0.48969  0.64248  1.0000 0.1201266885
H   H52       1.0  0.14579  0.56032  0.67732  1.0000 0.1201266885
H   H53       1.0  0.28960  0.54207  0.77354  1.0000 0.141934516
H   H54       1.0  0.07389  0.33300  0.78612  1.0000 0.1201266885
H   H55       1.0  0.70403  0.35430  0.90194  1.0000 0.1201266885
H   H56       1.0  0.49276  0.17852  0.92649  1.0000 0.1201266885
H   H57       1.0  0.13532  0.53480  0.03936  1.0000 0.147663911
H   H58       1.0  0.24012  0.30360  0.02171  1.0000 0.1129235111
H   H59       1.0  0.89168  0.17040  0.92295  1.0000 0.141934516
H   H60       1.0  0.14359  0.48060  0.95043  1.0000 0.1044138718
H   H61       1.0  0.22969  0.35134  0.11284  1.0000 0.141934516
H   H62       1.0  0.43398  0.60624  0.20035  1.0000 0.141934516
H   H63       1.0  0.13974  0.52875  0.14306  1.0000 0.1279749098
H   H64       1.0  0.12278  0.45386  0.17186  1.0000 0.1129235111
H   H65       1.0  0.19705  0.52580  0.35568  1.0000 0.1129235111
H   H66       1.0  0.59045  0.01151  0.95959  1.0000 0.1201266885
H   H67       1.0  0.53904  0.08208  0.98786  1.0000 0.1279749098
H   H68       1.0  0.51205  0.06655  0.92114  1.0000 0.1129235111
H   H69       1.0  0.37728  0.51031  0.14248  1.0000 0.1201266885
H   H70       1.0  0.35421  0.43968  0.17732  1.0000 0.1201266885
H   H71       1.0  0.21040  0.45793  0.27354  1.0000 0.141934516
H   H72       1.0  0.42611  0.66700  0.28612  1.0000 0.1201266885
H   H73       1.0  0.29597  0.85430  0.90194  1.0000 0.1201266885
H   H74       1.0  0.50724  0.67852  0.92649  1.0000 0.1201266885
H   H75       1.0  0.86468  0.03480  0.03936  1.0000 0.147663911
H   H76       1.0  0.75988  0.80360  0.02171  1.0000 0.1129235111
H   H77       1.0  0.10832  0.67040  0.92295  1.0000 0.141934516
H   H78       1.0  0.85641  0.98060  0.95043  1.0000 0.1044138718
H   H79       1.0  0.77031  0.85134  0.11284  1.0000 0.141934516
H   H80       1.0  0.56602  0.10624  0.20035  1.0000 0.141934516
H   H81       1.0  0.86026  0.02875  0.14306  1.0000 0.1279749098
H   H82       1.0  0.87722  0.95386  0.17186  1.0000 0.1129235111
H   H83       1.0  0.80295  0.02580  0.35568  1.0000 0.1129235111
H   H84       1.0  0.40955  0.51151  0.95959  1.0000 0.1201266885
H   H85       1.0  0.46096  0.58208  0.98786  1.0000 0.1279749098
H   H86       1.0  0.48795  0.56655  0.92114  1.0000 0.1129235111
H   H87       1.0  0.62272  0.01031  0.14248  1.0000 0.1201266885
H   H88       1.0  0.64579  0.93968  0.17732  1.0000 0.1201266885
H   H89       1.0  0.78960  0.95793  0.27354  1.0000 0.141934516
H   H90       1.0  0.57389  0.16700  0.28612  1.0000 0.1201266885
H   H91       1.0  0.20403  0.14570  0.40194  1.0000 0.1201266885
H   H92       1.0  0.99276  0.32148  0.42649  1.0000 0.1201266885
H   H93       1.0  0.63532  0.96520  0.53936  1.0000 0.147663911
H   H94       1.0  0.74012  0.19640  0.52171  1.0000 0.1129235111
H   H95       1.0  0.39168  0.32960  0.42295  1.0000 0.141934516
H   H96       1.0  0.64359  0.01940  0.45043  1.0000 0.1044138718
H   H97       1.0  0.72969  0.14866  0.61284  1.0000 0.141934516
H   H98       1.0  0.93398  0.89376  0.70035  1.0000 0.141934516
H   H99       1.0  0.63974  0.97125  0.64306  1.0000 0.1279749098
H   H100      1.0  0.62278  0.04614  0.67186  1.0000 0.1129235111
H   H101      1.0  0.69705  0.97420  0.85568  1.0000 0.1129235111
H   H102      1.0  0.09045  0.48849  0.45959  1.0000 0.1201266885
H   H103      1.0  0.03904  0.41792  0.48786  1.0000 0.1279749098
H   H104      1.0  0.01205  0.43345  0.42114  1.0000 0.1129235111
H   H105      1.0  0.87728  0.98969  0.64248  1.0000 0.1201266885
H   H106      1.0  0.85421  0.06032  0.67732  1.0000 0.1201266885
H   H107      1.0  0.71040  0.04207  0.77354  1.0000 0.141934516
H   H108      1.0  0.92611  0.83300  0.78612  1.0000 0.1201266885
H   H109      1.0  0.20403  0.35430  0.59806  1.0000 0.1201266885
H   H110      1.0  0.99276  0.17852  0.57351  1.0000 0.1201266885
H   H111      1.0  0.63532  0.53480  0.46064  1.0000 0.147663911
H   H112      1.0  0.74012  0.30360  0.47829  1.0000 0.1129235111
H   H113      1.0  0.39168  0.17040  0.57705  1.0000 0.141934516
H   H114      1.0  0.64359  0.48060  0.54957  1.0000 0.1044138718
H   H115      1.0  0.72969  0.35134  0.38716  1.0000 0.141934516
H   H116      1.0  0.93398  0.60624  0.29965  1.0000 0.141934516
H   H117      1.0  0.63974  0.52875  0.35694  1.0000 0.1279749098
H   H118      1.0  0.62278  0.45386  0.32814  1.0000 0.1129235111
H   H119      1.0  0.69705  0.52580  0.14432  1.0000 0.1129235111
H   H120      1.0  0.09045  0.01151  0.54041  1.0000 0.1201266885
H   H121      1.0  0.03904  0.08208  0.51214  1.0000 0.1279749098
H   H122      1.0  0.01205  0.06655  0.57886  1.0000 0.1129235111
H   H123      1.0  0.87728  0.51031  0.35752  1.0000 0.1201266885
H   H124      1.0  0.85421  0.43968  0.32268  1.0000 0.1201266885
H   H125      1.0  0.71040  0.45793  0.22646  1.0000 0.141934516
H   H126      1.0  0.92611  0.66700  0.21388  1.0000 0.1201266885
H   H127      1.0  0.29597  0.64570  0.09806  1.0000 0.1201266885
H   H128      1.0  0.50724  0.82148  0.07351  1.0000 0.1201266885
H   H129      1.0  0.86468  0.46520  0.96064  1.0000 0.147663911
H   H130      1.0  0.75988  0.69640  0.97829  1.0000 0.1129235111
H   H131      1.0  0.10832  0.82960  0.07705  1.0000 0.141934516
H   H132      1.0  0.85641  0.51940  0.04957  1.0000 0.1044138718
H   H133      1.0  0.77031  0.64866  0.88716  1.0000 0.141934516
H   H134      1.0  0.56602  0.39376  0.79965  1.0000 0.141934516
H   H135      1.0  0.86026  0.47125  0.85694  1.0000 0.1279749098
H   H136      1.0  0.87722  0.54614  0.82814  1.0000 0.1129235111
H   H137      1.0  0.80295  0.47420  0.64432  1.0000 0.1129235111
H   H138      1.0  0.40955  0.98849  0.04041  1.0000 0.1201266885
H   H139      1.0  0.46096  0.91792  0.01214  1.0000 0.1279749098
H   H140      1.0  0.48795  0.93345  0.07886  1.0000 0.1129235111
H   H141      1.0  0.62272  0.48969  0.85752  1.0000 0.1201266885
H   H142      1.0  0.64579  0.56032  0.82268  1.0000 0.1201266885
H   H143      1.0  0.78960  0.54207  0.72646  1.0000 0.141934516
H   H144      1.0  0.57389  0.33300  0.71388  1.0000 0.1201266885
C   C1        1.0  0.70060  0.19437  0.09233  1.0000 -0.1572601356
C   C2        1.0  0.81660  0.23235  0.08904  1.0000 -0.0020449854
C   C3        1.0  0.94540  0.19518  0.09555  1.0000 0.5445376235
C   C4        1.0  0.45570  0.18679  0.09358  1.0000 0.5472068387
C   C5        1.0  0.58020  0.22725  0.08728  1.0000 -0.0074530359
C   C6        1.0  0.57530  0.29879  0.07709  1.0000 -0.2419983893
C   C7        1.0  0.15600  0.01309  0.96298  1.0000 -0.2023232588
C   C8        1.0  0.18070  0.05099  0.91319  1.0000 0.1771820086
C   C9        1.0  0.21730  0.14894  0.97440  1.0000 0.0800077309
C   C10       1.0  0.81250  0.30360  0.07912  1.0000 -0.222002535
C   C11       1.0  0.69100  0.33638  0.07224  1.0000 0.2521829839
C   C12       1.0  0.16180  0.04582  0.01596  1.0000 0.0875778799
C   C13       1.0  0.31860  0.97325  0.77335  1.0000 0.1743847552
C   C14       1.0  0.21200  0.12072  0.91996  1.0000 -0.1909949508
C   C15       1.0  0.38450  0.91141  0.76816  1.0000 -0.1909949508
C   C16       1.0  0.17850  0.01816  0.85427  1.0000 -0.2419983893
C   C17       1.0  0.24670  0.95796  0.67629  1.0000 0.0800077309
C   C18       1.0  0.57490  0.43908  0.04717  1.0000 -0.2544251447
C   C19       1.0  0.31920  0.01319  0.82941  1.0000 -0.2419983893
C   C20       1.0  0.25190  0.99802  0.72544  1.0000 -0.2023232588
C   C21       1.0  0.37860  0.87519  0.71710  1.0000 0.0875778799
C   C22       1.0  0.79940  0.80563  0.59233  1.0000 -0.1572601356
C   C23       1.0  0.68340  0.76765  0.58904  1.0000 -0.0020449854
C   C24       1.0  0.55460  0.80482  0.59555  1.0000 0.5445376235
C   C25       1.0  0.04430  0.81321  0.59358  1.0000 0.5472068387
C   C26       1.0  0.91980  0.77275  0.58728  1.0000 -0.0074530359
C   C27       1.0  0.92470  0.70121  0.57709  1.0000 -0.2419983893
C   C28       1.0  0.34400  0.98691  0.46298  1.0000 -0.2023232588
C   C29       1.0  0.31930  0.94901  0.41319  1.0000 0.1771820086
C   C30       1.0  0.28270  0.85106  0.47440  1.0000 0.0875778799
C   C31       1.0  0.68750  0.69640  0.57912  1.0000 -0.222002535
C   C32       1.0  0.80900  0.66362  0.57224  1.0000 0.2521829839
C   C33       1.0  0.33820  0.95418  0.51596  1.0000 0.0875778799
C   C34       1.0  0.18140  0.02675  0.27335  1.0000 0.1743847552
C   C35       1.0  0.28800  0.87928  0.41996  1.0000 -0.1909949508
C   C36       1.0  0.11550  0.08859  0.26816  1.0000 -0.1909949508
C   C37       1.0  0.32150  0.98184  0.35427  1.0000 -0.2419983893
C   C38       1.0  0.25330  0.04204  0.17629  1.0000 0.0800077309
C   C39       1.0  0.92510  0.56092  0.54717  1.0000 -0.2544251447
C   C40       1.0  0.18080  0.98681  0.32941  1.0000 -0.2419983893
C   C41       1.0  0.24810  0.00198  0.22544  1.0000 -0.2023232588
C   C42       1.0  0.12140  0.12481  0.21710  1.0000 0.0875778799
C   C43       1.0  0.79940  0.69437  0.40767  1.0000 -0.1572601356
C   C44       1.0  0.68340  0.73235  0.41096  1.0000 -0.0020449854
C   C45       1.0  0.55460  0.69518  0.40445  1.0000 0.5445376235
C   C46       1.0  0.04430  0.68679  0.40642  1.0000 0.5472068387
C   C47       1.0  0.91980  0.72725  0.41272  1.0000 -0.0074530359
C   C48       1.0  0.92470  0.79879  0.42291  1.0000 -0.2419983893
C   C49       1.0  0.34400  0.51309  0.53702  1.0000 -0.2023232588
C   C50       1.0  0.31930  0.55099  0.58681  1.0000 0.1771820086
C   C51       1.0  0.28270  0.64894  0.52560  1.0000 0.0800077309
C   C52       1.0  0.68750  0.80360  0.42088  1.0000 -0.222002535
C   C53       1.0  0.80900  0.83638  0.42776  1.0000 0.2521829839
C   C54       1.0  0.33820  0.54582  0.48404  1.0000 0.0875778799
C   C55       1.0  0.18140  0.47325  0.72665  1.0000 0.1743847552
C   C56       1.0  0.28800  0.62072  0.58004  1.0000 -0.1909949508
C   C57       1.0  0.11550  0.41141  0.73184  1.0000 -0.1909949508
C   C58       1.0  0.32150  0.51816  0.64573  1.0000 -0.2419983893
C   C59       1.0  0.25330  0.45796  0.82371  1.0000 0.0800077309
C   C60       1.0  0.92510  0.93908  0.45283  1.0000 -0.2544251447
C   C61       1.0  0.18080  0.51319  0.67059  1.0000 -0.2419983893
C   C62       1.0  0.24810  0.49802  0.77456  1.0000 -0.2023232588
C   C63       1.0  0.12140  0.37519  0.78290  1.0000 0.0875778799
C   C64       1.0  0.70060  0.30563  0.90767  1.0000 -0.1572601356
C   C65       1.0  0.81660  0.26765  0.91096  1.0000 -0.0020449854
C   C66       1.0  0.94540  0.30482  0.90445  1.0000 0.5445376235
C   C67       1.0  0.45570  0.31321  0.90642  1.0000 0.5472068387
C   C68       1.0  0.58020  0.27275  0.91272  1.0000 -0.0074530359
C   C69       1.0  0.57530  0.20121  0.92291  1.0000 -0.2419983893
C   C70       1.0  0.15600  0.48691  0.03702  1.0000 -0.2023232588
C   C71       1.0  0.18070  0.44901  0.08681  1.0000 0.1771820086
C   C72       1.0  0.21730  0.35106  0.02560  1.0000 0.0800077309
C   C73       1.0  0.81250  0.19640  0.92088  1.0000 -0.222002535
C   C74       1.0  0.69100  0.16362  0.92776  1.0000 0.2521829839
C   C75       1.0  0.16180  0.45418  0.98404  1.0000 0.0875778799
C   C76       1.0  0.31860  0.52675  0.22665  1.0000 0.1743847552
C   C77       1.0  0.21200  0.37928  0.08004  1.0000 -0.1909949508
C   C78       1.0  0.38450  0.58859  0.23184  1.0000 -0.1909949508
C   C79       1.0  0.17850  0.48184  0.14573  1.0000 -0.2419983893
C   C80       1.0  0.24670  0.54204  0.32371  1.0000 0.0800077309
C   C81       1.0  0.57490  0.06092  0.95283  1.0000 -0.2544251447
C   C82       1.0  0.31920  0.48681  0.17059  1.0000 -0.2419983893
C   C83       1.0  0.25190  0.50198  0.27456  1.0000 -0.2023232588
C   C84       1.0  0.37860  0.62481  0.28290  1.0000 0.0875778799
C   C85       1.0  0.29940  0.80563  0.90767  1.0000 -0.1572601356
C   C86       1.0  0.18340  0.76765  0.91096  1.0000 -0.0020449854
C   C87       1.0  0.05460  0.80482  0.90445  1.0000 0.5445376235
C   C88       1.0  0.54430  0.81321  0.90642  1.0000 0.5472068387
C   C89       1.0  0.41980  0.77275  0.91272  1.0000 -0.0074530359
C   C90       1.0  0.42470  0.70121  0.92291  1.0000 -0.2419983893
C   C91       1.0  0.84400  0.98691  0.03702  1.0000 -0.2023232588
C   C92       1.0  0.81930  0.94901  0.08681  1.0000 0.1771820086
C   C93       1.0  0.78270  0.85106  0.02560  1.0000 0.0875778799
C   C94       1.0  0.18750  0.69640  0.92088  1.0000 -0.222002535
C   C95       1.0  0.30900  0.66362  0.92776  1.0000 0.2521829839
C   C96       1.0  0.83820  0.95418  0.98404  1.0000 0.0875778799
C   C97       1.0  0.68140  0.02675  0.22665  1.0000 0.1743847552
C   C98       1.0  0.78800  0.87928  0.08004  1.0000 -0.1909949508
C   C99       1.0  0.61550  0.08859  0.23184  1.0000 -0.1909949508
C   C100      1.0  0.82150  0.98184  0.14573  1.0000 -0.2419983893
C   C101      1.0  0.75330  0.04204  0.32371  1.0000 0.0800077309
C   C102      1.0  0.42510  0.56092  0.95283  1.0000 -0.2544251447
C   C103      1.0  0.68080  0.98681  0.17059  1.0000 -0.2419983893
C   C104      1.0  0.74810  0.00198  0.27456  1.0000 -0.2023232588
C   C105      1.0  0.62140  0.12481  0.28290  1.0000 0.0875778799
C   C106      1.0  0.20060  0.19437  0.40767  1.0000 -0.1572601356
C   C107      1.0  0.31660  0.23235  0.41096  1.0000 -0.0020449854
C   C108      1.0  0.44540  0.19518  0.40445  1.0000 0.5445376235
C   C109      1.0  0.95570  0.18679  0.40642  1.0000 0.5472068387
C   C110      1.0  0.08020  0.22725  0.41272  1.0000 -0.0074530359
C   C111      1.0  0.07530  0.29879  0.42291  1.0000 -0.2419983893
C   C112      1.0  0.65600  0.01309  0.53702  1.0000 -0.2023232588
C   C113      1.0  0.68070  0.05099  0.58681  1.0000 0.1771820086
C   C114      1.0  0.71730  0.14894  0.52560  1.0000 0.0875778799
C   C115      1.0  0.31250  0.30360  0.42088  1.0000 -0.222002535
C   C116      1.0  0.19100  0.33638  0.42776  1.0000 0.2521829839
C   C117      1.0  0.66180  0.04582  0.48404  1.0000 0.0875778799
C   C118      1.0  0.81860  0.97325  0.72665  1.0000 0.1743847552
C   C119      1.0  0.71200  0.12072  0.58004  1.0000 -0.1909949508
C   C120      1.0  0.88450  0.91141  0.73184  1.0000 -0.1909949508
C   C121      1.0  0.67850  0.01816  0.64573  1.0000 -0.2419983893
C   C122      1.0  0.74670  0.95796  0.82371  1.0000 0.0800077309
C   C123      1.0  0.07490  0.43908  0.45283  1.0000 -0.2544251447
C   C124      1.0  0.81920  0.01319  0.67059  1.0000 -0.2419983893
C   C125      1.0  0.75190  0.99802  0.77456  1.0000 -0.2023232588
C   C126      1.0  0.87860  0.87519  0.78290  1.0000 0.0875778799
C   C127      1.0  0.20060  0.30563  0.59233  1.0000 -0.1572601356
C   C128      1.0  0.31660  0.26765  0.58904  1.0000 -0.0020449854
C   C129      1.0  0.44540  0.30482  0.59555  1.0000 0.5445376235
C   C130      1.0  0.95570  0.31321  0.59358  1.0000 0.5472068387
C   C131      1.0  0.08020  0.27275  0.58728  1.0000 -0.0074530359
C   C132      1.0  0.07530  0.20121  0.57709  1.0000 -0.2419983893
C   C133      1.0  0.65600  0.48691  0.46298  1.0000 -0.2023232588
C   C134      1.0  0.68070  0.44901  0.41319  1.0000 0.1771820086
C   C135      1.0  0.71730  0.35106  0.47440  1.0000 0.0800077309
C   C136      1.0  0.31250  0.19640  0.57912  1.0000 -0.222002535
C   C137      1.0  0.19100  0.16362  0.57224  1.0000 0.2521829839
C   C138      1.0  0.66180  0.45418  0.51596  1.0000 0.0875778799
C   C139      1.0  0.81860  0.52675  0.27335  1.0000 0.1743847552
C   C140      1.0  0.71200  0.37928  0.41996  1.0000 -0.1909949508
C   C141      1.0  0.88450  0.58859  0.26816  1.0000 -0.1909949508
C   C142      1.0  0.67850  0.48184  0.35427  1.0000 -0.2419983893
C   C143      1.0  0.74670  0.54204  0.17629  1.0000 0.0800077309
C   C144      1.0  0.07490  0.06092  0.54717  1.0000 -0.2544251447
C   C145      1.0  0.81920  0.48681  0.32941  1.0000 -0.2419983893
C   C146      1.0  0.75190  0.50198  0.22544  1.0000 -0.2023232588
C   C147      1.0  0.87860  0.62481  0.21710  1.0000 0.0875778799
C   C148      1.0  0.29940  0.69437  0.09233  1.0000 -0.1572601356
C   C149      1.0  0.18340  0.73235  0.08904  1.0000 -0.0020449854
C   C150      1.0  0.05460  0.69518  0.09555  1.0000 0.5445376235
C   C151      1.0  0.54430  0.68679  0.09358  1.0000 0.5472068387
C   C152      1.0  0.41980  0.72725  0.08728  1.0000 -0.0074530359
C   C153      1.0  0.42470  0.79879  0.07709  1.0000 -0.2419983893
C   C154      1.0  0.84400  0.51309  0.96298  1.0000 -0.2023232588
C   C155      1.0  0.81930  0.55099  0.91319  1.0000 0.1771820086
C   C156      1.0  0.78270  0.64894  0.97440  1.0000 0.0800077309
C   C157      1.0  0.18750  0.80360  0.07912  1.0000 -0.222002535
C   C158      1.0  0.30900  0.83638  0.07224  1.0000 0.2521829839
C   C159      1.0  0.83820  0.54582  0.01596  1.0000 0.0875778799
C   C160      1.0  0.68140  0.47325  0.77335  1.0000 0.1743847552
C   C161      1.0  0.78800  0.62072  0.91996  1.0000 -0.1909949508
C   C162      1.0  0.61550  0.41141  0.76816  1.0000 -0.1909949508
C   C163      1.0  0.82150  0.51816  0.85427  1.0000 -0.2419983893
C   C164      1.0  0.75330  0.45796  0.67629  1.0000 0.0800077309
C   C165      1.0  0.42510  0.93908  0.04717  1.0000 -0.2544251447
C   C166      1.0  0.68080  0.51319  0.82941  1.0000 -0.2419983893
C   C167      1.0  0.74810  0.49802  0.72544  1.0000 -0.2023232588
C   C168      1.0  0.62140  0.37519  0.71710  1.0000 0.0875778799
N   N1        1.0  0.19150  0.11231  0.02213  1.0000 -0.2419983893
N   N2        1.0  0.30860  0.89719  0.67188  1.0000 -0.2303454679
N   N3        1.0  0.30850  0.88769  0.52213  1.0000 -0.2419983893
N   N4        1.0  0.19140  0.10281  0.17188  1.0000 -0.2303454679
N   N5        1.0  0.30850  0.61231  0.47787  1.0000 -0.2419983893
N   N6        1.0  0.19140  0.39719  0.82812  1.0000 -0.2303454679
N   N7        1.0  0.19150  0.38769  0.97787  1.0000 -0.2419983893
N   N8        1.0  0.30860  0.60281  0.32812  1.0000 -0.2303454679
N   N9        1.0  0.80850  0.88769  0.97787  1.0000 -0.2419983893
N   N10       1.0  0.69140  0.10281  0.32812  1.0000 -0.2303454679
N   N11       1.0  0.69150  0.11231  0.47787  1.0000 -0.2419983893
N   N12       1.0  0.80860  0.89719  0.82812  1.0000 -0.2303454679
N   N13       1.0  0.69150  0.38769  0.52213  1.0000 -0.2419983893
N   N14       1.0  0.80860  0.60281  0.17188  1.0000 -0.2303454679
N   N15       1.0  0.80850  0.61231  0.02213  1.0000 -0.2419983893
N   N16       1.0  0.69140  0.39719  0.67188  1.0000 -0.2303454679
O   O1        1.0  0.34880  0.22275  0.09826  1.0000 -0.560362677
O   O2        1.0  0.04962  0.23171  0.10312  1.0000 -0.5427983356
O   O3        1.0  0.45787  0.12248  0.09431  1.0000 -0.5792444375
O   O4        1.0  0.94800  0.13106  0.09402  1.0000 -0.560362677
O   O5        1.0  0.69602  0.40616  0.06189  1.0000 -0.1439851233
O   O6        1.0  0.15120  0.77725  0.59826  1.0000 -0.560362677
O   O7        1.0  0.45038  0.76829  0.60312  1.0000 -0.5427983356
O   O8        1.0  0.04213  0.87752  0.59431  1.0000 -0.5792444375
O   O9        1.0  0.55200  0.86894  0.59402  1.0000 -0.560362677
O   O10       1.0  0.80398  0.59384  0.56189  1.0000 -0.1439851233
O   O11       1.0  0.15120  0.72275  0.40174  1.0000 -0.560362677
O   O12       1.0  0.45038  0.73171  0.39688  1.0000 -0.5427983356
O   O13       1.0  0.04213  0.62248  0.40569  1.0000 -0.5792444375
O   O14       1.0  0.55200  0.63106  0.40598  1.0000 -0.560362677
O   O15       1.0  0.80398  0.90616  0.43811  1.0000 -0.1439851233
O   O16       1.0  0.34880  0.27725  0.90174  1.0000 -0.560362677
O   O17       1.0  0.04962  0.26829  0.89688  1.0000 -0.5427983356
O   O18       1.0  0.45787  0.37752  0.90569  1.0000 -0.5792444375
O   O19       1.0  0.94800  0.36894  0.90598  1.0000 -0.560362677
O   O20       1.0  0.69602  0.09384  0.93811  1.0000 -0.1439851233
O   O21       1.0  0.65120  0.77725  0.90174  1.0000 -0.560362677
O   O22       1.0  0.95038  0.76829  0.89688  1.0000 -0.5427983356
O   O23       1.0  0.54213  0.87752  0.90569  1.0000 -0.5792444375
O   O24       1.0  0.05200  0.86894  0.90598  1.0000 -0.560362677
O   O25       1.0  0.30398  0.59384  0.93811  1.0000 -0.1439851233
O   O26       1.0  0.84880  0.22275  0.40174  1.0000 -0.560362677
O   O27       1.0  0.54962  0.23171  0.39688  1.0000 -0.5427983356
O   O28       1.0  0.95787  0.12248  0.40569  1.0000 -0.5792444375
O   O29       1.0  0.44800  0.13106  0.40598  1.0000 -0.560362677
O   O30       1.0  0.19602  0.40616  0.43811  1.0000 -0.1439851233
O   O31       1.0  0.84880  0.27725  0.59826  1.0000 -0.560362677
O   O32       1.0  0.54962  0.26829  0.60312  1.0000 -0.5427983356
O   O33       1.0  0.95787  0.37752  0.59431  1.0000 -0.5792444375
O   O34       1.0  0.44800  0.36894  0.59402  1.0000 -0.560362677
O   O35       1.0  0.19602  0.09384  0.56189  1.0000 -0.1439851233
O   O36       1.0  0.65120  0.72275  0.09826  1.0000 -0.560362677
O   O37       1.0  0.95038  0.73171  0.10312  1.0000 -0.5427983356
O   O38       1.0  0.54213  0.62248  0.09431  1.0000 -0.5792444375
O   O39       1.0  0.05200  0.63106  0.09402  1.0000 -0.560362677
O   O40       1.0  0.30398  0.90616  0.06189  1.0000 -0.1439851233
