# DDEC6 charges by PACMAN v1.1 (https://github.com/mtap-research/PACMAN-charge/)
data_2019[Zn][kgd]2[FSR]2
_chemical_formula_sum              "Zn3 H18 C26 N4 O14"
_cell_length_a       7.5445
_cell_length_b       10.0848
_cell_length_c       11.8522
_cell_angle_alpha    106.53
_cell_angle_beta     100.701
_cell_angle_gamma    99.284

_symmetry_space_group_name_H-M    "P 1"
_symmetry_Int_Tables_number       1

loop_
  _symmetry_equiv_pos_as_xyz
  'x, y, z'

loop_
  _atom_site_type_symbol
  _atom_site_label
  _atom_site_symmetry_multiplicity
  _atom_site_fract_x
  _atom_site_fract_y
  _atom_site_fract_z
  _atom_site_occupancy
  _atom_site_charge
Zn  Zn1       1.0  0.40458  0.75132  0.23427  1.0000 0.8157417703
Zn  Zn2       1.0  0.59542  0.24868  0.76573  1.0000 0.8157417703
Zn  Zn3       1.0  0.50000  0.00000  0.50000  1.0000 0.9817607927
H   H1        1.0  0.61210  0.79520  0.36830  1.0000 0.288376354
H   H2        1.0  0.67080  0.79710  0.48450  1.0000 0.3711333501
H   H3        1.0  0.58380  0.72900  0.72760  1.0000 0.129332159
H   H4        1.0  0.31780  0.57140  0.94450  1.0000 0.129332159
H   H5        1.0  0.02460  0.60250  0.25410  1.0000 0.1620196256
H   H6        1.0  0.86190  0.68550  0.26900  1.0000 0.1516098458
H   H7        1.0  0.76400  0.79060  0.09460  1.0000 0.1389335024
H   H8        1.0  0.90460  0.83290  0.92880  1.0000 0.1516098458
H   H9        1.0  0.25040  0.94510  0.90010  1.0000 0.1242228824
H   H10       1.0  0.38790  0.20480  0.63170  1.0000 0.288376354
H   H11       1.0  0.32920  0.20290  0.51550  1.0000 0.3711333501
H   H12       1.0  0.41620  0.27100  0.27240  1.0000 0.129332159
H   H13       1.0  0.68220  0.42860  0.05550  1.0000 0.129332159
H   H14       1.0  0.97540  0.39750  0.74590  1.0000 0.1620196256
H   H15       1.0  0.13810  0.31450  0.73100  1.0000 0.1516098458
H   H16       1.0  0.23600  0.20940  0.90540  1.0000 0.1389335024
H   H17       1.0  0.09540  0.16710  0.07120  1.0000 0.1516098458
H   H18       1.0  0.74960  0.05490  0.09990  1.0000 0.1242228824
C   C1        1.0  0.45400  0.95840  0.73970  1.0000 0.5871994424
C   C2        1.0  0.42020  0.85220  0.80410  1.0000 -0.0179364939
C   C3        1.0  0.50230  0.73640  0.78010  1.0000 -0.1324119341
C   C4        1.0  0.46530  0.63170  0.83290  1.0000 -0.013005221
C   C5        1.0  0.54280  0.50230  0.80010  1.0000 0.5331742096
C   C6        1.0  0.34460  0.64340  0.90910  1.0000 -0.1420422417
C   C7        1.0  0.26290  0.75840  0.93390  1.0000 0.0610742423
C   C8        1.0  0.12860  0.76400  0.00990  1.0000 0.1620196256
C   C9        1.0  0.11890  0.80830  0.37200  1.0000 0.6485716629
C   C10       1.0  0.99110  0.69490  0.26050  1.0000 -0.3144494963
C   C11       1.0  0.88130  0.77620  0.08220  1.0000 -0.0393014696
C   C12       1.0  0.95770  0.79940  0.99150  1.0000 -0.24538023
C   C13       1.0  0.30330  0.86450  0.88200  1.0000 -0.1450949681
C   C14       1.0  0.54600  0.04160  0.26030  1.0000 0.5871994424
C   C15       1.0  0.57980  0.14780  0.19590  1.0000 -0.0179364939
C   C16       1.0  0.49770  0.26360  0.21990  1.0000 -0.1324119341
C   C17       1.0  0.53470  0.36830  0.16710  1.0000 -0.013005221
C   C18       1.0  0.45720  0.49770  0.19990  1.0000 0.5331742096
C   C19       1.0  0.65540  0.35660  0.09090  1.0000 -0.1420422417
C   C20       1.0  0.73710  0.24160  0.06610  1.0000 0.0610742423
C   C21       1.0  0.87140  0.23600  0.99010  1.0000 0.1620196256
C   C22       1.0  0.88110  0.19170  0.62800  1.0000 0.6485716629
C   C23       1.0  0.00890  0.30510  0.73950  1.0000 -0.3144494963
C   C24       1.0  0.11870  0.22380  0.91780  1.0000 -0.0393014696
C   C25       1.0  0.04230  0.20060  0.00850  1.0000 -0.24538023
C   C26       1.0  0.69670  0.13550  0.11800  1.0000 -0.1420422417
N   N1        1.0  0.15690  0.72160  0.10750  1.0000 -0.2922424746
N   N2        1.0  0.00320  0.72950  0.15030  1.0000 0.2171542573
N   N3        1.0  0.84310  0.27840  0.89250  1.0000 -0.2922424746
N   N4        1.0  0.99680  0.27050  0.84970  1.0000 0.2171542573
O   O1        1.0  0.66540  0.85260  0.44080  1.0000 -0.622013874
O   O2        1.0  0.48160  0.91370  0.63620  1.0000 -0.5402611566
O   O3        1.0  0.45120  0.08520  0.79480  1.0000 -0.5402611566
O   O4        1.0  0.46950  0.39700  0.82680  1.0000 -0.5402611566
O   O5        1.0  0.66820  0.49830  0.74730  1.0000 -0.5197282505
O   O6        1.0  0.29270  0.83270  0.37171  1.0000 -0.622013874
O   O7        1.0  0.05840  0.86980  0.45500  1.0000 -0.4375076962
O   O8        1.0  0.33460  0.14740  0.55920  1.0000 -0.622013874
O   O9        1.0  0.51840  0.08630  0.36380  1.0000 -0.5402611566
O   O10       1.0  0.54880  0.91480  0.20520  1.0000 -0.5402611566
O   O11       1.0  0.53050  0.60300  0.17320  1.0000 -0.5402611566
O   O12       1.0  0.33180  0.50170  0.25270  1.0000 -0.5197282505
O   O13       1.0  0.70730  0.16730  0.62829  1.0000 -0.622013874
O   O14       1.0  0.94160  0.13020  0.54500  1.0000 -0.4375076962
