# DDEC6 charges by PACMAN v1.1 (https://github.com/mtap-research/PACMAN-charge/)
data_2019[Dy][nan]3[FSR]2
_chemical_formula_sum              "Dy4 H76 C136 S16 O36"
_cell_length_a       20.856
_cell_length_b       10.3093
_cell_length_c       22.2039
_cell_angle_alpha    90
_cell_angle_beta     121.234
_cell_angle_gamma    90

_symmetry_space_group_name_H-M    "P 1"
_symmetry_Int_Tables_number       1

loop_
  _symmetry_equiv_pos_as_xyz
  'x, y, z'

loop_
  _atom_site_type_symbol
  _atom_site_label
  _atom_site_symmetry_multiplicity
  _atom_site_fract_x
  _atom_site_fract_y
  _atom_site_fract_z
  _atom_site_occupancy
  _atom_site_charge
Dy  Dy1       1.0  0.54198  0.77662  0.53620  1.0000 2.0057538548
Dy  Dy2       1.0  0.45802  0.27662  0.96380  1.0000 2.0057538548
Dy  Dy3       1.0  0.45802  0.22338  0.46380  1.0000 2.0057538548
Dy  Dy4       1.0  0.54198  0.72338  0.03620  1.0000 2.0057538548
H   H1        1.0  0.63690  0.27450  0.02510  1.0000 0.3661190966
H   H2        1.0  0.50630  0.60200  0.61340  1.0000 0.3373141834
H   H3        1.0  0.47690  0.54400  0.55160  1.0000 0.3566751281
H   H4        1.0  0.62910  0.79830  0.42930  1.0000 0.1189110311
H   H5        1.0  0.73230  0.76730  0.41780  1.0000 0.1189110311
H   H6        1.0  0.76210  0.15150  0.42150  1.0000 0.1189110311
H   H7        1.0  0.66020  0.18330  0.43520  1.0000 0.1189110311
H   H8        1.0  0.68440  0.96370  0.28520  1.0000 0.1189110311
H   H9        1.0  0.60570  0.06230  0.17830  1.0000 0.1299598278
H   H10       1.0  0.78170  0.14170  0.15720  1.0000 0.1189110311
H   H11       1.0  0.86020  0.04250  0.26420  1.0000 0.1189110311
H   H12       1.0  0.28100  0.60560  0.59780  1.0000 0.1189110311
H   H13       1.0  0.36760  0.50640  0.57810  1.0000 0.1189110311
H   H14       1.0  0.20200  0.37280  0.39310  1.0000 0.1299598278
H   H15       1.0  0.11480  0.47560  0.41090  1.0000 0.1189110311
H   H16       1.0  0.20670  0.71140  0.70390  1.0000 0.1092352699
H   H17       1.0  0.30070  0.62500  0.80760  1.0000 0.1189110311
H   H18       1.0  0.27340  0.28230  0.71230  1.0000 0.1189110311
H   H19       1.0  0.17630  0.36870  0.60850  1.0000 0.1092352699
H   H20       1.0  0.36310  0.77450  0.47490  1.0000 0.3661190966
H   H21       1.0  0.49370  0.10200  0.88660  1.0000 0.3373141834
H   H22       1.0  0.52310  0.04400  0.94840  1.0000 0.3549360135
H   H23       1.0  0.37090  0.29830  0.07070  1.0000 0.1189110311
H   H24       1.0  0.26770  0.26730  0.08220  1.0000 0.1189110311
H   H25       1.0  0.23790  0.65150  0.07850  1.0000 0.1189110311
H   H26       1.0  0.33980  0.68330  0.06480  1.0000 0.1189110311
H   H27       1.0  0.31560  0.46370  0.21480  1.0000 0.1189110311
H   H28       1.0  0.39430  0.56230  0.32170  1.0000 0.1299598278
H   H29       1.0  0.21830  0.64170  0.34280  1.0000 0.1189110311
H   H30       1.0  0.13980  0.54250  0.23580  1.0000 0.1189110311
H   H31       1.0  0.71900  0.10560  0.90220  1.0000 0.1189110311
H   H32       1.0  0.63240  0.00640  0.92190  1.0000 0.1189110311
H   H33       1.0  0.79800  0.87280  0.10690  1.0000 0.1299598278
H   H34       1.0  0.88520  0.97560  0.08910  1.0000 0.1189110311
H   H35       1.0  0.79330  0.21140  0.79610  1.0000 0.1092352699
H   H36       1.0  0.69930  0.12500  0.69240  1.0000 0.1189110311
H   H37       1.0  0.72660  0.78230  0.78770  1.0000 0.1189110311
H   H38       1.0  0.82370  0.86870  0.89150  1.0000 0.1092352699
H   H39       1.0  0.36310  0.72550  0.97490  1.0000 0.3661190966
H   H40       1.0  0.49370  0.39800  0.38660  1.0000 0.3373141834
H   H41       1.0  0.52310  0.45600  0.44840  1.0000 0.3566751281
H   H42       1.0  0.37090  0.20170  0.57070  1.0000 0.1189110311
H   H43       1.0  0.26770  0.23270  0.58220  1.0000 0.1189110311
H   H44       1.0  0.23790  0.84850  0.57850  1.0000 0.1189110311
H   H45       1.0  0.33980  0.81670  0.56480  1.0000 0.1189110311
H   H46       1.0  0.31560  0.03630  0.71480  1.0000 0.1189110311
H   H47       1.0  0.39430  0.93770  0.82170  1.0000 0.1299598278
H   H48       1.0  0.21830  0.85830  0.84280  1.0000 0.1189110311
H   H49       1.0  0.13980  0.95750  0.73580  1.0000 0.1189110311
H   H50       1.0  0.71900  0.39440  0.40220  1.0000 0.1189110311
H   H51       1.0  0.63240  0.49360  0.42190  1.0000 0.1189110311
H   H52       1.0  0.79800  0.62720  0.60690  1.0000 0.1299598278
H   H53       1.0  0.88520  0.52440  0.58910  1.0000 0.1189110311
H   H54       1.0  0.79330  0.28860  0.29610  1.0000 0.1092352699
H   H55       1.0  0.69930  0.37500  0.19240  1.0000 0.1189110311
H   H56       1.0  0.72660  0.71770  0.28770  1.0000 0.1189110311
H   H57       1.0  0.82370  0.63130  0.39150  1.0000 0.1092352699
H   H58       1.0  0.63690  0.22550  0.52510  1.0000 0.3661190966
H   H59       1.0  0.50630  0.89800  0.11340  1.0000 0.3373141834
H   H60       1.0  0.47690  0.95600  0.05160  1.0000 0.3566751281
H   H61       1.0  0.62910  0.70170  0.92930  1.0000 0.1189110311
H   H62       1.0  0.73230  0.73270  0.91780  1.0000 0.1189110311
H   H63       1.0  0.76210  0.34850  0.92150  1.0000 0.1189110311
H   H64       1.0  0.66020  0.31670  0.93520  1.0000 0.1189110311
H   H65       1.0  0.68440  0.53630  0.78520  1.0000 0.1189110311
H   H66       1.0  0.60570  0.43770  0.67830  1.0000 0.1299598278
H   H67       1.0  0.78170  0.35830  0.65720  1.0000 0.1189110311
H   H68       1.0  0.86020  0.45750  0.76420  1.0000 0.1189110311
H   H69       1.0  0.28100  0.89440  0.09780  1.0000 0.1189110311
H   H70       1.0  0.36760  0.99360  0.07810  1.0000 0.1189110311
H   H71       1.0  0.20200  0.12720  0.89310  1.0000 0.1299598278
H   H72       1.0  0.11480  0.02440  0.91090  1.0000 0.1189110311
H   H73       1.0  0.20670  0.78860  0.20390  1.0000 0.1046338925
H   H74       1.0  0.30070  0.87500  0.30760  1.0000 0.1189110311
H   H75       1.0  0.27340  0.21770  0.21230  1.0000 0.1189110311
H   H76       1.0  0.17630  0.13130  0.10850  1.0000 0.1092352699
C   C1        1.0  0.57320  0.00970  0.45061  1.0000 0.6601131657
C   C2        1.0  0.63557  0.99390  0.43573  1.0000 -0.0280459793
C   C3        1.0  0.65631  0.86940  0.42889  1.0000 -0.0785062373
C   C4        1.0  0.71800  0.85100  0.42140  1.0000 -0.1408833577
C   C5        1.0  0.75821  0.95570  0.41921  1.0000 0.0910703154
C   C6        1.0  0.73609  0.08050  0.42390  1.0000 -0.1493367951
C   C7        1.0  0.67484  0.09960  0.43214  1.0000 -0.0996536379
C   C8        1.0  0.82583  0.93220  0.41465  1.0000 -0.0714603646
C   C9        1.0  0.95831  0.83780  0.45863  1.0000 -0.1122731095
C   C10       1.0  0.83487  0.94570  0.35909  1.0000 -0.0714603646
C   C11       1.0  0.78138  0.99820  0.28810  1.0000 0.1046338925
C   C12       1.0  0.70433  0.00120  0.26033  1.0000 -0.1230756281
C   C13       1.0  0.65706  0.05970  0.19594  1.0000 -0.0785062373
C   C14       1.0  0.68546  0.11450  0.15746  1.0000 -0.0480613414
C   C15       1.0  0.76220  0.10730  0.18310  1.0000 -0.0874442508
C   C16       1.0  0.80917  0.04860  0.24752  1.0000 -0.1589445373
C   C17       1.0  0.63414  0.18450  0.09151  1.0000 0.5856155554
C   C18       1.0  0.01930  0.76540  0.49090  1.0000 -0.0996536379
C   C19       1.0  0.12918  0.61460  0.57758  1.0000 -0.0604814025
C   C20       1.0  0.13272  0.61610  0.51892  1.0000 -0.0714603646
C   C21       1.0  0.18804  0.55030  0.50704  1.0000 0.0910703154
C   C22       1.0  0.26470  0.55930  0.55640  1.0000 -0.1300806006
C   C23       1.0  0.31670  0.50020  0.54450  1.0000 -0.0996536379
C   C24       1.0  0.29335  0.43210  0.48310  1.0000 -0.0128013803
C   C25       1.0  0.21790  0.42090  0.43390  1.0000 -0.0874442508
C   C26       1.0  0.16550  0.48120  0.44500  1.0000 -0.1493367951
C   C27       1.0  0.35060  0.36760  0.47030  1.0000 0.5553196916
C   C28       1.0  0.18353  0.55080  0.64454  1.0000 0.0910703154
C   C29       1.0  0.22050  0.62510  0.70530  1.0000 -0.1493367951
C   C30       1.0  0.27680  0.57380  0.76730  1.0000 -0.0785062373
C   C31       1.0  0.29794  0.44660  0.76979  1.0000 -0.0024255155
C   C32       1.0  0.26021  0.36900  0.71041  1.0000 -0.0996536379
C   C33       1.0  0.20250  0.42110  0.64810  1.0000 -0.1408833577
C   C34       1.0  0.36198  0.39520  0.83737  1.0000 0.5839232603
C   C35       1.0  0.42680  0.50970  0.04939  1.0000 0.6601131657
C   C36       1.0  0.36443  0.49390  0.06427  1.0000 -0.0280459793
C   C37       1.0  0.34369  0.36940  0.07111  1.0000 -0.0785062373
C   C38       1.0  0.28200  0.35100  0.07860  1.0000 -0.1408833577
C   C39       1.0  0.24179  0.45570  0.08079  1.0000 0.0910703154
C   C40       1.0  0.26391  0.58050  0.07610  1.0000 -0.1493367951
C   C41       1.0  0.32516  0.59960  0.06786  1.0000 -0.0996536379
C   C42       1.0  0.17417  0.43220  0.08535  1.0000 -0.0785062373
C   C43       1.0  0.04169  0.33780  0.04137  1.0000 -0.1122731095
C   C44       1.0  0.16513  0.44570  0.14091  1.0000 -0.0714603646
C   C45       1.0  0.21862  0.49820  0.21190  1.0000 0.1046338925
C   C46       1.0  0.29567  0.50120  0.23967  1.0000 -0.1230756281
C   C47       1.0  0.34294  0.55970  0.30406  1.0000 -0.0785062373
C   C48       1.0  0.31454  0.61450  0.34254  1.0000 -0.0480613414
C   C49       1.0  0.23780  0.60730  0.31690  1.0000 -0.0874442508
C   C50       1.0  0.19083  0.54860  0.25248  1.0000 -0.1589445373
C   C51       1.0  0.36586  0.68450  0.40849  1.0000 0.5856155554
C   C52       1.0  0.98070  0.26540  0.00910  1.0000 -0.0996536379
C   C53       1.0  0.87082  0.11460  0.92242  1.0000 -0.0604814025
C   C54       1.0  0.86728  0.11610  0.98108  1.0000 -0.0714603646
C   C55       1.0  0.81196  0.05030  0.99296  1.0000 0.0910703154
C   C56       1.0  0.73530  0.05930  0.94360  1.0000 -0.1300806006
C   C57       1.0  0.68330  0.00020  0.95550  1.0000 -0.0996536379
C   C58       1.0  0.70665  0.93210  0.01690  1.0000 -0.0128013803
C   C59       1.0  0.78210  0.92090  0.06610  1.0000 -0.0874442508
C   C60       1.0  0.83450  0.98120  0.05500  1.0000 -0.1493367951
C   C61       1.0  0.64940  0.86760  0.02970  1.0000 0.5553196916
C   C62       1.0  0.81647  0.05080  0.85546  1.0000 0.0910703154
C   C63       1.0  0.77950  0.12510  0.79470  1.0000 -0.1493367951
C   C64       1.0  0.72320  0.07380  0.73270  1.0000 -0.0785062373
C   C65       1.0  0.70206  0.94660  0.73021  1.0000 -0.0024255155
C   C66       1.0  0.73979  0.86900  0.78959  1.0000 -0.0996536379
C   C67       1.0  0.79750  0.92110  0.85190  1.0000 -0.1408833577
C   C68       1.0  0.63802  0.89520  0.66263  1.0000 0.5839232603
C   C69       1.0  0.42680  0.99030  0.54939  1.0000 0.6601131657
C   C70       1.0  0.36443  0.00610  0.56427  1.0000 -0.0280459793
C   C71       1.0  0.34369  0.13060  0.57111  1.0000 -0.0785062373
C   C72       1.0  0.28200  0.14900  0.57860  1.0000 -0.1408833577
C   C73       1.0  0.24179  0.04430  0.58079  1.0000 0.0910703154
C   C74       1.0  0.26391  0.91950  0.57610  1.0000 -0.1493367951
C   C75       1.0  0.32516  0.90040  0.56786  1.0000 -0.0996536379
C   C76       1.0  0.17417  0.06780  0.58535  1.0000 -0.0785062373
C   C77       1.0  0.04169  0.16220  0.54137  1.0000 -0.1122731095
C   C78       1.0  0.16513  0.05430  0.64091  1.0000 -0.0714603646
C   C79       1.0  0.21862  0.00180  0.71190  1.0000 0.1046338925
C   C80       1.0  0.29567  0.99880  0.73967  1.0000 -0.1230756281
C   C81       1.0  0.34294  0.94030  0.80406  1.0000 -0.0785062373
C   C82       1.0  0.31454  0.88550  0.84254  1.0000 -0.0480613414
C   C83       1.0  0.23780  0.89270  0.81690  1.0000 -0.0874442508
C   C84       1.0  0.19083  0.95140  0.75248  1.0000 -0.1589445373
C   C85       1.0  0.36586  0.81550  0.90849  1.0000 0.5856155554
C   C86       1.0  0.98070  0.23460  0.50910  1.0000 -0.0996536379
C   C87       1.0  0.87082  0.38540  0.42242  1.0000 -0.0604814025
C   C88       1.0  0.86728  0.38390  0.48108  1.0000 -0.0714603646
C   C89       1.0  0.81196  0.44970  0.49296  1.0000 0.0910703154
C   C90       1.0  0.73530  0.44070  0.44360  1.0000 -0.1300806006
C   C91       1.0  0.68330  0.49980  0.45550  1.0000 -0.0996536379
C   C92       1.0  0.70665  0.56790  0.51690  1.0000 -0.0128013803
C   C93       1.0  0.78210  0.57910  0.56610  1.0000 -0.0874442508
C   C94       1.0  0.83450  0.51880  0.55500  1.0000 -0.1493367951
C   C95       1.0  0.64940  0.63240  0.52970  1.0000 0.5553196916
C   C96       1.0  0.81647  0.44920  0.35546  1.0000 0.0910703154
C   C97       1.0  0.77950  0.37490  0.29470  1.0000 -0.1493367951
C   C98       1.0  0.72320  0.42620  0.23270  1.0000 -0.0785062373
C   C99       1.0  0.70206  0.55340  0.23021  1.0000 -0.0024255155
C   C100      1.0  0.73979  0.63100  0.28959  1.0000 -0.0996536379
C   C101      1.0  0.79750  0.57890  0.35190  1.0000 -0.1408833577
C   C102      1.0  0.63802  0.60480  0.16263  1.0000 0.5839232603
C   C103      1.0  0.57320  0.49030  0.95061  1.0000 0.6601131657
C   C104      1.0  0.63557  0.50610  0.93573  1.0000 -0.0280459793
C   C105      1.0  0.65631  0.63060  0.92889  1.0000 -0.0785062373
C   C106      1.0  0.71800  0.64900  0.92140  1.0000 -0.1408833577
C   C107      1.0  0.75821  0.54430  0.91921  1.0000 0.0910703154
C   C108      1.0  0.73609  0.41950  0.92390  1.0000 -0.1493367951
C   C109      1.0  0.67484  0.40040  0.93214  1.0000 -0.0996536379
C   C110      1.0  0.82583  0.56780  0.91465  1.0000 -0.0785062373
C   C111      1.0  0.95831  0.66220  0.95863  1.0000 -0.1122731095
C   C112      1.0  0.83487  0.55430  0.85909  1.0000 -0.0714603646
C   C113      1.0  0.78138  0.50180  0.78810  1.0000 0.1046338925
C   C114      1.0  0.70433  0.49880  0.76033  1.0000 -0.1230756281
C   C115      1.0  0.65706  0.44030  0.69594  1.0000 -0.0785062373
C   C116      1.0  0.68546  0.38550  0.65746  1.0000 -0.0480613414
C   C117      1.0  0.76220  0.39270  0.68310  1.0000 -0.0874442508
C   C118      1.0  0.80917  0.45140  0.74752  1.0000 -0.1589445373
C   C119      1.0  0.63414  0.31550  0.59151  1.0000 0.5856155554
C   C120      1.0  0.01930  0.73460  0.99090  1.0000 -0.0996536379
C   C121      1.0  0.12918  0.88540  0.07758  1.0000 -0.0604814025
C   C122      1.0  0.13272  0.88390  0.01892  1.0000 -0.0714603646
C   C123      1.0  0.18804  0.94970  0.00704  1.0000 0.0910703154
C   C124      1.0  0.26470  0.94070  0.05640  1.0000 -0.1300806006
C   C125      1.0  0.31670  0.99980  0.04450  1.0000 -0.0996536379
C   C126      1.0  0.29335  0.06790  0.98310  1.0000 -0.0128013803
C   C127      1.0  0.21790  0.07910  0.93390  1.0000 -0.0874442508
C   C128      1.0  0.16550  0.01880  0.94500  1.0000 -0.1493367951
C   C129      1.0  0.35060  0.13240  0.97030  1.0000 0.5553196916
C   C130      1.0  0.18353  0.94920  0.14454  1.0000 0.0910703154
C   C131      1.0  0.22050  0.87490  0.20530  1.0000 -0.1493367951
C   C132      1.0  0.27680  0.92620  0.26730  1.0000 -0.0785062373
C   C133      1.0  0.29794  0.05340  0.26979  1.0000 -0.0024255155
C   C134      1.0  0.26021  0.13100  0.21041  1.0000 -0.0996536379
C   C135      1.0  0.20250  0.07890  0.14810  1.0000 -0.1408833577
C   C136      1.0  0.36198  0.10480  0.33737  1.0000 0.5839232603
S   S1        1.0  0.90311  0.87819  0.49474  1.0000 0.0820992613
S   S2        1.0  0.92485  0.90427  0.37469  1.0000 0.0403806154
S   S3        1.0  0.05955  0.71010  0.57806  1.0000 0.0665947496
S   S4        1.0  0.06860  0.71735  0.44961  1.0000 0.0587703803
S   S5        1.0  0.09689  0.37819  0.00526  1.0000 0.0820992613
S   S6        1.0  0.07515  0.40427  0.12531  1.0000 0.0403806154
S   S7        1.0  0.94045  0.21010  0.92194  1.0000 0.0665947496
S   S8        1.0  0.93140  0.21735  0.05039  1.0000 0.0587703803
S   S9        1.0  0.09689  0.12181  0.50526  1.0000 0.0820992613
S   S10       1.0  0.07515  0.09573  0.62531  1.0000 0.0403806154
S   S11       1.0  0.94045  0.28990  0.42194  1.0000 0.0665947496
S   S12       1.0  0.93140  0.28265  0.55039  1.0000 0.0587703803
S   S13       1.0  0.90311  0.62181  0.99474  1.0000 0.0820992613
S   S14       1.0  0.92485  0.59573  0.87469  1.0000 0.0403806154
S   S15       1.0  0.05955  0.78990  0.07806  1.0000 0.0587703803
S   S16       1.0  0.06860  0.78265  0.94961  1.0000 0.0587703803
O   O1        1.0  0.54140  0.91080  0.45432  1.0000 -0.6391776304
O   O2        1.0  0.55731  0.12490  0.45933  1.0000 -0.684181889
O   O3        1.0  0.56772  0.19970  0.06998  1.0000 -0.5593646964
O   O4        1.0  0.66690  0.23030  0.05877  1.0000 -0.4494313127
O   O5        1.0  0.41990  0.39210  0.51210  1.0000 -0.6391776304
O   O6        1.0  0.32992  0.28790  0.42201  1.0000 -0.5815986892
O   O7        1.0  0.39649  0.29340  0.83689  1.0000 -0.6391776304
O   O8        1.0  0.38170  0.45250  0.89469  1.0000 -0.6184802255
O   O9        1.0  0.50152  0.60380  0.57454  1.0000 -0.733061572
O   O10       1.0  0.45860  0.41080  0.04568  1.0000 -0.6391776304
O   O11       1.0  0.44269  0.62490  0.04067  1.0000 -0.684181889
O   O12       1.0  0.43228  0.69970  0.43002  1.0000 -0.5593646964
O   O13       1.0  0.33310  0.73030  0.44123  1.0000 -0.4494313127
O   O14       1.0  0.58010  0.89210  0.98790  1.0000 -0.6391776304
O   O15       1.0  0.67008  0.78790  0.07799  1.0000 -0.5815986892
O   O16       1.0  0.60351  0.79340  0.66311  1.0000 -0.6391776304
O   O17       1.0  0.61830  0.95250  0.60531  1.0000 -0.6184802255
O   O18       1.0  0.49848  0.10380  0.92546  1.0000 -0.733061572
O   O19       1.0  0.45860  0.08920  0.54568  1.0000 -0.6391776304
O   O20       1.0  0.44269  0.87510  0.54067  1.0000 -0.684181889
O   O21       1.0  0.43228  0.80030  0.93002  1.0000 -0.5593646964
O   O22       1.0  0.33310  0.76970  0.94123  1.0000 -0.4494313127
O   O23       1.0  0.58010  0.60790  0.48790  1.0000 -0.6391776304
O   O24       1.0  0.67008  0.71210  0.57799  1.0000 -0.5815986892
O   O25       1.0  0.60351  0.70660  0.16311  1.0000 -0.6391776304
O   O26       1.0  0.61830  0.54750  0.10531  1.0000 -0.6184802255
O   O27       1.0  0.49848  0.39620  0.42546  1.0000 -0.733061572
O   O28       1.0  0.54140  0.58920  0.95432  1.0000 -0.6391776304
O   O29       1.0  0.55731  0.37510  0.95933  1.0000 -0.684181889
O   O30       1.0  0.56772  0.30030  0.56998  1.0000 -0.5593646964
O   O31       1.0  0.66690  0.26970  0.55877  1.0000 -0.4494313127
O   O32       1.0  0.41990  0.10790  0.01210  1.0000 -0.6391776304
O   O33       1.0  0.32992  0.21210  0.92201  1.0000 -0.5815986892
O   O34       1.0  0.39649  0.20660  0.33689  1.0000 -0.6391776304
O   O35       1.0  0.38170  0.04750  0.39469  1.0000 -0.6184802255
O   O36       1.0  0.50152  0.89620  0.07454  1.0000 -0.733061572
