# DDEC6 charges by PACMAN v1.1 (https://github.com/mtap-research/PACMAN-charge/)
data_2019[La][kgd]2[FSR]1
_chemical_formula_sum              "La2 H38 C54 O16"
_cell_length_a       9.2505
_cell_length_b       13.8116
_cell_length_c       15.4583
_cell_angle_alpha    106.208
_cell_angle_beta     95.139
_cell_angle_gamma    96.863

_symmetry_space_group_name_H-M    "P 1"
_symmetry_Int_Tables_number       1

loop_
  _symmetry_equiv_pos_as_xyz
  'x, y, z'

loop_
  _atom_site_type_symbol
  _atom_site_label
  _atom_site_symmetry_multiplicity
  _atom_site_fract_x
  _atom_site_fract_y
  _atom_site_fract_z
  _atom_site_occupancy
  _atom_site_charge
La  La1       1.0  0.58340  0.16316  0.04447  1.0000 1.8028740383
La  La2       1.0  0.41660  0.83684  0.95553  1.0000 1.8028740383
H   H1        1.0  0.27270  0.17030  0.07250  1.0000 0.3615511454
H   H2        1.0  0.27150  0.07240  0.01690  1.0000 0.3693989612
H   H3        1.0  0.89440  0.25510  0.04460  1.0000 0.3615511454
H   H4        1.0  0.81470  0.33580  0.04730  1.0000 0.3780795432
H   H5        1.0  0.99420  0.00700  0.37830  1.0000 0.1113882884
H   H6        1.0  0.85890  0.09720  0.30400  1.0000 0.1177513655
H   H7        1.0  0.02420  0.97500  0.07430  1.0000 0.1177513655
H   H8        1.0  0.17240  0.89460  0.15050  1.0000 0.1177513655
H   H9        1.0  0.44600  0.52280  0.07040  1.0000 0.1262079042
H   H10       1.0  0.37390  0.67420  0.14680  1.0000 0.1262079042
H   H11       1.0  0.36910  0.58140  0.37080  1.0000 0.1113882884
H   H12       1.0  0.44430  0.43190  0.29460  1.0000 0.1262079042
H   H13       1.0  0.20060  0.76740  0.21160  1.0000 0.1177513655
H   H14       1.0  0.21410  0.98910  0.44540  1.0000 0.1113882884
H   H15       1.0  0.41940  0.74890  0.44120  1.0000 0.1113882884
H   H16       1.0  0.35320  0.06540  0.56990  1.0000 0.1113882884
H   H17       1.0  0.42790  0.13230  0.72360  1.0000 0.1177513655
H   H18       1.0  0.47960  0.85310  0.73940  1.0000 0.1262079042
H   H19       1.0  0.41080  0.78780  0.58500  1.0000 0.1177513655
H   H20       1.0  0.72730  0.82970  0.92750  1.0000 0.3615511454
H   H21       1.0  0.72850  0.92760  0.98310  1.0000 0.3693989612
H   H22       1.0  0.10560  0.74490  0.95540  1.0000 0.3615511454
H   H23       1.0  0.18530  0.66420  0.95270  1.0000 0.3780795432
H   H24       1.0  0.00580  0.99300  0.62170  1.0000 0.1113882884
H   H25       1.0  0.14110  0.90280  0.69600  1.0000 0.1177513655
H   H26       1.0  0.97580  0.02500  0.92570  1.0000 0.1177513655
H   H27       1.0  0.82760  0.10540  0.84950  1.0000 0.1177513655
H   H28       1.0  0.55400  0.47720  0.92960  1.0000 0.1177513655
H   H29       1.0  0.62610  0.32580  0.85320  1.0000 0.1262079042
H   H30       1.0  0.63090  0.41860  0.62920  1.0000 0.1113882884
H   H31       1.0  0.55570  0.56810  0.70540  1.0000 0.1262079042
H   H32       1.0  0.79940  0.23260  0.78840  1.0000 0.1177513655
H   H33       1.0  0.78590  0.01090  0.55460  1.0000 0.1113882884
H   H34       1.0  0.58060  0.25110  0.55880  1.0000 0.1113882884
H   H35       1.0  0.64680  0.93460  0.43010  1.0000 0.1113882884
H   H36       1.0  0.57210  0.86770  0.27640  1.0000 0.1177513655
H   H37       1.0  0.52040  0.14690  0.26060  1.0000 0.1262079042
H   H38       1.0  0.58920  0.21220  0.41500  1.0000 0.1177513655
C   C1        1.0  0.10160  0.94230  0.27240  1.0000 0.079843771
C   C2        1.0  0.00330  0.00250  0.31790  1.0000 -0.1521555704
C   C3        1.0  0.92000  0.05490  0.27270  1.0000 -0.0900077791
C   C4        1.0  0.92680  0.04500  0.18190  1.0000 -0.0270300658
C   C5        1.0  0.02040  0.98320  0.13590  1.0000 -0.1010936328
C   C6        1.0  0.10790  0.93410  0.18150  1.0000 -0.1327370309
C   C7        1.0  0.83030  0.09790  0.13360  1.0000 0.5574646093
C   C8        1.0  0.50580  0.04550  0.84750  1.0000 0.5849196411
C   C9        1.0  0.50340  0.36300  0.12670  1.0000 0.5548848606
C   C10       1.0  0.45440  0.46150  0.17480  1.0000 -0.0270300658
C   C11       1.0  0.43150  0.53490  0.13100  1.0000 -0.0900077791
C   C12       1.0  0.38740  0.62560  0.17670  1.0000 -0.1374198698
C   C13       1.0  0.36330  0.64450  0.26670  1.0000 0.0689049683
C   C14       1.0  0.38510  0.57010  0.31040  1.0000 -0.1521555704
C   C15       1.0  0.43010  0.48050  0.26470  1.0000 -0.0900077791
C   C16       1.0  0.31890  0.74180  0.31780  1.0000 0.079843771
C   C17       1.0  0.23210  0.79460  0.27350  1.0000 -0.1784001194
C   C18       1.0  0.19250  0.88690  0.32060  1.0000 0.079843771
C   C19       1.0  0.23950  0.92700  0.41380  1.0000 -0.2004258648
C   C20       1.0  0.32400  0.87550  0.46020  1.0000 0.079843771
C   C21       1.0  0.36260  0.78360  0.41100  1.0000 -0.2004258648
C   C22       1.0  0.37250  0.91910  0.55970  1.0000 0.0689049683
C   C23       1.0  0.37920  0.02230  0.60340  1.0000 -0.1521555704
C   C24       1.0  0.42380  0.06280  0.69600  1.0000 -0.0900077791
C   C25       1.0  0.46240  0.99980  0.74760  1.0000 -0.0384971701
C   C26       1.0  0.45550  0.89620  0.70540  1.0000 -0.0900077791
C   C27       1.0  0.41280  0.85700  0.61270  1.0000 -0.1521555704
C   C28       1.0  0.89840  0.05770  0.72760  1.0000 0.079843771
C   C29       1.0  0.99670  0.99750  0.68210  1.0000 -0.1521555704
C   C30       1.0  0.08000  0.94510  0.72730  1.0000 -0.0900077791
C   C31       1.0  0.07320  0.95500  0.81810  1.0000 -0.0270300658
C   C32       1.0  0.97960  0.01680  0.86410  1.0000 -0.1010936328
C   C33       1.0  0.89210  0.06590  0.81850  1.0000 -0.1327370309
C   C34       1.0  0.16970  0.90210  0.86640  1.0000 0.5574646093
C   C35       1.0  0.49420  0.95450  0.15250  1.0000 0.5849196411
C   C36       1.0  0.49660  0.63700  0.87330  1.0000 0.5574646093
C   C37       1.0  0.54560  0.53850  0.82520  1.0000 -0.0270300658
C   C38       1.0  0.56850  0.46510  0.86900  1.0000 -0.0900077791
C   C39       1.0  0.61260  0.37440  0.82330  1.0000 -0.1374198698
C   C40       1.0  0.63670  0.35550  0.73330  1.0000 0.0689049683
C   C41       1.0  0.61490  0.42990  0.68960  1.0000 -0.1521555704
C   C42       1.0  0.56990  0.51950  0.73530  1.0000 -0.0900077791
C   C43       1.0  0.68110  0.25820  0.68220  1.0000 0.079843771
C   C44       1.0  0.76790  0.20540  0.72650  1.0000 -0.1784001194
C   C45       1.0  0.80750  0.11310  0.67940  1.0000 0.079843771
C   C46       1.0  0.76050  0.07300  0.58620  1.0000 -0.2004258648
C   C47       1.0  0.67600  0.12450  0.53980  1.0000 0.079843771
C   C48       1.0  0.63740  0.21640  0.58900  1.0000 -0.2004258648
C   C49       1.0  0.62750  0.08090  0.44030  1.0000 0.0689049683
C   C50       1.0  0.62080  0.97770  0.39660  1.0000 -0.1521555704
C   C51       1.0  0.57620  0.93720  0.30400  1.0000 -0.0900077791
C   C52       1.0  0.53760  0.00020  0.25240  1.0000 -0.0384971701
C   C53       1.0  0.54450  0.10380  0.29460  1.0000 -0.0900077791
C   C54       1.0  0.58720  0.14300  0.38730  1.0000 -0.1521555704
O   O1        1.0  0.80030  0.06370  0.04730  1.0000 -0.6222562395
O   O2        1.0  0.77710  0.17250  0.17830  1.0000 -0.5710504853
O   O3        1.0  0.50450  0.98920  0.90050  1.0000 -0.6772025429
O   O4        1.0  0.30690  0.13660  0.02310  1.0000 -0.7211501353
O   O5        1.0  0.54420  0.14010  0.87760  1.0000 -0.5710504853
O   O6        1.0  0.81150  0.26920  0.01860  1.0000 -0.7211501353
O   O7        1.0  0.51480  0.34060  0.04390  1.0000 -0.585414698
O   O8        1.0  0.53190  0.30330  0.17320  1.0000 -0.6222562395
O   O9        1.0  0.19970  0.93630  0.95270  1.0000 -0.6222562395
O   O10       1.0  0.22290  0.82750  0.82170  1.0000 -0.5710504853
O   O11       1.0  0.49550  0.01080  0.09950  1.0000 -0.6772025429
O   O12       1.0  0.69310  0.86340  0.97690  1.0000 -0.7211501353
O   O13       1.0  0.45580  0.85990  0.12240  1.0000 -0.5710504853
O   O14       1.0  0.18850  0.73080  0.98140  1.0000 -0.7211501353
O   O15       1.0  0.48520  0.65940  0.95610  1.0000 -0.585414698
O   O16       1.0  0.46810  0.69670  0.82680  1.0000 -0.6222562395
