# DDEC6 charges by PACMAN v1.1 (https://github.com/mtap-research/PACMAN-charge/)
data_2019[Cd][hcb]2[FSR]3
_chemical_formula_sum              "Cd2 H46 C38 S2 N8 O8"
_cell_length_a       10.4844
_cell_length_b       11.6919
_cell_length_c       12.899
_cell_angle_alpha    114.063
_cell_angle_beta     104.545
_cell_angle_gamma    95.482

_symmetry_space_group_name_H-M    "P 1"
_symmetry_Int_Tables_number       1

loop_
  _symmetry_equiv_pos_as_xyz
  'x, y, z'

loop_
  _atom_site_type_symbol
  _atom_site_label
  _atom_site_symmetry_multiplicity
  _atom_site_fract_x
  _atom_site_fract_y
  _atom_site_fract_z
  _atom_site_occupancy
  _atom_site_charge
Cd  Cd1       1.0  0.21936  0.69486  0.82046  1.0000 0.7668798248
Cd  Cd2       1.0  0.78064  0.30514  0.17954  1.0000 0.7668798248
H   H1        1.0  0.01600  0.84000  0.83100  1.0000 0.2900322506
H   H2        1.0  0.97200  0.75300  0.87000  1.0000 0.3011321703
H   H3        1.0  0.74300  0.19100  0.94000  1.0000 0.2232154885
H   H4        1.0  0.81700  0.55800  0.23000  1.0000 0.2403157631
H   H5        1.0  0.43470  0.81520  0.74020  1.0000 0.103234982
H   H6        1.0  0.25920  0.00880  0.96640  1.0000 0.0893992315
H   H7        1.0  0.38330  0.19840  0.99880  1.0000 0.1489066313
H   H8        1.0  0.56570  0.99920  0.76820  1.0000 0.1285759675
H   H9        1.0  0.56920  0.24350  0.83210  1.0000 0.1222124377
H   H10       1.0  0.54160  0.31650  0.95390  1.0000 0.1285759675
H   H11       1.0  0.77960  0.36470  0.89580  1.0000 0.110028522
H   H12       1.0  0.90090  0.35480  0.98960  1.0000 0.0893992315
H   H13       1.0  0.85790  0.56180  0.06010  1.0000 0.103234982
H   H14       1.0  0.71290  0.50420  0.05310  1.0000 0.1222124377
H   H15       1.0  0.02570  0.64200  0.23320  1.0000 0.110028522
H   H16       1.0  0.05570  0.50470  0.20020  1.0000 0.110028522
H   H17       1.0  0.17090  0.46870  0.36270  1.0000 0.1285759675
H   H18       1.0  0.23410  0.51300  0.56070  1.0000 0.0893992315
H   H19       1.0  0.03740  0.77940  0.62940  1.0000 0.0893992315
H   H20       1.0  0.96320  0.73710  0.43340  1.0000 0.1405142712
H   H21       1.0  0.34210  0.26730  0.55190  1.0000 0.1222124377
H   H22       1.0  0.61450  0.67630  0.72410  1.0000 0.110028522
H   H23       1.0  0.70030  0.80470  0.65290  1.0000 0.0893992315
H   H24       1.0  0.98400  0.16000  0.16900  1.0000 0.2900322506
H   H25       1.0  0.02800  0.24700  0.13000  1.0000 0.3011321703
H   H26       1.0  0.25700  0.80900  0.06000  1.0000 0.2232154885
H   H27       1.0  0.18300  0.44200  0.77000  1.0000 0.2403157631
H   H28       1.0  0.56530  0.18480  0.25980  1.0000 0.103234982
H   H29       1.0  0.74080  0.99120  0.03360  1.0000 0.0893992315
H   H30       1.0  0.61670  0.80160  0.00120  1.0000 0.1489066313
H   H31       1.0  0.43430  0.00080  0.23180  1.0000 0.1285759675
H   H32       1.0  0.43080  0.75650  0.16790  1.0000 0.1222124377
H   H33       1.0  0.45840  0.68350  0.04610  1.0000 0.1285759675
H   H34       1.0  0.22040  0.63530  0.10420  1.0000 0.110028522
H   H35       1.0  0.09910  0.64520  0.01040  1.0000 0.0893992315
H   H36       1.0  0.14210  0.43820  0.93990  1.0000 0.103234982
H   H37       1.0  0.28710  0.49580  0.94690  1.0000 0.1222124377
H   H38       1.0  0.97430  0.35800  0.76680  1.0000 0.110028522
H   H39       1.0  0.94430  0.49530  0.79980  1.0000 0.110028522
H   H40       1.0  0.82910  0.53130  0.63730  1.0000 0.1285759675
H   H41       1.0  0.76590  0.48700  0.43930  1.0000 0.0893992315
H   H42       1.0  0.96260  0.22060  0.37060  1.0000 0.0893992315
H   H43       1.0  0.03680  0.26290  0.56660  1.0000 0.1405142712
H   H44       1.0  0.65790  0.73270  0.44810  1.0000 0.1222124377
H   H45       1.0  0.38550  0.32370  0.27590  1.0000 0.110028522
H   H46       1.0  0.29970  0.19530  0.34710  1.0000 0.0893992315
C   C1        1.0  0.42520  0.89370  0.79390  1.0000 0.073133407
C   C2        1.0  0.32180  0.00680  0.92610  1.0000 0.047646554
C   C3        1.0  0.39630  0.12120  0.94610  1.0000 -0.1876986122
C   C4        1.0  0.49040  0.12230  0.88840  1.0000 0.1405142712
C   C5        1.0  0.50400  0.00370  0.80960  1.0000 -0.216721954
C   C6        1.0  0.57560  0.24420  0.90870  1.0000 -0.1510971544
C   C7        1.0  0.80890  0.36670  0.97420  1.0000 -0.1195980088
C   C8        1.0  0.80540  0.49400  0.06710  1.0000 -0.1195980088
C   C9        1.0  0.00740  0.56450  0.24270  1.0000 -0.1585295183
C   C10       1.0  0.14030  0.53280  0.41530  1.0000 -0.2079408897
C   C11       1.0  0.18010  0.56160  0.53590  1.0000 0.073133407
C   C12       1.0  0.06560  0.71460  0.57520  1.0000 0.047646554
C   C13       1.0  0.02020  0.68950  0.45650  1.0000 -0.2079408897
C   C14       1.0  0.05730  0.59690  0.37370  1.0000 0.1285759675
C   C15       1.0  0.37790  0.32050  0.52390  1.0000 -0.1195980088
C   C16       1.0  0.45470  0.44030  0.60310  1.0000 -0.1510971544
C   C17       1.0  0.51370  0.52290  0.56320  1.0000 0.0593856404
C   C18       1.0  0.59560  0.64650  0.64190  1.0000 -0.1585295183
C   C19       1.0  0.64750  0.72290  0.59960  1.0000 -0.1195980088
C   C20       1.0  0.57480  0.10630  0.20610  1.0000 0.073133407
C   C21       1.0  0.67820  0.99320  0.07390  1.0000 0.047646554
C   C22       1.0  0.60370  0.87880  0.05390  1.0000 -0.1876986122
C   C23       1.0  0.50960  0.87770  0.11160  1.0000 0.1405142712
C   C24       1.0  0.49600  0.99630  0.19040  1.0000 -0.216721954
C   C25       1.0  0.42440  0.75580  0.09130  1.0000 -0.1510971544
C   C26       1.0  0.19110  0.63330  0.02580  1.0000 -0.1195980088
C   C27       1.0  0.19460  0.50600  0.93290  1.0000 -0.1195980088
C   C28       1.0  0.99260  0.43550  0.75730  1.0000 -0.1585295183
C   C29       1.0  0.85970  0.46720  0.58470  1.0000 -0.2079408897
C   C30       1.0  0.81990  0.43840  0.46410  1.0000 0.073133407
C   C31       1.0  0.93440  0.28540  0.42480  1.0000 0.047646554
C   C32       1.0  0.97980  0.31050  0.54350  1.0000 -0.2079408897
C   C33       1.0  0.94270  0.40310  0.62630  1.0000 0.1285759675
C   C34       1.0  0.62210  0.67950  0.47610  1.0000 -0.1195980088
C   C35       1.0  0.54530  0.55970  0.39690  1.0000 -0.1510971544
C   C36       1.0  0.48630  0.47710  0.43680  1.0000 0.0593856404
C   C37       1.0  0.40440  0.35350  0.35810  1.0000 -0.1585295183
C   C38       1.0  0.35250  0.27710  0.40040  1.0000 -0.1195980088
S   S1        1.0  0.46796  0.49379  0.75747  1.0000 1.1464722136
S   S2        1.0  0.53204  0.50621  0.24253  1.0000 1.1464722136
N   N1        1.0  0.33520  0.89240  0.85130  1.0000 -0.263848724
N   N2        1.0  0.71970  0.26080  0.97510  1.0000 -0.3187916746
N   N3        1.0  0.86040  0.50670  0.19010  1.0000 -0.3187916746
N   N4        1.0  0.14590  0.65340  0.61660  1.0000 -0.241651619
N   N5        1.0  0.66480  0.10760  0.14870  1.0000 -0.263848724
N   N6        1.0  0.28030  0.73920  0.02490  1.0000 -0.3187916746
N   N7        1.0  0.13960  0.49330  0.80990  1.0000 -0.3187916746
N   N8        1.0  0.85410  0.34660  0.38340  1.0000 -0.241651619
O   O1        1.0  0.41620  0.61150  0.78985  1.0000 -0.6608824452
O   O2        1.0  0.03070  0.77630  0.84380  1.0000 -0.6829683205
O   O3        1.0  0.38360  0.39290  0.76260  1.0000 -0.6273262521
O   O4        1.0  0.60990  0.51850  0.82290  1.0000 -0.6412414034
O   O5        1.0  0.58380  0.38850  0.21015  1.0000 -0.6608824452
O   O6        1.0  0.96930  0.22370  0.15620  1.0000 -0.6829683205
O   O7        1.0  0.61640  0.60710  0.23740  1.0000 -0.6273262521
O   O8        1.0  0.39010  0.48150  0.17710  1.0000 -0.6412414034
