# DDEC6 charges by PACMAN v1.1 (https://github.com/mtap-research/PACMAN-charge/)
data_2019[Zn][sql]2[FSR]11
_chemical_formula_sum              "Zn4 H48 C72 N8 O16"
_cell_length_a       12.7894
_cell_length_b       12.7894
_cell_length_c       16.235
_cell_angle_alpha    62.1561
_cell_angle_beta     117.844
_cell_angle_gamma    127.096

_symmetry_space_group_name_H-M    "P 1"
_symmetry_Int_Tables_number       1

loop_
  _symmetry_equiv_pos_as_xyz
  'x, y, z'

loop_
  _atom_site_type_symbol
  _atom_site_label
  _atom_site_symmetry_multiplicity
  _atom_site_fract_x
  _atom_site_fract_y
  _atom_site_fract_z
  _atom_site_occupancy
  _atom_site_charge
Zn  Zn1       1.0  0.57942  0.95578  0.64189  1.0000 0.8049130905
Zn  Zn2       1.0  0.95578  0.57942  0.85811  1.0000 0.8053325284
Zn  Zn3       1.0  0.42058  0.04422  0.35811  1.0000 0.8049130905
Zn  Zn4       1.0  0.04422  0.42058  0.14189  1.0000 0.8049130905
H   H1        1.0  0.27998  0.83224  0.63679  1.0000 0.1092653397
H   H2        1.0  0.26301  0.45929  0.63994  1.0000 0.1308991779
H   H3        1.0  0.79761  0.71751  0.88226  1.0000 0.1308991779
H   H4        1.0  0.04986  0.30878  0.57812  1.0000 0.1308991779
H   H5        1.0  0.07761  0.62681  0.64140  1.0000 0.1437374521
H   H6        1.0  0.46056  0.66728  0.63941  1.0000 0.1092653397
H   H7        1.0  0.84404  0.10690  0.57857  1.0000 0.1092653397
H   H8        1.0  0.93955  0.41803  0.70846  1.0000 0.1455641258
H   H9        1.0  0.73790  0.21404  0.70543  1.0000 0.1092653397
H   H10       1.0  0.76762  0.50884  0.15710  1.0000 0.1092653397
H   H11       1.0  0.62044  0.57734  0.13368  1.0000 0.1092653397
H   H12       1.0  0.57200  0.72714  0.98730  1.0000 0.1092653397
H   H13       1.0  0.83224  0.27998  0.86321  1.0000 0.1092653397
H   H14       1.0  0.45929  0.26301  0.86006  1.0000 0.1308991779
H   H15       1.0  0.71751  0.79761  0.61774  1.0000 0.1308991779
H   H16       1.0  0.30878  0.04986  0.92188  1.0000 0.1308991779
H   H17       1.0  0.62681  0.07761  0.85860  1.0000 0.1437374521
H   H18       1.0  0.66728  0.46056  0.86059  1.0000 0.1092653397
H   H19       1.0  0.10690  0.84404  0.92143  1.0000 0.1092653397
H   H20       1.0  0.41803  0.93955  0.79154  1.0000 0.1455641258
H   H21       1.0  0.21404  0.73790  0.79457  1.0000 0.1092653397
H   H22       1.0  0.50884  0.76762  0.34290  1.0000 0.1092653397
H   H23       1.0  0.57734  0.62044  0.36632  1.0000 0.1092653397
H   H24       1.0  0.72714  0.57200  0.51270  1.0000 0.1092653397
H   H25       1.0  0.72002  0.16776  0.36321  1.0000 0.1092653397
H   H26       1.0  0.73699  0.54071  0.36006  1.0000 0.1308991779
H   H27       1.0  0.20239  0.28249  0.11774  1.0000 0.1308991779
H   H28       1.0  0.95014  0.69122  0.42188  1.0000 0.1308991779
H   H29       1.0  0.92239  0.37319  0.35860  1.0000 0.1437374521
H   H30       1.0  0.53944  0.33272  0.36059  1.0000 0.1092653397
H   H31       1.0  0.15596  0.89310  0.42143  1.0000 0.1092653397
H   H32       1.0  0.06045  0.58197  0.29154  1.0000 0.1455641258
H   H33       1.0  0.26210  0.78596  0.29457  1.0000 0.1092653397
H   H34       1.0  0.23238  0.49116  0.84290  1.0000 0.1092653397
H   H35       1.0  0.37956  0.42266  0.86632  1.0000 0.1092653397
H   H36       1.0  0.42800  0.27286  0.01270  1.0000 0.1092653397
H   H37       1.0  0.16776  0.72002  0.13679  1.0000 0.1092653397
H   H38       1.0  0.54071  0.73699  0.13994  1.0000 0.1308991779
H   H39       1.0  0.28249  0.20239  0.38226  1.0000 0.1308991779
H   H40       1.0  0.69122  0.95014  0.07812  1.0000 0.1308991779
H   H41       1.0  0.37319  0.92239  0.14140  1.0000 0.1437374521
H   H42       1.0  0.33272  0.53944  0.13941  1.0000 0.1092653397
H   H43       1.0  0.89310  0.15596  0.07857  1.0000 0.1092653397
H   H44       1.0  0.58197  0.06045  0.20846  1.0000 0.1455641258
H   H45       1.0  0.78596  0.26210  0.20543  1.0000 0.1092653397
H   H46       1.0  0.49116  0.23238  0.65710  1.0000 0.1092653397
H   H47       1.0  0.42266  0.37956  0.63368  1.0000 0.1092653397
H   H48       1.0  0.27286  0.42800  0.48730  1.0000 0.1092653397
C   C1        1.0  0.89595  0.56745  0.03670  1.0000 0.5662672985
C   C2        1.0  0.01811  0.38789  0.64261  1.0000 0.1092653397
C   C3        1.0  0.27641  0.75519  0.63800  1.0000 0.084029248
C   C4        1.0  0.26413  0.53427  0.63990  1.0000 -0.1981220748
C   C5        1.0  0.76402  0.69158  0.93390  1.0000 -0.1273836624
C   C6        1.0  0.14693  0.51971  0.64070  1.0000 0.1092653397
C   C7        1.0  0.98698  0.29182  0.60450  1.0000 -0.1981220748
C   C8        1.0  0.64772  0.83148  0.82660  1.0000 0.5452487338
C   C9        1.0  0.15463  0.63277  0.64020  1.0000 -0.1911442708
C   C10       1.0  0.38137  0.65903  0.63900  1.0000 0.0912713707
C   C11       1.0  0.86365  0.17095  0.60520  1.0000 0.084029248
C   C12       1.0  0.68082  0.73718  0.92030  1.0000 -0.0137721
C   C13       1.0  0.92258  0.35622  0.68100  1.0000 -0.1821116004
C   C14       1.0  0.80207  0.23353  0.67900  1.0000 0.0912713707
C   C15       1.0  0.74516  0.56644  0.09680  1.0000 -0.1038495134
C   C16       1.0  0.79913  0.60827  0.02270  1.0000 -0.0352507439
C   C17       1.0  0.65871  0.60829  0.08330  1.0000 -0.1038495134
C   C18       1.0  0.62826  0.69574  0.99580  1.0000 -0.1097676623
C   C19       1.0  0.56745  0.89595  0.46330  1.0000 0.5662672985
C   C20       1.0  0.38789  0.01811  0.85739  1.0000 0.1092653397
C   C21       1.0  0.75519  0.27641  0.86200  1.0000 0.084029248
C   C22       1.0  0.53427  0.26413  0.86010  1.0000 -0.1981220748
C   C23       1.0  0.69158  0.76402  0.56610  1.0000 -0.1273836624
C   C24       1.0  0.51971  0.14693  0.85930  1.0000 0.1092653397
C   C25       1.0  0.29182  0.98698  0.89550  1.0000 -0.1981220748
C   C26       1.0  0.83148  0.64772  0.67340  1.0000 0.5452487338
C   C27       1.0  0.63277  0.15463  0.85980  1.0000 -0.1911442708
C   C28       1.0  0.65903  0.38137  0.86100  1.0000 0.0912713707
C   C29       1.0  0.17095  0.86365  0.89480  1.0000 0.084029248
C   C30       1.0  0.73718  0.68082  0.57970  1.0000 -0.0137721
C   C31       1.0  0.35622  0.92258  0.81900  1.0000 -0.1821116004
C   C32       1.0  0.23353  0.80207  0.82100  1.0000 0.0912713707
C   C33       1.0  0.56644  0.74516  0.40320  1.0000 -0.1038495134
C   C34       1.0  0.60827  0.79913  0.47730  1.0000 -0.0352507439
C   C35       1.0  0.60829  0.65871  0.41670  1.0000 -0.1038495134
C   C36       1.0  0.69574  0.62826  0.50420  1.0000 -0.1097676623
C   C37       1.0  0.10405  0.43255  0.96330  1.0000 0.5662672985
C   C38       1.0  0.98189  0.61211  0.35739  1.0000 0.1092653397
C   C39       1.0  0.72359  0.24481  0.36200  1.0000 0.084029248
C   C40       1.0  0.73587  0.46573  0.36010  1.0000 -0.1981220748
C   C41       1.0  0.23598  0.30842  0.06610  1.0000 -0.1273836624
C   C42       1.0  0.85307  0.48029  0.35930  1.0000 0.1092653397
C   C43       1.0  0.01302  0.70818  0.39550  1.0000 -0.1981220748
C   C44       1.0  0.35228  0.16852  0.17340  1.0000 0.5452487338
C   C45       1.0  0.84537  0.36723  0.35980  1.0000 -0.1911442708
C   C46       1.0  0.61863  0.34097  0.36100  1.0000 0.0912713707
C   C47       1.0  0.13635  0.82905  0.39480  1.0000 0.084029248
C   C48       1.0  0.31918  0.26282  0.07970  1.0000 -0.0137721
C   C49       1.0  0.07742  0.64378  0.31900  1.0000 -0.1821116004
C   C50       1.0  0.19793  0.76647  0.32100  1.0000 0.0912713707
C   C51       1.0  0.25484  0.43356  0.90320  1.0000 -0.1038495134
C   C52       1.0  0.20087  0.39173  0.97730  1.0000 -0.0352507439
C   C53       1.0  0.34129  0.39171  0.91670  1.0000 -0.1038495134
C   C54       1.0  0.37174  0.30426  0.00420  1.0000 -0.1097676623
C   C55       1.0  0.43255  0.10405  0.53670  1.0000 0.5662672985
C   C56       1.0  0.61211  0.98189  0.14261  1.0000 0.1092653397
C   C57       1.0  0.24481  0.72359  0.13800  1.0000 0.084029248
C   C58       1.0  0.46573  0.73587  0.13990  1.0000 -0.1981220748
C   C59       1.0  0.30842  0.23598  0.43390  1.0000 -0.1273836624
C   C60       1.0  0.48029  0.85307  0.14070  1.0000 0.1092653397
C   C61       1.0  0.70818  0.01302  0.10450  1.0000 -0.1981220748
C   C62       1.0  0.16852  0.35228  0.32660  1.0000 0.5452487338
C   C63       1.0  0.36723  0.84537  0.14020  1.0000 -0.1911442708
C   C64       1.0  0.34097  0.61863  0.13900  1.0000 0.0912713707
C   C65       1.0  0.82905  0.13635  0.10520  1.0000 0.084029248
C   C66       1.0  0.26282  0.31918  0.42030  1.0000 -0.0137721
C   C67       1.0  0.64378  0.07742  0.18100  1.0000 -0.1821116004
C   C68       1.0  0.76647  0.19793  0.17900  1.0000 0.0912713707
C   C69       1.0  0.43356  0.25484  0.59680  1.0000 -0.1038495134
C   C70       1.0  0.39173  0.20087  0.52270  1.0000 -0.0352507439
C   C71       1.0  0.39171  0.34129  0.58330  1.0000 -0.1038495134
C   C72       1.0  0.30426  0.37174  0.49580  1.0000 -0.1097676623
N   N1        1.0  0.77106  0.14134  0.64212  1.0000 -0.2187601048
N   N2        1.0  0.38883  0.76937  0.63747  1.0000 -0.2187601048
N   N3        1.0  0.14134  0.77106  0.85788  1.0000 -0.2187601048
N   N4        1.0  0.76937  0.38883  0.86253  1.0000 -0.2187601048
N   N5        1.0  0.22894  0.85866  0.35788  1.0000 -0.2187601048
N   N6        1.0  0.61117  0.23063  0.36253  1.0000 -0.2187601048
N   N7        1.0  0.85866  0.22894  0.14212  1.0000 -0.2187601048
N   N8        1.0  0.23063  0.61117  0.13747  1.0000 -0.2187601048
O   O1        1.0  0.93548  0.60170  0.96648  1.0000 -0.5645700228
O   O2        1.0  0.93438  0.50230  0.12051  1.0000 -0.5488595199
O   O3        1.0  0.66894  0.84140  0.75273  1.0000 -0.5488595199
O   O4        1.0  0.60347  0.89853  0.82190  1.0000 -0.5672956665
O   O5        1.0  0.60170  0.93548  0.53352  1.0000 -0.5672956665
O   O6        1.0  0.50230  0.93438  0.37949  1.0000 -0.5488595199
O   O7        1.0  0.84140  0.66894  0.74727  1.0000 -0.5488595199
O   O8        1.0  0.89853  0.60347  0.67810  1.0000 -0.5672956665
O   O9        1.0  0.06452  0.39830  0.03352  1.0000 -0.5672956665
O   O10       1.0  0.06562  0.49770  0.87949  1.0000 -0.5488595199
O   O11       1.0  0.33106  0.15860  0.24727  1.0000 -0.5488595199
O   O12       1.0  0.39653  0.10147  0.17810  1.0000 -0.5672956665
O   O13       1.0  0.39830  0.06452  0.46648  1.0000 -0.5672956665
O   O14       1.0  0.49770  0.06562  0.62051  1.0000 -0.5488595199
O   O15       1.0  0.15860  0.33106  0.25273  1.0000 -0.5488595199
O   O16       1.0  0.10147  0.39653  0.32190  1.0000 -0.5672956665
