# DDEC6 charges by PACMAN v1.1 (https://github.com/mtap-research/PACMAN-charge/)
data_2019[Gd][sql]2[FSR]2
_chemical_formula_sum              "Gd8 H128 C72 O64"
_cell_length_a       8.7168
_cell_length_b       14.308
_cell_length_c       23.408
_cell_angle_alpha    90
_cell_angle_beta     90
_cell_angle_gamma    90

_symmetry_space_group_name_H-M    "P 1"
_symmetry_Int_Tables_number       1

loop_
  _symmetry_equiv_pos_as_xyz
  'x, y, z'

loop_
  _atom_site_type_symbol
  _atom_site_label
  _atom_site_symmetry_multiplicity
  _atom_site_fract_x
  _atom_site_fract_y
  _atom_site_fract_z
  _atom_site_occupancy
  _atom_site_charge
Gd  Gd1       1.0  0.77556  0.53374  0.19195  1.0000 1.9534140807
Gd  Gd2       1.0  0.77145  0.67787  0.81192  1.0000 1.9635823649
Gd  Gd3       1.0  0.72444  0.46626  0.69195  1.0000 1.9534140807
Gd  Gd4       1.0  0.72855  0.32213  0.31192  1.0000 1.9635823649
Gd  Gd5       1.0  0.22444  0.03374  0.30805  1.0000 1.9534140807
Gd  Gd6       1.0  0.22855  0.17787  0.68808  1.0000 1.9635823649
Gd  Gd7       1.0  0.27556  0.96626  0.80805  1.0000 1.9534140807
Gd  Gd8       1.0  0.27145  0.82213  0.18808  1.0000 1.9635823649
H   H1        1.0  0.87815  0.70718  0.15451  1.0000 0.4099629839
H   H2        1.0  0.70570  0.72588  0.16945  1.0000 0.4099629839
H   H3        1.0  0.63332  0.64223  0.27730  1.0000 0.3553299886
H   H4        1.0  0.59077  0.55239  0.28900  1.0000 0.3668904957
H   H5        1.0  0.63804  0.73527  0.70930  1.0000 0.3494617586
H   H6        1.0  0.56857  0.78775  0.74975  1.0000 0.3494617586
H   H7        1.0  0.75545  0.87803  0.80703  1.0000 0.4099629839
H   H8        1.0  0.88242  0.85829  0.84452  1.0000 0.4099629839
H   H9        1.0  0.57964  0.54356  0.00087  1.0000 0.1386525762
H   H10       1.0  0.42702  0.57494  0.03167  1.0000 0.1292430085
H   H11       1.0  0.54717  0.72077  0.05646  1.0000 0.1026071311
H   H12       1.0  0.69542  0.68974  0.02368  1.0000 0.1026071311
H   H13       1.0  0.41222  0.71285  0.96500  1.0000 0.0910510775
H   H14       1.0  0.47645  0.85755  0.00539  1.0000 0.1292430085
H   H15       1.0  0.49012  0.86394  0.93873  1.0000 0.1386525762
H   H16       1.0  0.63824  0.85401  0.97622  1.0000 0.1234232107
H   H17       1.0  0.25297  0.46148  0.10283  1.0000 0.1099188931
H   H18       1.0  0.24171  0.34657  0.19828  1.0000 0.1099188931
H   H19       1.0  0.33413  0.43965  0.19133  1.0000 0.1026071311
H   H20       1.0  0.41656  0.26393  0.14267  1.0000 0.1386525762
H   H21       1.0  0.49595  0.35657  0.12158  1.0000 0.149655832
H   H22       1.0  0.11043  0.28738  0.09796  1.0000 0.1292430085
H   H23       1.0  0.25109  0.31869  0.06088  1.0000 0.1099188931
H   H24       1.0  0.09072  0.36608  0.05195  1.0000 0.1292430085
H   H25       1.0  0.00556  0.48348  0.37818  1.0000 0.1099188931
H   H26       1.0  0.25743  0.51133  0.30315  1.0000 0.1099188931
H   H27       1.0  0.16910  0.41615  0.30794  1.0000 0.1099188931
H   H28       1.0  0.33204  0.49587  0.40199  1.0000 0.1386525762
H   H29       1.0  0.25314  0.39706  0.40323  1.0000 0.1386525762
H   H30       1.0  0.16639  0.65091  0.35882  1.0000 0.1234232107
H   H31       1.0  0.12859  0.60495  0.41797  1.0000 0.1234232107
H   H32       1.0  0.99831  0.65349  0.38259  1.0000 0.1292430085
H   H33       1.0  0.62185  0.29282  0.65451  1.0000 0.4099629839
H   H34       1.0  0.79430  0.27412  0.66945  1.0000 0.4099629839
H   H35       1.0  0.86668  0.35777  0.77730  1.0000 0.3553299886
H   H36       1.0  0.90923  0.44761  0.78900  1.0000 0.3668904957
H   H37       1.0  0.86196  0.26473  0.20930  1.0000 0.3494617586
H   H38       1.0  0.93143  0.21225  0.24975  1.0000 0.3494617586
H   H39       1.0  0.74455  0.12197  0.30703  1.0000 0.4099629839
H   H40       1.0  0.61758  0.14171  0.34452  1.0000 0.4099629839
H   H41       1.0  0.92036  0.45644  0.50087  1.0000 0.1386525762
H   H42       1.0  0.07298  0.42506  0.53167  1.0000 0.1292430085
H   H43       1.0  0.95283  0.27923  0.55646  1.0000 0.1026071311
H   H44       1.0  0.80458  0.31026  0.52368  1.0000 0.1026071311
H   H45       1.0  0.08778  0.28715  0.46500  1.0000 0.0910510775
H   H46       1.0  0.02355  0.14245  0.50539  1.0000 0.1292430085
H   H47       1.0  0.00988  0.13606  0.43873  1.0000 0.1386525762
H   H48       1.0  0.86176  0.14599  0.47622  1.0000 0.1234232107
H   H49       1.0  0.24703  0.53852  0.60283  1.0000 0.1099188931
H   H50       1.0  0.25829  0.65343  0.69828  1.0000 0.1099188931
H   H51       1.0  0.16587  0.56035  0.69133  1.0000 0.1026071311
H   H52       1.0  0.08344  0.73607  0.64267  1.0000 0.1386525762
H   H53       1.0  0.00405  0.64343  0.62158  1.0000 0.149655832
H   H54       1.0  0.38957  0.71262  0.59796  1.0000 0.1292430085
H   H55       1.0  0.24891  0.68131  0.56088  1.0000 0.1099188931
H   H56       1.0  0.40928  0.63392  0.55195  1.0000 0.1292430085
H   H57       1.0  0.49444  0.51652  0.87818  1.0000 0.1099188931
H   H58       1.0  0.24257  0.48867  0.80315  1.0000 0.1099188931
H   H59       1.0  0.33090  0.58385  0.80794  1.0000 0.1099188931
H   H60       1.0  0.16796  0.50413  0.90199  1.0000 0.1386525762
H   H61       1.0  0.24686  0.60294  0.90323  1.0000 0.1386525762
H   H62       1.0  0.33361  0.34909  0.85882  1.0000 0.1234232107
H   H63       1.0  0.37141  0.39505  0.91797  1.0000 0.1234232107
H   H64       1.0  0.50169  0.34651  0.88259  1.0000 0.1292430085
H   H65       1.0  0.12185  0.20718  0.34549  1.0000 0.4099629839
H   H66       1.0  0.29430  0.22588  0.33055  1.0000 0.4099629839
H   H67       1.0  0.36668  0.14223  0.22270  1.0000 0.3553299886
H   H68       1.0  0.40923  0.05239  0.21100  1.0000 0.3668904957
H   H69       1.0  0.36196  0.23527  0.79070  1.0000 0.3494617586
H   H70       1.0  0.43143  0.28775  0.75025  1.0000 0.3494617586
H   H71       1.0  0.24455  0.37803  0.69297  1.0000 0.4099629839
H   H72       1.0  0.11758  0.35829  0.65548  1.0000 0.4099629839
H   H73       1.0  0.42036  0.04356  0.49913  1.0000 0.1386525762
H   H74       1.0  0.57298  0.07494  0.46833  1.0000 0.1292430085
H   H75       1.0  0.45283  0.22077  0.44354  1.0000 0.1026071311
H   H76       1.0  0.30458  0.18974  0.47632  1.0000 0.1026071311
H   H77       1.0  0.58778  0.21285  0.53500  1.0000 0.0910510775
H   H78       1.0  0.52355  0.35755  0.49461  1.0000 0.1292430085
H   H79       1.0  0.50988  0.36394  0.56127  1.0000 0.1386525762
H   H80       1.0  0.36176  0.35401  0.52378  1.0000 0.1234232107
H   H81       1.0  0.74703  0.96148  0.39717  1.0000 0.1099188931
H   H82       1.0  0.75829  0.84657  0.30172  1.0000 0.1099188931
H   H83       1.0  0.66587  0.93965  0.30867  1.0000 0.1026071311
H   H84       1.0  0.58344  0.76393  0.35733  1.0000 0.1386525762
H   H85       1.0  0.50405  0.85657  0.37842  1.0000 0.149655832
H   H86       1.0  0.88957  0.78738  0.40204  1.0000 0.1292430085
H   H87       1.0  0.74891  0.81869  0.43912  1.0000 0.1099188931
H   H88       1.0  0.90928  0.86608  0.44805  1.0000 0.1292430085
H   H89       1.0  0.99444  0.98348  0.12182  1.0000 0.1099188931
H   H90       1.0  0.74257  0.01133  0.19685  1.0000 0.1099188931
H   H91       1.0  0.83090  0.91615  0.19206  1.0000 0.1099188931
H   H92       1.0  0.66796  0.99587  0.09801  1.0000 0.1386525762
H   H93       1.0  0.74686  0.89706  0.09677  1.0000 0.1386525762
H   H94       1.0  0.83361  0.15091  0.14118  1.0000 0.1234232107
H   H95       1.0  0.87141  0.10495  0.08203  1.0000 0.1234232107
H   H96       1.0  0.00169  0.15349  0.11741  1.0000 0.1292430085
H   H97       1.0  0.37815  0.79282  0.84549  1.0000 0.4099629839
H   H98       1.0  0.20570  0.77412  0.83055  1.0000 0.4099629839
H   H99       1.0  0.13332  0.85777  0.72270  1.0000 0.3553299886
H   H100      1.0  0.09077  0.94761  0.71100  1.0000 0.3668904957
H   H101      1.0  0.13804  0.76473  0.29070  1.0000 0.3494617586
H   H102      1.0  0.06857  0.71225  0.25025  1.0000 0.3494617586
H   H103      1.0  0.25545  0.62197  0.19297  1.0000 0.4099629839
H   H104      1.0  0.38242  0.64171  0.15548  1.0000 0.4099629839
H   H105      1.0  0.07964  0.95644  0.99913  1.0000 0.1386525762
H   H106      1.0  0.92702  0.92506  0.96833  1.0000 0.1292430085
H   H107      1.0  0.04717  0.77923  0.94354  1.0000 0.1026071311
H   H108      1.0  0.19542  0.81026  0.97632  1.0000 0.1026071311
H   H109      1.0  0.91222  0.78715  0.03500  1.0000 0.0910510775
H   H110      1.0  0.97645  0.64245  0.99461  1.0000 0.1292430085
H   H111      1.0  0.99012  0.63606  0.06127  1.0000 0.1386525762
H   H112      1.0  0.13824  0.64599  0.02378  1.0000 0.1234232107
H   H113      1.0  0.75297  0.03852  0.89717  1.0000 0.1099188931
H   H114      1.0  0.74171  0.15343  0.80172  1.0000 0.1099188931
H   H115      1.0  0.83413  0.06035  0.80867  1.0000 0.1026071311
H   H116      1.0  0.91656  0.23607  0.85733  1.0000 0.1386525762
H   H117      1.0  0.99595  0.14343  0.87842  1.0000 0.149655832
H   H118      1.0  0.61043  0.21262  0.90204  1.0000 0.1292430085
H   H119      1.0  0.75109  0.18131  0.93912  1.0000 0.1099188931
H   H120      1.0  0.59072  0.13392  0.94805  1.0000 0.1292430085
H   H121      1.0  0.50556  0.01652  0.62182  1.0000 0.1099188931
H   H122      1.0  0.75743  0.98867  0.69685  1.0000 0.1099188931
H   H123      1.0  0.66910  0.08385  0.69206  1.0000 0.1099188931
H   H124      1.0  0.83204  0.00413  0.59801  1.0000 0.1386525762
H   H125      1.0  0.75314  0.10294  0.59677  1.0000 0.1386525762
H   H126      1.0  0.66639  0.84909  0.64118  1.0000 0.1234232107
H   H127      1.0  0.62859  0.89505  0.58203  1.0000 0.1234232107
H   H128      1.0  0.49831  0.84651  0.61741  1.0000 0.1292430085
C   C1        1.0  0.60690  0.55290  0.08980  1.0000 0.6257281285
C   C2        1.0  0.53800  0.58160  0.03140  1.0000 -0.3295380938
C   C3        1.0  0.58440  0.68530  0.02400  1.0000 -0.1419371869
C   C4        1.0  0.52080  0.72970  0.96840  1.0000 -0.066617554
C   C5        1.0  0.60200  0.69730  0.91570  1.0000 0.5824707729
C   C6        1.0  0.53200  0.83620  0.97260  1.0000 -0.3896643686
C   C7        1.0  0.05440  0.45570  0.14800  1.0000 0.5824707729
C   C8        1.0  0.19910  0.41150  0.12330  1.0000 -0.0581291126
C   C9        1.0  0.30100  0.38360  0.17150  1.0000 -0.1498334128
C   C10       1.0  0.44540  0.32690  0.15370  1.0000 -0.3232023138
C   C11       1.0  0.55010  0.32430  0.20410  1.0000 0.6659557205
C   C12       1.0  0.15900  0.33900  0.07960  1.0000 -0.3980727698
C   C13       1.0  0.94900  0.53040  0.29850  1.0000 0.6195629817
C   C14       1.0  0.05600  0.52390  0.35010  1.0000 -0.0581291126
C   C15       1.0  0.20040  0.47130  0.32900  1.0000 -0.1419371869
C   C16       1.0  0.30600  0.44170  0.37900  1.0000 -0.3232023138
C   C17       1.0  0.44930  0.39840  0.35520  1.0000 0.6379769427
C   C18       1.0  0.09100  0.61710  0.38020  1.0000 -0.3980727698
C   C19       1.0  0.89310  0.44710  0.58980  1.0000 0.6257281285
C   C20       1.0  0.96200  0.41840  0.53140  1.0000 -0.3295380938
C   C21       1.0  0.91560  0.31470  0.52400  1.0000 -0.1419371869
C   C22       1.0  0.97920  0.27030  0.46840  1.0000 -0.066617554
C   C23       1.0  0.89800  0.30270  0.41570  1.0000 0.5824707729
C   C24       1.0  0.96800  0.16380  0.47260  1.0000 -0.3896643686
C   C25       1.0  0.44560  0.54430  0.64800  1.0000 0.5824707729
C   C26       1.0  0.30090  0.58850  0.62330  1.0000 -0.0581291126
C   C27       1.0  0.19900  0.61640  0.67150  1.0000 -0.1498334128
C   C28       1.0  0.05460  0.67310  0.65370  1.0000 -0.3232023138
C   C29       1.0  0.94990  0.67570  0.70410  1.0000 0.6659557205
C   C30       1.0  0.34100  0.66100  0.57960  1.0000 -0.3980727698
C   C31       1.0  0.55100  0.46960  0.79850  1.0000 0.6195629817
C   C32       1.0  0.44400  0.47610  0.85010  1.0000 -0.0581291126
C   C33       1.0  0.29960  0.52870  0.82900  1.0000 -0.1419371869
C   C34       1.0  0.19400  0.55830  0.87900  1.0000 -0.3232023138
C   C35       1.0  0.05070  0.60160  0.85520  1.0000 0.6379769427
C   C36       1.0  0.40900  0.38290  0.88020  1.0000 -0.3980727698
C   C37       1.0  0.39310  0.05290  0.41020  1.0000 0.6257281285
C   C38       1.0  0.46200  0.08160  0.46860  1.0000 -0.3295380938
C   C39       1.0  0.41560  0.18530  0.47600  1.0000 -0.1419371869
C   C40       1.0  0.47920  0.22970  0.53160  1.0000 -0.066617554
C   C41       1.0  0.39800  0.19730  0.58430  1.0000 0.5824707729
C   C42       1.0  0.46800  0.33620  0.52740  1.0000 -0.3896643686
C   C43       1.0  0.94560  0.95570  0.35200  1.0000 0.5824707729
C   C44       1.0  0.80090  0.91150  0.37670  1.0000 -0.0581291126
C   C45       1.0  0.69900  0.88360  0.32850  1.0000 -0.1498334128
C   C46       1.0  0.55460  0.82690  0.34630  1.0000 -0.3232023138
C   C47       1.0  0.44990  0.82430  0.29590  1.0000 0.6659557205
C   C48       1.0  0.84100  0.83900  0.42040  1.0000 -0.3980727698
C   C49       1.0  0.05100  0.03040  0.20150  1.0000 0.6195629817
C   C50       1.0  0.94400  0.02390  0.14990  1.0000 -0.0581291126
C   C51       1.0  0.79960  0.97130  0.17100  1.0000 -0.1419371869
C   C52       1.0  0.69400  0.94170  0.12100  1.0000 -0.3232023138
C   C53       1.0  0.55070  0.89840  0.14480  1.0000 0.6379769427
C   C54       1.0  0.90900  0.11710  0.11980  1.0000 -0.3980727698
C   C55       1.0  0.10690  0.94710  0.91020  1.0000 0.6257281285
C   C56       1.0  0.03800  0.91840  0.96860  1.0000 -0.3295380938
C   C57       1.0  0.08440  0.81470  0.97600  1.0000 -0.1419371869
C   C58       1.0  0.02080  0.77030  0.03160  1.0000 -0.066617554
C   C59       1.0  0.10200  0.80270  0.08430  1.0000 0.5824707729
C   C60       1.0  0.03200  0.66380  0.02740  1.0000 -0.3896643686
C   C61       1.0  0.55440  0.04430  0.85200  1.0000 0.5824707729
C   C62       1.0  0.69910  0.08850  0.87670  1.0000 -0.0581291126
C   C63       1.0  0.80100  0.11640  0.82850  1.0000 -0.1498334128
C   C64       1.0  0.94540  0.17310  0.84630  1.0000 -0.3232023138
C   C65       1.0  0.05010  0.17570  0.79590  1.0000 0.6659557205
C   C66       1.0  0.65900  0.16100  0.92040  1.0000 -0.3980727698
C   C67       1.0  0.44900  0.96960  0.70150  1.0000 0.6195629817
C   C68       1.0  0.55600  0.97610  0.64990  1.0000 -0.0581291126
C   C69       1.0  0.70040  0.02870  0.67100  1.0000 -0.1419371869
C   C70       1.0  0.80600  0.05830  0.62100  1.0000 -0.3232023138
C   C71       1.0  0.94930  0.10160  0.64480  1.0000 0.6379769427
C   C72       1.0  0.59100  0.88290  0.61980  1.0000 -0.3980727698
O   O1        1.0  0.73830  0.51450  0.08920  1.0000 -0.6306746262
O   O2        1.0  0.78730  0.69410  0.16540  1.0000 -0.8010845947
O   O3        1.0  0.54110  0.56840  0.13680  1.0000 -0.6306746262
O   O4        1.0  0.59920  0.59170  0.26080  1.0000 -0.7675520348
O   O5        1.0  0.73540  0.66060  0.91610  1.0000 -0.6204248535
O   O6        1.0  0.59340  0.73120  0.74190  1.0000 -0.7513705659
O   O7        1.0  0.53850  0.70940  0.86620  1.0000 -0.6518483925
O   O8        1.0  0.78260  0.83700  0.83680  1.0000 -0.8010845947
O   O9        1.0  0.94670  0.40520  0.16580  1.0000 -0.5971910524
O   O10       1.0  0.04040  0.54480  0.15230  1.0000 -0.638445328
O   O11       1.0  0.55510  0.25620  0.23800  1.0000 -0.6204248535
O   O12       1.0  0.63650  0.39520  0.21580  1.0000 -0.7434846181
O   O13       1.0  0.95000  0.60070  0.26690  1.0000 -0.5914269704
O   O14       1.0  0.86380  0.46150  0.28580  1.0000 -0.7197589296
O   O15       1.0  0.46330  0.31280  0.35080  1.0000 -0.5971910524
O   O16       1.0  0.56090  0.45240  0.33730  1.0000 -0.6631456035
O   O17       1.0  0.76170  0.48550  0.58920  1.0000 -0.6306746262
O   O18       1.0  0.71270  0.30590  0.66540  1.0000 -0.8010845947
O   O19       1.0  0.95890  0.43160  0.63680  1.0000 -0.638445328
O   O20       1.0  0.90080  0.40830  0.76080  1.0000 -0.7675520348
O   O21       1.0  0.76460  0.33940  0.41610  1.0000 -0.6204248535
O   O22       1.0  0.90660  0.26880  0.24190  1.0000 -0.7513705659
O   O23       1.0  0.96150  0.29060  0.36620  1.0000 -0.6518483925
O   O24       1.0  0.71740  0.16300  0.33680  1.0000 -0.8010845947
O   O25       1.0  0.55330  0.59480  0.66580  1.0000 -0.5971910524
O   O26       1.0  0.45960  0.45520  0.65230  1.0000 -0.638445328
O   O27       1.0  0.94490  0.74380  0.73800  1.0000 -0.6204248535
O   O28       1.0  0.86350  0.60480  0.71580  1.0000 -0.7434846181
O   O29       1.0  0.55000  0.39930  0.76690  1.0000 -0.5914269704
O   O30       1.0  0.63620  0.53850  0.78580  1.0000 -0.7197589296
O   O31       1.0  0.03670  0.68720  0.85080  1.0000 -0.5971910524
O   O32       1.0  0.93910  0.54760  0.83730  1.0000 -0.6631456035
O   O33       1.0  0.26170  0.01450  0.41080  1.0000 -0.6306746262
O   O34       1.0  0.21270  0.19410  0.33460  1.0000 -0.8010845947
O   O35       1.0  0.45890  0.06840  0.36320  1.0000 -0.638445328
O   O36       1.0  0.40080  0.09170  0.23920  1.0000 -0.7675520348
O   O37       1.0  0.26460  0.16060  0.58390  1.0000 -0.6204248535
O   O38       1.0  0.40660  0.23120  0.75810  1.0000 -0.7513705659
O   O39       1.0  0.46150  0.20940  0.63380  1.0000 -0.6518483925
O   O40       1.0  0.21740  0.33700  0.66320  1.0000 -0.8010845947
O   O41       1.0  0.05330  0.90520  0.33420  1.0000 -0.5971910524
O   O42       1.0  0.95960  0.04480  0.34770  1.0000 -0.638445328
O   O43       1.0  0.44490  0.75620  0.26200  1.0000 -0.6204248535
O   O44       1.0  0.36350  0.89520  0.28420  1.0000 -0.7434846181
O   O45       1.0  0.05000  0.10070  0.23310  1.0000 -0.5914269704
O   O46       1.0  0.13620  0.96150  0.21420  1.0000 -0.7197589296
O   O47       1.0  0.53670  0.81280  0.14920  1.0000 -0.5971910524
O   O48       1.0  0.43910  0.95240  0.16270  1.0000 -0.6631456035
O   O49       1.0  0.23830  0.98550  0.91080  1.0000 -0.6306746262
O   O50       1.0  0.28730  0.80590  0.83460  1.0000 -0.8010845947
O   O51       1.0  0.04110  0.93160  0.86320  1.0000 -0.638445328
O   O52       1.0  0.09920  0.90830  0.73920  1.0000 -0.7675520348
O   O53       1.0  0.23540  0.83940  0.08390  1.0000 -0.6204248535
O   O54       1.0  0.09340  0.76880  0.25810  1.0000 -0.7513705659
O   O55       1.0  0.03850  0.79060  0.13380  1.0000 -0.6518483925
O   O56       1.0  0.28260  0.66300  0.16320  1.0000 -0.8010845947
O   O57       1.0  0.44670  0.09480  0.83420  1.0000 -0.5971910524
O   O58       1.0  0.54040  0.95520  0.84770  1.0000 -0.638445328
O   O59       1.0  0.05510  0.24380  0.76200  1.0000 -0.6204248535
O   O60       1.0  0.13650  0.10480  0.78420  1.0000 -0.7434846181
O   O61       1.0  0.45000  0.89930  0.73310  1.0000 -0.5914269704
O   O62       1.0  0.36380  0.03850  0.71420  1.0000 -0.7197589296
O   O63       1.0  0.96330  0.18720  0.64920  1.0000 -0.5971910524
O   O64       1.0  0.06090  0.04760  0.66270  1.0000 -0.6631456035
