# DDEC6 charges by PACMAN v1.1 (https://github.com/mtap-research/PACMAN-charge/)
data_2019[Co][nan]3[FSR]17
_chemical_formula_sum              "Co8 H88 C96 N8 O44"
_cell_length_a       11.7241
_cell_length_b       14.677
_cell_length_c       19.29
_cell_angle_alpha    79.327
_cell_angle_beta     82.002
_cell_angle_gamma    68.331

_symmetry_space_group_name_H-M    "P 1"
_symmetry_Int_Tables_number       1

loop_
  _symmetry_equiv_pos_as_xyz
  'x, y, z'

loop_
  _atom_site_type_symbol
  _atom_site_label
  _atom_site_symmetry_multiplicity
  _atom_site_fract_x
  _atom_site_fract_y
  _atom_site_fract_z
  _atom_site_occupancy
  _atom_site_charge
Co  Co1       1.0  0.23910  0.85785  0.24088  1.0000 0.968160463
Co  Co2       1.0  0.34045  0.65155  0.38325  1.0000 0.9464971399
Co  Co3       1.0  0.35557  0.69892  0.13536  1.0000 0.9446273422
Co  Co4       1.0  0.12553  0.69798  0.28438  1.0000 0.968160463
Co  Co5       1.0  0.76090  0.14215  0.75912  1.0000 0.968160463
Co  Co6       1.0  0.65955  0.34845  0.61675  1.0000 0.9464971399
Co  Co7       1.0  0.64443  0.30108  0.86464  1.0000 0.9464971399
Co  Co8       1.0  0.87447  0.30202  0.71562  1.0000 0.968160463
H   H1        1.0  0.42750  0.96300  0.22650  1.0000 0.1113145034
H   H2        1.0  0.49830  0.04400  0.29040  1.0000 0.1302971461
H   H3        1.0  0.37240  0.10660  0.46390  1.0000 0.1113145034
H   H4        1.0  0.23680  0.02800  0.44390  1.0000 0.1227948691
H   H5        1.0  0.17190  0.94750  0.37500  1.0000 0.1016504087
H   H6        1.0  0.46580  0.26870  0.60000  1.0000 0.1113145034
H   H7        1.0  0.41050  0.18230  0.53260  1.0000 0.1302971461
H   H8        1.0  0.57030  0.10100  0.37010  1.0000 0.1227948691
H   H9        1.0  0.70850  0.17620  0.40240  1.0000 0.1302971461
H   H10       1.0  0.75610  0.25980  0.47590  1.0000 0.1016504087
H   H11       1.0  0.69530  0.66320  0.25890  1.0000 0.1227948691
H   H12       1.0  0.66890  0.59250  0.21670  1.0000 0.1390347811
H   H13       1.0  0.70590  0.79420  0.26530  1.0000 0.1390347811
H   H14       1.0  0.69980  0.05540  0.15200  1.0000 0.1390347811
H   H15       1.0  0.64340  0.85360  0.05830  1.0000 0.1597218397
H   H16       1.0  0.82310  0.02700  0.31010  1.0000 0.1302971461
H   H17       1.0  0.82360  0.04040  0.22760  1.0000 0.1302971461
H   H18       1.0  0.75100  0.94300  0.96900  1.0000 0.1390347811
H   H19       1.0  0.60920  0.98490  0.95860  1.0000 0.1302971461
H   H20       1.0  0.48990  0.38540  0.25550  1.0000 0.1302971461
H   H21       1.0  0.55370  0.43560  0.29490  1.0000 0.1302971461
H   H22       1.0  0.26270  0.39480  0.45170  1.0000 0.1597218397
H   H23       1.0  0.37290  0.31250  0.25760  1.0000 0.1302971461
H   H24       1.0  0.07430  0.26920  0.36850  1.0000 0.1390347811
H   H25       1.0  0.08970  0.49890  0.29310  1.0000 0.1113145034
H   H26       1.0  0.01760  0.41620  0.23110  1.0000 0.1302971461
H   H27       1.0  0.91360  0.66180  0.08770  1.0000 0.1390347811
H   H28       1.0  0.98580  0.73860  0.15660  1.0000 0.1016504087
H   H29       1.0  0.92990  0.40570  0.12770  1.0000 0.1390347811
H   H30       1.0  0.34630  0.20230  0.18820  1.0000 0.1113145034
H   H31       1.0  0.27010  0.31580  0.17070  1.0000 0.1016504087
H   H32       1.0  0.72200  0.57340  0.95180  1.0000 0.1390347811
H   H33       1.0  0.64360  0.49760  0.88780  1.0000 0.1113145034
H   H34       1.0  0.80140  0.24140  0.99530  1.0000 0.1113145034
H   H35       1.0  0.87950  0.31250  0.06550  1.0000 0.1515972988
H   H36       1.0  0.83840  0.57700  0.04130  1.0000 0.1227948691
H   H37       1.0  0.45300  0.46700  0.41800  1.0000 0.3138613578
H   H38       1.0  0.58000  0.67400  0.09700  1.0000 0.3019304401
H   H39       1.0  0.54000  0.50500  0.42300  1.0000 0.3138613578
H   H40       1.0  0.51800  0.68800  0.04200  1.0000 0.3019304401
H   H41       1.0  0.13090  0.79680  0.15920  1.0000 0.3685336387
H   H42       1.0  0.15340  0.80750  0.36790  1.0000 0.3685336387
H   H43       1.0  0.96870  0.31770  0.45410  1.0000 0.1113145034
H   H44       1.0  0.95210  0.42970  0.44950  1.0000 0.1302971461
H   H45       1.0  0.57250  0.03700  0.77350  1.0000 0.1113145034
H   H46       1.0  0.50170  0.95600  0.70960  1.0000 0.1302971461
H   H47       1.0  0.62760  0.89340  0.53610  1.0000 0.1113145034
H   H48       1.0  0.76320  0.97200  0.55610  1.0000 0.1227948691
H   H49       1.0  0.82810  0.05250  0.62500  1.0000 0.1016504087
H   H50       1.0  0.53420  0.73130  0.40000  1.0000 0.1113145034
H   H51       1.0  0.58950  0.81770  0.46740  1.0000 0.1302971461
H   H52       1.0  0.42970  0.89900  0.62990  1.0000 0.1227948691
H   H53       1.0  0.29150  0.82380  0.59760  1.0000 0.1302971461
H   H54       1.0  0.24390  0.74020  0.52410  1.0000 0.1016504087
H   H55       1.0  0.30470  0.33680  0.74110  1.0000 0.1227948691
H   H56       1.0  0.33110  0.40750  0.78330  1.0000 0.1390347811
H   H57       1.0  0.29410  0.20580  0.73470  1.0000 0.1390347811
H   H58       1.0  0.30020  0.94460  0.84800  1.0000 0.1390347811
H   H59       1.0  0.35660  0.14640  0.94170  1.0000 0.1597218397
H   H60       1.0  0.17690  0.97300  0.68990  1.0000 0.1302971461
H   H61       1.0  0.17640  0.95960  0.77240  1.0000 0.1227948691
H   H62       1.0  0.24900  0.05700  0.03100  1.0000 0.1390347811
H   H63       1.0  0.39080  0.01510  0.04140  1.0000 0.1302971461
H   H64       1.0  0.51010  0.61460  0.74450  1.0000 0.1302971461
H   H65       1.0  0.44630  0.56440  0.70510  1.0000 0.1302971461
H   H66       1.0  0.73730  0.60520  0.54830  1.0000 0.1597218397
H   H67       1.0  0.62710  0.68750  0.74240  1.0000 0.1302971461
H   H68       1.0  0.92570  0.73080  0.63150  1.0000 0.1390347811
H   H69       1.0  0.91030  0.50110  0.70690  1.0000 0.1113145034
H   H70       1.0  0.98240  0.58380  0.76890  1.0000 0.1302971461
H   H71       1.0  0.08640  0.33820  0.91230  1.0000 0.1390347811
H   H72       1.0  0.01420  0.26140  0.84340  1.0000 0.1016504087
H   H73       1.0  0.07010  0.59430  0.87230  1.0000 0.1390347811
H   H74       1.0  0.65370  0.79770  0.81180  1.0000 0.1113145034
H   H75       1.0  0.72990  0.68420  0.82930  1.0000 0.1016504087
H   H76       1.0  0.27800  0.42660  0.04820  1.0000 0.1390347811
H   H77       1.0  0.35640  0.50240  0.11220  1.0000 0.1113145034
H   H78       1.0  0.19860  0.75860  0.00470  1.0000 0.1113145034
H   H79       1.0  0.12050  0.68750  0.93450  1.0000 0.1515972988
H   H80       1.0  0.16160  0.42300  0.95870  1.0000 0.1227948691
H   H81       1.0  0.54700  0.53300  0.58200  1.0000 0.3151206052
H   H82       1.0  0.42000  0.32600  0.90300  1.0000 0.3019304401
H   H83       1.0  0.46000  0.49500  0.57700  1.0000 0.3138613578
H   H84       1.0  0.48200  0.31200  0.95800  1.0000 0.3019304401
H   H85       1.0  0.86910  0.20320  0.84080  1.0000 0.3685336387
H   H86       1.0  0.84660  0.19250  0.63210  1.0000 0.3685336387
H   H87       1.0  0.03130  0.68230  0.54590  1.0000 0.1113145034
H   H88       1.0  0.04790  0.57030  0.55050  1.0000 0.1302971461
C   C1        1.0  0.38900  0.97550  0.27110  1.0000 0.0910543314
C   C2        1.0  0.43250  0.02400  0.30940  1.0000 -0.1904240632
C   C3        1.0  0.37830  0.04320  0.37650  1.0000 0.1515972988
C   C4        1.0  0.42060  0.09200  0.42200  1.0000 -0.1486253961
C   C5        1.0  0.27810  0.01470  0.40000  1.0000 -0.2053023005
C   C6        1.0  0.23940  0.96620  0.35790  1.0000 0.0910543314
C   C7        1.0  0.51620  0.24940  0.55960  1.0000 0.0807771212
C   C8        1.0  0.48100  0.19810  0.51900  1.0000 -0.1904240632
C   C9        1.0  0.55220  0.17040  0.45730  1.0000 0.1597218397
C   C10       1.0  0.51860  0.11760  0.41060  1.0000 -0.1486253961
C   C11       1.0  0.65670  0.19420  0.44250  1.0000 -0.2021565958
C   C12       1.0  0.68480  0.24470  0.48740  1.0000 0.0631612292
C   C13       1.0  0.50930  0.69460  0.25530  1.0000 0.61007267
C   C14       1.0  0.64370  0.66080  0.22450  1.0000 -0.1787053482
C   C15       1.0  0.67290  0.81050  0.16190  1.0000 0.2841609693
C   C16       1.0  0.69780  0.83650  0.22250  1.0000 -0.3719543838
C   C17       1.0  0.71010  0.92790  0.21610  1.0000 0.2702129161
C   C18       1.0  0.69410  0.99340  0.15440  1.0000 -0.3617423349
C   C19       1.0  0.66910  0.96400  0.09530  1.0000 0.2929208851
C   C20       1.0  0.65910  0.87270  0.09830  1.0000 -0.3617423349
C   C21       1.0  0.83160  0.99250  0.27030  1.0000 -0.1614735411
C   C22       1.0  0.69450  0.08340  0.91270  1.0000 0.6226984835
C   C23       1.0  0.67710  0.00170  0.96880  1.0000 -0.167639094
C   C24       1.0  0.95860  0.91320  0.26690  1.0000 0.6030054069
C   C25       1.0  0.90100  0.36930  0.55550  1.0000 0.5776643133
C   C26       1.0  0.38620  0.53180  0.26160  1.0000 0.61007267
C   C27       1.0  0.47560  0.42980  0.28980  1.0000 -0.1787053482
C   C28       1.0  0.33570  0.35790  0.35470  1.0000 0.3019304401
C   C29       1.0  0.25350  0.36620  0.41460  1.0000 -0.33628762
C   C30       1.0  0.31850  0.31770  0.29790  1.0000 -0.4107308709
C   C31       1.0  0.21960  0.28570  0.30260  1.0000 0.2929208851
C   C32       1.0  0.13960  0.29190  0.36420  1.0000 -0.3787232959
C   C33       1.0  0.16000  0.33230  0.41820  1.0000 0.2187572843
C   C34       1.0  0.05320  0.53210  0.25140  1.0000 0.0807771212
C   C35       1.0  0.01070  0.48160  0.21450  1.0000 -0.2021565958
C   C36       1.0  0.95710  0.52950  0.15180  1.0000 0.1597218397
C   C37       1.0  0.94850  0.62740  0.12970  1.0000 -0.1904240632
C   C38       1.0  0.99310  0.67280  0.17130  1.0000 0.0910543314
C   C39       1.0  0.91290  0.47280  0.11160  1.0000 -0.1269836635
C   C40       1.0  0.26370  0.25070  0.18400  1.0000 -0.167639094
C   C41       1.0  0.20320  0.22890  0.12550  1.0000 0.5744784451
C   C42       1.0  0.73840  0.50560  0.96300  1.0000 -0.1904240632
C   C43       1.0  0.69230  0.45880  0.92410  1.0000 0.0731424591
C   C44       1.0  0.78310  0.30960  0.98680  1.0000 0.0807771212
C   C45       1.0  0.83130  0.35200  0.02920  1.0000 -0.1904240632
C   C46       1.0  0.80680  0.45340  0.01670  1.0000 0.1515972988
C   C47       1.0  0.85420  0.51010  0.05760  1.0000 -0.1108630845
C   C48       1.0  0.98120  0.36510  0.47830  1.0000 -0.0682165423
C   C49       1.0  0.61100  0.02450  0.72890  1.0000 0.1016504087
C   C50       1.0  0.56750  0.97600  0.69060  1.0000 -0.1904240632
C   C51       1.0  0.62170  0.95680  0.62350  1.0000 0.1515972988
C   C52       1.0  0.57940  0.90800  0.57800  1.0000 -0.1486253961
C   C53       1.0  0.72190  0.98530  0.60000  1.0000 -0.2053023005
C   C54       1.0  0.76060  0.03380  0.64210  1.0000 0.0910543314
C   C55       1.0  0.48380  0.75060  0.44040  1.0000 0.0807771212
C   C56       1.0  0.51900  0.80190  0.48100  1.0000 -0.1904240632
C   C57       1.0  0.44780  0.82960  0.54270  1.0000 0.1597218397
C   C58       1.0  0.48140  0.88240  0.58940  1.0000 -0.1486253961
C   C59       1.0  0.34330  0.80580  0.55750  1.0000 -0.2021565958
C   C60       1.0  0.31520  0.75530  0.51260  1.0000 0.0631612292
C   C61       1.0  0.49070  0.30540  0.74470  1.0000 0.61007267
C   C62       1.0  0.35630  0.33920  0.77550  1.0000 -0.1787053482
C   C63       1.0  0.32710  0.18950  0.83810  1.0000 0.2841609693
C   C64       1.0  0.30220  0.16350  0.77750  1.0000 -0.3719543838
C   C65       1.0  0.28990  0.07210  0.78390  1.0000 0.2702129161
C   C66       1.0  0.30590  0.00660  0.84560  1.0000 -0.3617423349
C   C67       1.0  0.33090  0.03600  0.90470  1.0000 0.2929208851
C   C68       1.0  0.34090  0.12730  0.90170  1.0000 -0.3617423349
C   C69       1.0  0.16840  0.00750  0.72970  1.0000 -0.1614735411
C   C70       1.0  0.30550  0.91660  0.08730  1.0000 0.6226984835
C   C71       1.0  0.32290  0.99830  0.03120  1.0000 -0.167639094
C   C72       1.0  0.04140  0.08680  0.73310  1.0000 0.6030054069
C   C73       1.0  0.09900  0.63070  0.44450  1.0000 0.5776643133
C   C74       1.0  0.61380  0.46820  0.73840  1.0000 0.61007267
C   C75       1.0  0.52440  0.57020  0.71020  1.0000 -0.1787053482
C   C76       1.0  0.66430  0.64210  0.64530  1.0000 0.3019304401
C   C77       1.0  0.74650  0.63380  0.58540  1.0000 -0.33628762
C   C78       1.0  0.68150  0.68230  0.70210  1.0000 -0.4107308709
C   C79       1.0  0.78040  0.71430  0.69740  1.0000 0.2929208851
C   C80       1.0  0.86040  0.70810  0.63580  1.0000 -0.3787232959
C   C81       1.0  0.84000  0.66770  0.58180  1.0000 0.2187572843
C   C82       1.0  0.94680  0.46790  0.74860  1.0000 0.0807771212
C   C83       1.0  0.98930  0.51840  0.78550  1.0000 -0.2021565958
C   C84       1.0  0.04290  0.47050  0.84820  1.0000 0.1597218397
C   C85       1.0  0.05150  0.37260  0.87030  1.0000 -0.1904240632
C   C86       1.0  0.00690  0.32720  0.82870  1.0000 0.0910543314
C   C87       1.0  0.08710  0.52720  0.88840  1.0000 -0.1269836635
C   C88       1.0  0.73630  0.74930  0.81600  1.0000 -0.167639094
C   C89       1.0  0.79680  0.77110  0.87450  1.0000 0.5744784451
C   C90       1.0  0.26160  0.49440  0.03700  1.0000 -0.1904240632
C   C91       1.0  0.30770  0.54120  0.07590  1.0000 0.0731424591
C   C92       1.0  0.21690  0.69040  0.01320  1.0000 0.0807771212
C   C93       1.0  0.16870  0.64800  0.97080  1.0000 -0.1904240632
C   C94       1.0  0.19320  0.54660  0.98330  1.0000 0.1515972988
C   C95       1.0  0.14580  0.48990  0.94240  1.0000 -0.1108630845
C   C96       1.0  0.01880  0.63490  0.52170  1.0000 -0.0682165423
N   N1        1.0  0.29300  0.94490  0.29470  1.0000 -0.2441823506
N   N2        1.0  0.61610  0.27340  0.54600  1.0000 -0.2571634078
N   N3        1.0  0.04550  0.62690  0.23090  1.0000 -0.2571634078
N   N4        1.0  0.71260  0.36230  0.93500  1.0000 -0.2571634078
N   N5        1.0  0.70700  0.05510  0.70530  1.0000 -0.2441823506
N   N6        1.0  0.38390  0.72660  0.45400  1.0000 -0.2571634078
N   N7        1.0  0.95450  0.37310  0.76910  1.0000 -0.2571634078
N   N8        1.0  0.28740  0.63770  0.06500  1.0000 -0.2571634078
O   O1        1.0  0.73540  0.05740  0.85298  1.0000 -0.5507609272
O   O2        1.0  0.66890  0.16670  0.93061  1.0000 -0.5714397454
O   O3        1.0  0.65210  0.03480  0.03599  1.0000 -0.1614735411
O   O4        1.0  0.42840  0.75750  0.21686  1.0000 -0.5714397454
O   O5        1.0  0.04670  0.94680  0.25438  1.0000 -0.5797784948
O   O6        1.0  0.96640  0.82550  0.27719  1.0000 -0.5404871528
O   O7        1.0  0.19640  0.75990  0.19101  1.0000 -0.9004966839
O   O8        1.0  0.49350  0.65260  0.31611  1.0000 -0.5797784948
O   O9        1.0  0.21140  0.76780  0.33377  1.0000 -0.9004966839
O   O10       1.0  0.79300  0.38310  0.54586  1.0000 -0.5603113794
O   O11       1.0  0.94750  0.35170  0.61330  1.0000 -0.5404871528
O   O12       1.0  0.46370  0.51440  0.43138  1.0000 -0.6497426057
O   O13       1.0  0.29550  0.57550  0.30268  1.0000 -0.5714397454
O   O14       1.0  0.41310  0.56400  0.20034  1.0000 -0.5404871528
O   O15       1.0  0.53220  0.65200  0.08225  1.0000 -0.6497426057
O   O16       1.0  0.66380  0.71930  0.15984  1.0000 -0.1787053482
O   O17       1.0  0.73430  0.95350  0.27766  1.0000 -0.2021565958
O   O18       1.0  0.43310  0.38780  0.35572  1.0000 -0.1787053482
O   O19       1.0  0.09540  0.34050  0.48540  1.0000 -0.1108630845
O   O20       1.0  0.19380  0.24700  0.25070  1.0000 -0.1486253961
O   O21       1.0  0.10410  0.21570  0.14110  1.0000 -0.5714397454
O   O22       1.0  0.26410  0.22920  0.06610  1.0000 -0.6202144051
O   O23       1.0  0.26460  0.94260  0.14702  1.0000 -0.5507609272
O   O24       1.0  0.33110  0.83330  0.06939  1.0000 -0.5714397454
O   O25       1.0  0.34790  0.96520  0.96401  1.0000 -0.1614735411
O   O26       1.0  0.57160  0.24250  0.78314  1.0000 -0.5714397454
O   O27       1.0  0.95330  0.05320  0.74562  1.0000 -0.5797784948
O   O28       1.0  0.03360  0.17450  0.72281  1.0000 -0.5404871528
O   O29       1.0  0.80360  0.24010  0.80899  1.0000 -0.9004966839
O   O30       1.0  0.50650  0.34740  0.68389  1.0000 -0.5797784948
O   O31       1.0  0.78860  0.23220  0.66623  1.0000 -0.90506989
O   O32       1.0  0.20700  0.61690  0.45414  1.0000 -0.5603113794
O   O33       1.0  0.05250  0.64830  0.38670  1.0000 -0.5404871528
O   O34       1.0  0.53630  0.48560  0.56862  1.0000 -0.6497426057
O   O35       1.0  0.70450  0.42450  0.69732  1.0000 -0.5714397454
O   O36       1.0  0.58690  0.43600  0.79966  1.0000 -0.5404871528
O   O37       1.0  0.46780  0.34800  0.91775  1.0000 -0.6497426057
O   O38       1.0  0.33620  0.28070  0.84016  1.0000 -0.1787053482
O   O39       1.0  0.26570  0.04650  0.72234  1.0000 -0.2021565958
O   O40       1.0  0.56690  0.61220  0.64428  1.0000 -0.1787053482
O   O41       1.0  0.90460  0.65950  0.51460  1.0000 -0.1108630845
O   O42       1.0  0.80620  0.75300  0.74930  1.0000 -0.1486253961
O   O43       1.0  0.89590  0.78430  0.85890  1.0000 -0.5714397454
O   O44       1.0  0.73590  0.77080  0.93390  1.0000 -0.6202144051
