# DDEC6 charges by PACMAN v1.1 (https://github.com/mtap-research/PACMAN-charge/)
data_2019[Cd][kgd]2[FSR]1
_chemical_formula_sum              "Cd6 H60 C84 N24 O26"
_cell_length_a       11.139
_cell_length_b       13.571
_cell_length_c       16.96
_cell_angle_alpha    99.99
_cell_angle_beta     92.315
_cell_angle_gamma    113.712

_symmetry_space_group_name_H-M    "P 1"
_symmetry_Int_Tables_number       1

loop_
  _symmetry_equiv_pos_as_xyz
  'x, y, z'

loop_
  _atom_site_type_symbol
  _atom_site_label
  _atom_site_symmetry_multiplicity
  _atom_site_fract_x
  _atom_site_fract_y
  _atom_site_fract_z
  _atom_site_occupancy
  _atom_site_charge
Cd  Cd1       1.0  0.99235  0.76056  0.23572  1.0000 0.9492168253
Cd  Cd2       1.0  0.65296  0.10032  0.71974  1.0000 0.9346163993
Cd  Cd3       1.0  0.64257  0.63713  0.20158  1.0000 0.8603495484
Cd  Cd4       1.0  0.00765  0.23944  0.76428  1.0000 0.9492168253
Cd  Cd5       1.0  0.34704  0.89968  0.28026  1.0000 0.9346163993
Cd  Cd6       1.0  0.35743  0.36287  0.79842  1.0000 0.8603495484
H   H1        1.0  0.64470  0.24130  0.62050  1.0000 0.3829829817
H   H2        1.0  0.51550  0.19810  0.64660  1.0000 0.3901214575
H   H3        1.0  0.65030  0.78420  0.10810  1.0000 0.3743588453
H   H4        1.0  0.52050  0.74380  0.13130  1.0000 0.3901214575
H   H5        1.0  0.40710  0.97740  0.75020  1.0000 0.3583270734
H   H6        1.0  0.43260  0.91010  0.68390  1.0000 0.3583270734
H   H7        1.0  0.84000  0.37410  0.13580  1.0000 0.2898642843
H   H8        1.0  0.19160  0.14380  0.38140  1.0000 0.2898642843
H   H9        1.0  0.32360  0.60830  0.03540  1.0000 0.1196594214
H   H10       1.0  0.69300  0.90690  0.46230  1.0000 0.1290049022
H   H11       1.0  0.98140  0.99670  0.31900  1.0000 0.1290049022
H   H12       1.0  0.02140  0.53910  0.16950  1.0000 0.1196594214
H   H13       1.0  0.00940  0.31400  0.97760  1.0000 0.1382527848
H   H14       1.0  0.02100  0.18950  0.53540  1.0000 0.1382527848
H   H15       1.0  0.55500  0.57580  0.38540  1.0000 0.1290049022
H   H16       1.0  0.34820  0.48930  0.42570  1.0000 0.1117504388
H   H17       1.0  0.39770  0.21050  0.40470  1.0000 0.1196594214
H   H18       1.0  0.37950  0.60370  0.28050  1.0000 0.0938462143
H   H19       1.0  0.60960  0.29850  0.36830  1.0000 0.1196594214
H   H20       1.0  0.16720  0.47070  0.28710  1.0000 0.1290049022
H   H21       1.0  0.01350  0.35000  0.31650  1.0000 0.1382527848
H   H22       1.0  0.44250  0.39290  0.11850  1.0000 0.1196594214
H   H23       1.0  0.80780  0.21220  0.32710  1.0000 0.0994013514
H   H24       1.0  0.03750  0.14780  0.12870  1.0000 0.1382527848
H   H25       1.0  0.23490  0.25730  0.12560  1.0000 0.1290049022
H   H26       1.0  0.82910  0.01780  0.14280  1.0000 0.0994013514
H   H27       1.0  0.56160  0.12270  0.96390  1.0000 0.1196594214
H   H28       1.0  0.68750  0.27250  0.19660  1.0000 0.1196594214
H   H29       1.0  0.47800  0.17680  0.23010  1.0000 0.1117504388
H   H30       1.0  0.35210  0.02700  0.99750  1.0000 0.1196594214
H   H31       1.0  0.35530  0.75870  0.37950  1.0000 0.3829829817
H   H32       1.0  0.48450  0.80190  0.35340  1.0000 0.3901214575
H   H33       1.0  0.34970  0.21580  0.89190  1.0000 0.3743588453
H   H34       1.0  0.47950  0.25620  0.86870  1.0000 0.3901214575
H   H35       1.0  0.59290  0.02260  0.24980  1.0000 0.3583270734
H   H36       1.0  0.56740  0.08990  0.31610  1.0000 0.3583270734
H   H37       1.0  0.16000  0.62590  0.86420  1.0000 0.2898642843
H   H38       1.0  0.80840  0.85620  0.61860  1.0000 0.2898642843
H   H39       1.0  0.67640  0.39170  0.96460  1.0000 0.1196594214
H   H40       1.0  0.30700  0.09310  0.53770  1.0000 0.1290049022
H   H41       1.0  0.01860  0.00330  0.68100  1.0000 0.1290049022
H   H42       1.0  0.97860  0.46090  0.83050  1.0000 0.1196594214
H   H43       1.0  0.99060  0.68600  0.02240  1.0000 0.1382527848
H   H44       1.0  0.97900  0.81050  0.46460  1.0000 0.1382527848
H   H45       1.0  0.44500  0.42420  0.61460  1.0000 0.1290049022
H   H46       1.0  0.65180  0.51070  0.57430  1.0000 0.1117504388
H   H47       1.0  0.60230  0.78950  0.59530  1.0000 0.1196594214
H   H48       1.0  0.62050  0.39630  0.71950  1.0000 0.0938462143
H   H49       1.0  0.39040  0.70150  0.63170  1.0000 0.1196594214
H   H50       1.0  0.83280  0.52930  0.71290  1.0000 0.1290049022
H   H51       1.0  0.98650  0.65000  0.68350  1.0000 0.1382527848
H   H52       1.0  0.55750  0.60710  0.88150  1.0000 0.1196594214
H   H53       1.0  0.19220  0.78780  0.67290  1.0000 0.0994013514
H   H54       1.0  0.96250  0.85220  0.87130  1.0000 0.1382527848
H   H55       1.0  0.76510  0.74270  0.87440  1.0000 0.1290049022
H   H56       1.0  0.17090  0.98220  0.85720  1.0000 0.0994013514
H   H57       1.0  0.43840  0.87730  0.03610  1.0000 0.1196594214
H   H58       1.0  0.31250  0.72750  0.80340  1.0000 0.1196594214
H   H59       1.0  0.52200  0.82320  0.76990  1.0000 0.1117504388
H   H60       1.0  0.64790  0.97300  0.00250  1.0000 0.1196594214
C   C1        1.0  0.75060  0.83170  0.31990  1.0000 0.5798406129
C   C2        1.0  0.24120  0.56050  0.04560  1.0000 -0.143126977
C   C3        1.0  0.24940  0.70110  0.16720  1.0000 0.5688113596
C   C4        1.0  0.80540  0.07060  0.59300  1.0000 0.5688113596
C   C5        1.0  0.77540  0.95570  0.45290  1.0000 -0.143126977
C   C6        1.0  0.82450  0.93500  0.38100  1.0000 -0.0091419577
C   C7        1.0  0.94820  0.01050  0.36710  1.0000 -0.2069367741
C   C8        1.0  0.22930  0.42480  0.92110  1.0000 0.5688113596
C   C9        1.0  0.18300  0.59140  0.11140  1.0000 -0.0091419577
C   C10       1.0  0.26390  0.02290  0.13710  1.0000 0.2582985684
C   C11       1.0  0.06010  0.51830  0.12590  1.0000 -0.2069367741
C   C12       1.0  0.05210  0.38340  0.01090  1.0000 -0.1880917611
C   C13       1.0  0.97230  0.12590  0.49700  1.0000 -0.18046392
C   C14       1.0  0.72910  0.50070  0.33990  1.0000 0.2547690397
C   C15       1.0  0.85010  0.05020  0.51120  1.0000 -0.0091419577
C   C16       1.0  0.17390  0.45690  0.99540  1.0000 -0.0091419577
C   C17       1.0  0.59870  0.44450  0.36800  1.0000 0.0605696042
C   C18       1.0  0.99430  0.41450  0.07650  1.0000 0.2296852147
C   C19       1.0  0.52290  0.50180  0.38780  1.0000 -0.1215922956
C   C20       1.0  0.02030  0.10430  0.42390  1.0000 0.2296852147
C   C21       1.0  0.34850  0.33850  0.41400  1.0000 -0.0388054425
C   C22       1.0  0.39820  0.44970  0.41150  1.0000 -0.0920051771
C   C23       1.0  0.21050  0.28560  0.43490  1.0000 0.4686215644
C   C24       1.0  0.42830  0.28340  0.39950  1.0000 -0.1215922956
C   C25       1.0  0.35120  0.53370  0.24830  1.0000 0.0605696042
C   C26       1.0  0.55560  0.33570  0.37700  1.0000 -0.143126977
C   C27       1.0  0.22250  0.45200  0.25390  1.0000 -0.18046392
C   C28       1.0  0.78550  0.24700  0.05160  1.0000 0.4586939638
C   C29       1.0  0.18210  0.34960  0.21170  1.0000 0.1117504388
C   C30       1.0  0.04880  0.26280  0.21740  1.0000 0.0994013514
C   C31       1.0  0.97930  0.28340  0.27940  1.0000 -0.2069367741
C   C32       1.0  0.38860  0.41020  0.15370  1.0000 0.0994013514
C   C33       1.0  0.85250  0.19810  0.28450  1.0000 0.0784743888
C   C34       1.0  0.99270  0.16590  0.17000  1.0000 -0.1652482326
C   C35       1.0  0.26300  0.32700  0.15830  1.0000 -0.1880917611
C   C36       1.0  0.86420  0.08540  0.17870  1.0000 0.0784743888
C   C37       1.0  0.54490  0.13360  0.01730  1.0000 -0.1009569342
C   C38       1.0  0.64540  0.20710  0.07690  1.0000 -0.0198144089
C   C39       1.0  0.62030  0.22330  0.15670  1.0000 -0.1334561283
C   C40       1.0  0.49480  0.16600  0.17680  1.0000 -0.1576546008
C   C41       1.0  0.39430  0.09240  0.11710  1.0000 0.0503818741
C   C42       1.0  0.41940  0.07620  0.03740  1.0000 -0.1215922956
C   C43       1.0  0.24940  0.16830  0.68010  1.0000 0.5798406129
C   C44       1.0  0.75880  0.43950  0.95440  1.0000 -0.143126977
C   C45       1.0  0.75060  0.29890  0.83280  1.0000 0.5688113596
C   C46       1.0  0.19460  0.92940  0.40700  1.0000 0.5688113596
C   C47       1.0  0.22460  0.04430  0.54710  1.0000 -0.143126977
C   C48       1.0  0.17550  0.06500  0.61900  1.0000 -0.0091419577
C   C49       1.0  0.05180  0.98950  0.63290  1.0000 -0.2069367741
C   C50       1.0  0.77070  0.57520  0.07890  1.0000 0.5688113596
C   C51       1.0  0.81700  0.40860  0.88860  1.0000 -0.0091419577
C   C52       1.0  0.73610  0.97710  0.86290  1.0000 0.2582985684
C   C53       1.0  0.93990  0.48170  0.87410  1.0000 -0.2069367741
C   C54       1.0  0.94790  0.61660  0.98910  1.0000 -0.1880917611
C   C55       1.0  0.02770  0.87410  0.50300  1.0000 -0.18046392
C   C56       1.0  0.27090  0.49930  0.66010  1.0000 0.2582985684
C   C57       1.0  0.14990  0.94980  0.48880  1.0000 -0.0091419577
C   C58       1.0  0.82610  0.54310  0.00460  1.0000 -0.0091419577
C   C59       1.0  0.40130  0.55550  0.63200  1.0000 0.0605696042
C   C60       1.0  0.00570  0.58550  0.92350  1.0000 0.2296852147
C   C61       1.0  0.47710  0.49820  0.61220  1.0000 -0.1215922956
C   C62       1.0  0.97970  0.89570  0.57610  1.0000 0.2296852147
C   C63       1.0  0.65150  0.66150  0.58600  1.0000 -0.0388054425
C   C64       1.0  0.60180  0.55030  0.58850  1.0000 -0.0920051771
C   C65       1.0  0.78950  0.71440  0.56510  1.0000 0.4686215644
C   C66       1.0  0.57170  0.71660  0.60050  1.0000 -0.1215922956
C   C67       1.0  0.64880  0.46630  0.75170  1.0000 0.0605696042
C   C68       1.0  0.44440  0.66430  0.62300  1.0000 -0.143126977
C   C69       1.0  0.77750  0.54800  0.74610  1.0000 -0.18046392
C   C70       1.0  0.21450  0.75300  0.94840  1.0000 0.4586939638
C   C71       1.0  0.81790  0.65040  0.78830  1.0000 0.1117504388
C   C72       1.0  0.95120  0.73720  0.78260  1.0000 0.0994013514
C   C73       1.0  0.02070  0.71660  0.72060  1.0000 -0.2069367741
C   C74       1.0  0.61140  0.58980  0.84630  1.0000 0.0994013514
C   C75       1.0  0.14750  0.80190  0.71550  1.0000 0.0784743888
C   C76       1.0  0.00730  0.83410  0.83000  1.0000 -0.1652482326
C   C77       1.0  0.73700  0.67300  0.84170  1.0000 -0.1880917611
C   C78       1.0  0.13580  0.91460  0.82130  1.0000 0.0784743888
C   C79       1.0  0.45510  0.86640  0.98270  1.0000 -0.1009569342
C   C80       1.0  0.35460  0.79290  0.92310  1.0000 -0.0198144089
C   C81       1.0  0.37970  0.77670  0.84330  1.0000 -0.1334561283
C   C82       1.0  0.50520  0.83400  0.82320  1.0000 -0.1576546008
C   C83       1.0  0.60570  0.90760  0.88290  1.0000 0.0503818741
C   C84       1.0  0.58060  0.92380  0.96260  1.0000 -0.1215922956
N   N1        1.0  0.88280  0.60670  0.28570  1.0000 -0.0920051771
N   N2        1.0  0.10250  0.90720  0.18070  1.0000 -0.0920051771
N   N3        1.0  0.75440  0.57620  0.29490  1.0000 -0.2813729519
N   N4        1.0  0.23700  0.95740  0.19080  1.0000 -0.3178726459
N   N5        1.0  0.86750  0.34790  0.09410  1.0000 -0.3643004174
N   N6        1.0  0.43290  0.51250  0.19770  1.0000 -0.2546958799
N   N7        1.0  0.05500  0.93860  0.12350  1.0000 -0.0556275236
N   N8        1.0  0.15560  0.01180  0.09420  1.0000 -0.2918316523
N   N9        1.0  0.14880  0.17480  0.40930  1.0000 -0.3738665456
N   N10       1.0  0.93330  0.55100  0.32130  1.0000 -0.0698782379
N   N11       1.0  0.83610  0.48100  0.35560  1.0000 -0.2918316523
N   N12       1.0  0.79510  0.10420  0.23560  1.0000 -0.2568928475
N   N13       1.0  0.11720  0.39330  0.71430  1.0000 -0.0920051771
N   N14       1.0  0.89750  0.09280  0.81930  1.0000 -0.0920051771
N   N15       1.0  0.24560  0.42380  0.70510  1.0000 -0.2813729519
N   N16       1.0  0.76300  0.04260  0.80920  1.0000 -0.3178726459
N   N17       1.0  0.13250  0.65210  0.90590  1.0000 -0.3643004174
N   N18       1.0  0.56710  0.48750  0.80230  1.0000 -0.2546958799
N   N19       1.0  0.94500  0.06140  0.87650  1.0000 -0.0556275236
N   N20       1.0  0.84440  0.98820  0.90580  1.0000 -0.2918316523
N   N21       1.0  0.85120  0.82520  0.59070  1.0000 -0.3738665456
N   N22       1.0  0.06670  0.44900  0.67870  1.0000 -0.0698782379
N   N23       1.0  0.16390  0.51900  0.64440  1.0000 -0.2918316523
N   N24       1.0  0.20490  0.89580  0.76440  1.0000 -0.2568928475
O   O1        1.0  0.63170  0.77090  0.32250  1.0000 -0.5716495787
O   O2        1.0  0.36640  0.76420  0.16410  1.0000 -0.5579784984
O   O3        1.0  0.81460  0.80590  0.26450  1.0000 -0.5812397326
O   O4        1.0  0.18240  0.72750  0.22020  1.0000 -0.5871385211
O   O5        1.0  0.16390  0.32940  0.87670  1.0000 -0.5812397326
O   O6        1.0  0.57990  0.17970  0.62890  1.0000 -0.6759251232
O   O7        1.0  0.33700  0.49050  0.90430  1.0000 -0.534189331
O   O8        1.0  0.87730  0.15840  0.64190  1.0000 -0.5716495787
O   O9        1.0  0.69750  0.00070  0.60810  1.0000 -0.5716495787
O   O10       1.0  0.58270  0.72410  0.11380  1.0000 -0.6578800852
O   O11       1.0  0.44140  0.97840  0.70350  1.0000 -0.6855260009
O   O12       1.0  0.15580  0.34080  0.47050  1.0000 -0.4559669519
O   O13       1.0  0.81060  0.19900  0.99280  1.0000 -0.4056253905
O   O14       1.0  0.36830  0.22910  0.67750  1.0000 -0.5716495787
O   O15       1.0  0.63360  0.23580  0.83590  1.0000 -0.5579784984
O   O16       1.0  0.18540  0.19410  0.73550  1.0000 -0.5812397326
O   O17       1.0  0.81760  0.27250  0.77980  1.0000 -0.5871385211
O   O18       1.0  0.83610  0.67060  0.12330  1.0000 -0.5812397326
O   O19       1.0  0.42010  0.82030  0.37110  1.0000 -0.6759251232
O   O20       1.0  0.66300  0.50950  0.09570  1.0000 -0.534189331
O   O21       1.0  0.12270  0.84160  0.35810  1.0000 -0.5716495787
O   O22       1.0  0.30250  0.99930  0.39190  1.0000 -0.5716495787
O   O23       1.0  0.41730  0.27590  0.88620  1.0000 -0.6578800852
O   O24       1.0  0.55860  0.02160  0.29650  1.0000 -0.6855260009
O   O25       1.0  0.84420  0.65920  0.52950  1.0000 -0.4559669519
O   O26       1.0  0.18940  0.80100  0.00720  1.0000 -0.4056253905
