# DDEC6 charges by PACMAN v1.1 (https://github.com/mtap-research/PACMAN-charge/)
data_2019[Zn][nan]3[FSR]25
_chemical_formula_sum              "Zn16 H112 C148 N4 O68"
_cell_length_a       11.2602
_cell_length_b       27.7478
_cell_length_c       20.6418
_cell_angle_alpha    90
_cell_angle_beta     121.658
_cell_angle_gamma    90

_symmetry_space_group_name_H-M    "P 1"
_symmetry_Int_Tables_number       1

loop_
  _symmetry_equiv_pos_as_xyz
  'x, y, z'

loop_
  _atom_site_type_symbol
  _atom_site_label
  _atom_site_symmetry_multiplicity
  _atom_site_fract_x
  _atom_site_fract_y
  _atom_site_fract_z
  _atom_site_occupancy
  _atom_site_charge
Zn  Zn1       1.0  0.57124  0.25486  0.78697  1.0000 1.0311133283
Zn  Zn2       1.0  0.87398  0.24592  0.92303  1.0000 1.0311133283
Zn  Zn3       1.0  0.71255  0.35332  0.87213  1.0000 0.9685140269
Zn  Zn4       1.0  0.62862  0.17854  0.92703  1.0000 1.0373621153
Zn  Zn5       1.0  0.42876  0.75486  0.71303  1.0000 1.0311133283
Zn  Zn6       1.0  0.12602  0.74592  0.57697  1.0000 1.0311133283
Zn  Zn7       1.0  0.28745  0.85332  0.62787  1.0000 0.9685140269
Zn  Zn8       1.0  0.37138  0.67854  0.57297  1.0000 1.0373621153
Zn  Zn9       1.0  0.42876  0.74514  0.21303  1.0000 1.0311133283
Zn  Zn10      1.0  0.12602  0.75408  0.07697  1.0000 1.0311133283
Zn  Zn11      1.0  0.28745  0.64668  0.12787  1.0000 0.9685140269
Zn  Zn12      1.0  0.37138  0.82146  0.07297  1.0000 1.0373621153
Zn  Zn13      1.0  0.57124  0.24514  0.28697  1.0000 1.0311133283
Zn  Zn14      1.0  0.87398  0.25408  0.42303  1.0000 1.0311133283
Zn  Zn15      1.0  0.71255  0.14668  0.37213  1.0000 0.9685140269
Zn  Zn16      1.0  0.62862  0.32146  0.42703  1.0000 1.0373621153
H   H1        1.0  0.79020  0.42683  0.83342  1.0000 0.3475876989
H   H2        1.0  0.90834  0.40783  0.89322  1.0000 0.3475876989
H   H3        1.0  0.14769  0.20326  0.63616  1.0000 0.129568942
H   H4        1.0  0.77272  0.02008  0.77636  1.0000 0.129568942
H   H5        1.0  0.57745  0.40243  0.13808  1.0000 0.1130089858
H   H6        1.0  0.78375  0.81971  0.87368  1.0000 0.1406410102
H   H7        1.0  0.52092  0.37436  0.93225  1.0000 0.129568942
H   H8        1.0  0.61488  0.26724  0.08321  1.0000 0.129568942
H   H9        1.0  0.24818  0.10899  0.80432  1.0000 0.1130089858
H   H10       1.0  0.36682  0.44592  0.90297  1.0000 0.1203622798
H   H11       1.0  0.66709  0.47257  0.11934  1.0000 0.1130089858
H   H12       1.0  0.67930  0.93688  0.73896  1.0000 0.1203622798
H   H13       1.0  0.83742  0.08727  0.73561  1.0000 0.129568942
H   H14       1.0  0.10800  0.94936  0.80524  1.0000 0.1130089858
H   H15       1.0  0.17386  0.01624  0.76747  1.0000 0.1130089858
H   H16       1.0  0.86987  0.10291  0.61122  1.0000 0.129568942
H   H17       1.0  0.08078  0.91166  0.89771  1.0000 0.1130089858
H   H18       1.0  0.19254  0.17075  0.88080  1.0000 0.1406410102
H   H19       1.0  0.15139  0.14592  0.93451  1.0000 0.1493854987
H   H20       1.0  0.03498  0.16562  0.85487  1.0000 0.1738509404
H   H21       1.0  0.42238  0.19769  0.01128  1.0000 0.129568942
H   H22       1.0  0.42787  0.20817  0.08743  1.0000 0.1555800716
H   H23       1.0  0.34170  0.16427  0.03662  1.0000 0.129568942
H   H24       1.0  0.15875  0.28906  0.01030  1.0000 0.1406410102
H   H25       1.0  0.29349  0.27202  0.08533  1.0000 0.1493854987
H   H26       1.0  0.30619  0.29884  0.02238  1.0000 0.1406410102
H   H27       1.0  0.48506  0.10431  0.95026  1.0000 0.4258554707
H   H28       1.0  0.60024  0.11845  0.02768  1.0000 0.4258554707
H   H29       1.0  0.20980  0.92683  0.66658  1.0000 0.3475876989
H   H30       1.0  0.09166  0.90783  0.60678  1.0000 0.3475876989
H   H31       1.0  0.85231  0.70326  0.86384  1.0000 0.129568942
H   H32       1.0  0.22728  0.52008  0.72364  1.0000 0.129568942
H   H33       1.0  0.42255  0.90243  0.36192  1.0000 0.1130089858
H   H34       1.0  0.21625  0.31971  0.62632  1.0000 0.1406410102
H   H35       1.0  0.47908  0.87436  0.56775  1.0000 0.129568942
H   H36       1.0  0.38512  0.76724  0.41679  1.0000 0.129568942
H   H37       1.0  0.75182  0.60899  0.69568  1.0000 0.1130089858
H   H38       1.0  0.63318  0.94592  0.59703  1.0000 0.1203622798
H   H39       1.0  0.33291  0.97257  0.38066  1.0000 0.1130089858
H   H40       1.0  0.32070  0.43688  0.76104  1.0000 0.1203622798
H   H41       1.0  0.16258  0.58727  0.76439  1.0000 0.129568942
H   H42       1.0  0.89200  0.44936  0.69476  1.0000 0.1130089858
H   H43       1.0  0.82614  0.51624  0.73253  1.0000 0.1130089858
H   H44       1.0  0.13013  0.60291  0.88878  1.0000 0.129568942
H   H45       1.0  0.91922  0.41166  0.60229  1.0000 0.1130089858
H   H46       1.0  0.80746  0.67075  0.61920  1.0000 0.1406410102
H   H47       1.0  0.84861  0.64592  0.56549  1.0000 0.1493854987
H   H48       1.0  0.96502  0.66562  0.64513  1.0000 0.1738509404
H   H49       1.0  0.57762  0.69769  0.48872  1.0000 0.129568942
H   H50       1.0  0.57213  0.70817  0.41257  1.0000 0.1555800716
H   H51       1.0  0.65830  0.66427  0.46338  1.0000 0.129568942
H   H52       1.0  0.84125  0.78906  0.48970  1.0000 0.1406410102
H   H53       1.0  0.70651  0.77202  0.41467  1.0000 0.1493854987
H   H54       1.0  0.69381  0.79884  0.47762  1.0000 0.1406410102
H   H55       1.0  0.51494  0.60431  0.54974  1.0000 0.4258554707
H   H56       1.0  0.39976  0.61845  0.47232  1.0000 0.4258554707
H   H57       1.0  0.20980  0.57317  0.16658  1.0000 0.3475876989
H   H58       1.0  0.09166  0.59217  0.10678  1.0000 0.3475876989
H   H59       1.0  0.85231  0.79674  0.36384  1.0000 0.129568942
H   H60       1.0  0.22728  0.97992  0.22364  1.0000 0.129568942
H   H61       1.0  0.42255  0.59757  0.86192  1.0000 0.1130089858
H   H62       1.0  0.21625  0.18029  0.12632  1.0000 0.1406410102
H   H63       1.0  0.47908  0.62564  0.06775  1.0000 0.129568942
H   H64       1.0  0.38512  0.73276  0.91679  1.0000 0.129568942
H   H65       1.0  0.75182  0.89101  0.19568  1.0000 0.1130089858
H   H66       1.0  0.63318  0.55408  0.09703  1.0000 0.1203622798
H   H67       1.0  0.33291  0.52743  0.88066  1.0000 0.1130089858
H   H68       1.0  0.32070  0.06312  0.26104  1.0000 0.1203622798
H   H69       1.0  0.16258  0.91273  0.26439  1.0000 0.129568942
H   H70       1.0  0.89200  0.05064  0.19476  1.0000 0.1130089858
H   H71       1.0  0.82614  0.98376  0.23253  1.0000 0.1130089858
H   H72       1.0  0.13013  0.89709  0.38878  1.0000 0.129568942
H   H73       1.0  0.91922  0.08834  0.10229  1.0000 0.1130089858
H   H74       1.0  0.80746  0.82925  0.11920  1.0000 0.1406410102
H   H75       1.0  0.84861  0.85408  0.06549  1.0000 0.1493854987
H   H76       1.0  0.96502  0.83438  0.14513  1.0000 0.1738509404
H   H77       1.0  0.57762  0.80231  0.98872  1.0000 0.129568942
H   H78       1.0  0.57213  0.79183  0.91257  1.0000 0.1555800716
H   H79       1.0  0.65830  0.83573  0.96338  1.0000 0.129568942
H   H80       1.0  0.84125  0.71094  0.98970  1.0000 0.1406410102
H   H81       1.0  0.70651  0.72798  0.91467  1.0000 0.1493854987
H   H82       1.0  0.69381  0.70116  0.97762  1.0000 0.1406410102
H   H83       1.0  0.51494  0.89569  0.04974  1.0000 0.4258554707
H   H84       1.0  0.39976  0.88155  0.97232  1.0000 0.4258554707
H   H85       1.0  0.79020  0.07317  0.33342  1.0000 0.3475876989
H   H86       1.0  0.90834  0.09217  0.39322  1.0000 0.3475876989
H   H87       1.0  0.14769  0.29674  0.13616  1.0000 0.129568942
H   H88       1.0  0.77272  0.47992  0.27636  1.0000 0.129568942
H   H89       1.0  0.57745  0.09757  0.63808  1.0000 0.1130089858
H   H90       1.0  0.78375  0.68029  0.37368  1.0000 0.1406410102
H   H91       1.0  0.52092  0.12564  0.43225  1.0000 0.129568942
H   H92       1.0  0.61488  0.23276  0.58321  1.0000 0.129568942
H   H93       1.0  0.24818  0.39101  0.30432  1.0000 0.1130089858
H   H94       1.0  0.36682  0.05408  0.40297  1.0000 0.1203622798
H   H95       1.0  0.66709  0.02743  0.61934  1.0000 0.1130089858
H   H96       1.0  0.67930  0.56312  0.23896  1.0000 0.1203622798
H   H97       1.0  0.83742  0.41273  0.23561  1.0000 0.129568942
H   H98       1.0  0.10800  0.55064  0.30524  1.0000 0.1130089858
H   H99       1.0  0.17386  0.48376  0.26747  1.0000 0.1130089858
H   H100      1.0  0.86987  0.39709  0.11122  1.0000 0.129568942
H   H101      1.0  0.08078  0.58834  0.39771  1.0000 0.1130089858
H   H102      1.0  0.19254  0.32925  0.38080  1.0000 0.1406410102
H   H103      1.0  0.15139  0.35408  0.43451  1.0000 0.1493854987
H   H104      1.0  0.03498  0.33438  0.35487  1.0000 0.1738509404
H   H105      1.0  0.42238  0.30231  0.51128  1.0000 0.129568942
H   H106      1.0  0.42787  0.29183  0.58743  1.0000 0.1555800716
H   H107      1.0  0.34170  0.33573  0.53662  1.0000 0.129568942
H   H108      1.0  0.15875  0.21094  0.51030  1.0000 0.1406410102
H   H109      1.0  0.29349  0.22798  0.58533  1.0000 0.1493854987
H   H110      1.0  0.30619  0.20116  0.52238  1.0000 0.1406410102
H   H111      1.0  0.48506  0.39569  0.45026  1.0000 0.4258554707
H   H112      1.0  0.60024  0.38155  0.52768  1.0000 0.4258554707
C   C1        1.0  0.59730  0.33240  0.12130  1.0000 -0.0084061615
C   C2        1.0  0.56280  0.85600  0.75250  1.0000 0.5901615637
C   C3        1.0  0.21710  0.16000  0.72630  1.0000 -0.0084061615
C   C4        1.0  0.05850  0.83320  0.96310  1.0000 0.5976843404
C   C5        1.0  0.12450  0.17680  0.65490  1.0000 -0.1074622945
C   C6        1.0  0.85220  0.01890  0.77330  1.0000 -0.1374922412
C   C7        1.0  0.94900  0.86190  0.89680  1.0000 -0.0194328393
C   C8        1.0  0.57040  0.31550  0.99980  1.0000 -0.0194328393
C   C9        1.0  0.57320  0.38060  0.10270  1.0000 -0.1590218452
C   C10       1.0  0.93010  0.97640  0.79280  1.0000 0.0701208113
C   C11       1.0  0.99460  0.15430  0.60950  1.0000 -0.0194328393
C   C12       1.0  0.80930  0.84750  0.85870  1.0000 -0.1074622945
C   C13       1.0  0.54230  0.39740  0.03100  1.0000 0.0629901766
C   C14       1.0  0.04950  0.09990  0.71430  1.0000 0.0701208113
C   C15       1.0  0.70770  0.87510  0.79760  1.0000 -0.0194328393
C   C16       1.0  0.52030  0.44960  0.01490  1.0000 0.0767801421
C   C17       1.0  0.54120  0.36410  0.97990  1.0000 -0.1468983648
C   C18       1.0  0.62260  0.31530  0.19770  1.0000 0.5582431125
C   C19       1.0  0.36230  0.18140  0.77440  1.0000 0.5976843404
C   C20       1.0  0.59710  0.29970  0.07030  1.0000 -0.1224844746
C   C21       1.0  0.18290  0.12100  0.75650  1.0000 -0.1590218452
C   C22       1.0  0.42040  0.46740  0.94230  1.0000 -0.1336487465
C   C23       1.0  0.88710  0.93260  0.81580  1.0000 0.0629901766
C   C24       1.0  0.57640  0.27890  0.94700  1.0000 0.5976843404
C   C25       1.0  0.90330  0.16850  0.52820  1.0000 0.5901615637
C   C26       1.0  0.59920  0.48330  0.07120  1.0000 -0.1374922412
C   C27       1.0  0.74720  0.91790  0.77790  1.0000 -0.1468983648
C   C28       1.0  0.89170  0.05950  0.74940  1.0000 -0.1224844746
C   C29       1.0  0.05240  0.97680  0.79080  1.0000 -0.1468983648
C   C30       1.0  0.09190  0.01700  0.76810  1.0000 -0.1468983648
C   C31       1.0  0.95760  0.11700  0.64030  1.0000 -0.1374922412
C   C32       1.0  0.98700  0.90330  0.87380  1.0000 -0.1468983648
C   C33       1.0  0.01250  0.05880  0.74600  1.0000 0.0629901766
C   C34       1.0  0.12760  0.17100  0.89760  1.0000 -0.5593999756
C   C35       1.0  0.13370  0.22040  0.93400  1.0000 0.4916754531
C   C36       1.0  0.37040  0.19680  0.03610  1.0000 -0.3497547937
C   C37       1.0  0.25140  0.27650  0.03150  1.0000 -0.3418997956
C   C38       1.0  0.40270  0.83240  0.37870  1.0000 -0.0084061615
C   C39       1.0  0.43720  0.35600  0.74750  1.0000 0.5901615637
C   C40       1.0  0.78290  0.66000  0.77370  1.0000 -0.0084061615
C   C41       1.0  0.94150  0.33320  0.53690  1.0000 0.5976843404
C   C42       1.0  0.87550  0.67680  0.84510  1.0000 -0.1074622945
C   C43       1.0  0.14780  0.51890  0.72670  1.0000 -0.1374922412
C   C44       1.0  0.05100  0.36190  0.60320  1.0000 -0.0194328393
C   C45       1.0  0.42960  0.81550  0.50020  1.0000 -0.0194328393
C   C46       1.0  0.42680  0.88060  0.39730  1.0000 -0.1590218452
C   C47       1.0  0.06990  0.47640  0.70720  1.0000 0.0701208113
C   C48       1.0  0.00540  0.65430  0.89050  1.0000 -0.0194328393
C   C49       1.0  0.19070  0.34750  0.64130  1.0000 -0.1074622945
C   C50       1.0  0.45770  0.89740  0.46900  1.0000 0.0629901766
C   C51       1.0  0.95050  0.59990  0.78570  1.0000 0.0701208113
C   C52       1.0  0.29230  0.37510  0.70240  1.0000 -0.0194328393
C   C53       1.0  0.47970  0.94960  0.48510  1.0000 0.0767801421
C   C54       1.0  0.45880  0.86410  0.52010  1.0000 -0.1468983648
C   C55       1.0  0.37740  0.81530  0.30230  1.0000 0.5582431125
C   C56       1.0  0.63770  0.68140  0.72560  1.0000 0.5976843404
C   C57       1.0  0.40290  0.79970  0.42970  1.0000 -0.1224844746
C   C58       1.0  0.81710  0.62100  0.74350  1.0000 -0.1590218452
C   C59       1.0  0.57960  0.96740  0.55770  1.0000 -0.1374922412
C   C60       1.0  0.11290  0.43260  0.68420  1.0000 0.0629901766
C   C61       1.0  0.42360  0.77890  0.55300  1.0000 0.5976843404
C   C62       1.0  0.09670  0.66850  0.97180  1.0000 0.5901615637
C   C63       1.0  0.40080  0.98330  0.42880  1.0000 -0.1374922412
C   C64       1.0  0.25280  0.41790  0.72210  1.0000 -0.1468983648
C   C65       1.0  0.10830  0.55950  0.75060  1.0000 -0.1224844746
C   C66       1.0  0.94760  0.47680  0.70920  1.0000 -0.1468983648
C   C67       1.0  0.90810  0.51700  0.73190  1.0000 -0.1468983648
C   C68       1.0  0.04240  0.61700  0.85970  1.0000 -0.1374922412
C   C69       1.0  0.01300  0.40330  0.62620  1.0000 -0.1468983648
C   C70       1.0  0.98750  0.55880  0.75400  1.0000 0.0629901766
C   C71       1.0  0.87240  0.67100  0.60240  1.0000 -0.5593999756
C   C72       1.0  0.86630  0.72040  0.56600  1.0000 0.4916754531
C   C73       1.0  0.62960  0.69680  0.46390  1.0000 -0.3497547937
C   C74       1.0  0.74860  0.77650  0.46850  1.0000 -0.3418997956
C   C75       1.0  0.40270  0.66760  0.87870  1.0000 -0.0084061615
C   C76       1.0  0.43720  0.14400  0.24750  1.0000 0.5901615637
C   C77       1.0  0.78290  0.84000  0.27370  1.0000 -0.0084061615
C   C78       1.0  0.94150  0.16680  0.03690  1.0000 0.5976843404
C   C79       1.0  0.87550  0.82320  0.34510  1.0000 -0.1074622945
C   C80       1.0  0.14780  0.98110  0.22670  1.0000 -0.1374922412
C   C81       1.0  0.05100  0.13810  0.10320  1.0000 -0.0194328393
C   C82       1.0  0.42960  0.68450  0.00020  1.0000 -0.0194328393
C   C83       1.0  0.42680  0.61940  0.89730  1.0000 -0.1590218452
C   C84       1.0  0.06990  0.02360  0.20720  1.0000 0.0701208113
C   C85       1.0  0.00540  0.84570  0.39050  1.0000 -0.0194328393
C   C86       1.0  0.19070  0.15250  0.14130  1.0000 -0.1074622945
C   C87       1.0  0.45770  0.60260  0.96900  1.0000 0.0629901766
C   C88       1.0  0.95050  0.90010  0.28570  1.0000 0.0701208113
C   C89       1.0  0.29230  0.12490  0.20240  1.0000 -0.0194328393
C   C90       1.0  0.47970  0.55040  0.98510  1.0000 0.0767801421
C   C91       1.0  0.45880  0.63590  0.02010  1.0000 -0.1468983648
C   C92       1.0  0.37740  0.68470  0.80230  1.0000 0.5582431125
C   C93       1.0  0.63770  0.81860  0.22560  1.0000 0.5976843404
C   C94       1.0  0.40290  0.70030  0.92970  1.0000 -0.1224844746
C   C95       1.0  0.81710  0.87900  0.24350  1.0000 -0.1590218452
C   C96       1.0  0.57960  0.53260  0.05770  1.0000 -0.1336487465
C   C97       1.0  0.11290  0.06740  0.18420  1.0000 0.0629901766
C   C98       1.0  0.42360  0.72110  0.05300  1.0000 0.5976843404
C   C99       1.0  0.09670  0.83150  0.47180  1.0000 0.5901615637
C   C100      1.0  0.40080  0.51670  0.92880  1.0000 -0.1374922412
C   C101      1.0  0.25280  0.08210  0.22210  1.0000 -0.1468983648
C   C102      1.0  0.10830  0.94050  0.25060  1.0000 -0.1224844746
C   C103      1.0  0.94760  0.02320  0.20920  1.0000 -0.1468983648
C   C104      1.0  0.90810  0.98300  0.23190  1.0000 -0.1468983648
C   C105      1.0  0.04240  0.88300  0.35970  1.0000 -0.1374922412
C   C106      1.0  0.01300  0.09670  0.12620  1.0000 -0.1468983648
C   C107      1.0  0.98750  0.94120  0.25400  1.0000 0.0629901766
C   C108      1.0  0.87240  0.82900  0.10240  1.0000 -0.5677623947
C   C109      1.0  0.86630  0.77960  0.06600  1.0000 0.4916754531
C   C110      1.0  0.62960  0.80320  0.96390  1.0000 -0.3497547937
C   C111      1.0  0.74860  0.72350  0.96850  1.0000 -0.3418997956
C   C112      1.0  0.59730  0.16760  0.62130  1.0000 -0.0084061615
C   C113      1.0  0.56280  0.64400  0.25250  1.0000 0.5901615637
C   C114      1.0  0.21710  0.34000  0.22630  1.0000 -0.0084061615
C   C115      1.0  0.05850  0.66680  0.46310  1.0000 0.5976843404
C   C116      1.0  0.12450  0.32320  0.15490  1.0000 -0.1074622945
C   C117      1.0  0.85220  0.48110  0.27330  1.0000 -0.1374922412
C   C118      1.0  0.94900  0.63810  0.39680  1.0000 -0.0194328393
C   C119      1.0  0.57040  0.18450  0.49980  1.0000 -0.0194328393
C   C120      1.0  0.57320  0.11940  0.60270  1.0000 -0.1590218452
C   C121      1.0  0.93010  0.52360  0.29280  1.0000 0.0701208113
C   C122      1.0  0.99460  0.34570  0.10950  1.0000 -0.0194328393
C   C123      1.0  0.80930  0.65250  0.35870  1.0000 -0.1074622945
C   C124      1.0  0.54230  0.10260  0.53100  1.0000 0.0629901766
C   C125      1.0  0.04950  0.40010  0.21430  1.0000 0.0701208113
C   C126      1.0  0.70770  0.62490  0.29760  1.0000 -0.0194328393
C   C127      1.0  0.52030  0.05040  0.51490  1.0000 0.0767801421
C   C128      1.0  0.54120  0.13590  0.47990  1.0000 -0.1468983648
C   C129      1.0  0.62260  0.18470  0.69770  1.0000 0.5582431125
C   C130      1.0  0.36230  0.31860  0.27440  1.0000 0.5976843404
C   C131      1.0  0.59710  0.20030  0.57030  1.0000 -0.1224844746
C   C132      1.0  0.18290  0.37900  0.25650  1.0000 -0.1590218452
C   C133      1.0  0.42040  0.03260  0.44230  1.0000 -0.1336487465
C   C134      1.0  0.88710  0.56740  0.31580  1.0000 0.0629901766
C   C135      1.0  0.57640  0.22110  0.44700  1.0000 0.5976843404
C   C136      1.0  0.90330  0.33150  0.02820  1.0000 0.5901615637
C   C137      1.0  0.59920  0.01670  0.57120  1.0000 -0.1374922412
C   C138      1.0  0.74720  0.58210  0.27790  1.0000 -0.1468983648
C   C139      1.0  0.89170  0.44050  0.24940  1.0000 -0.1224844746
C   C140      1.0  0.05240  0.52320  0.29080  1.0000 -0.1468983648
C   C141      1.0  0.09190  0.48300  0.26810  1.0000 -0.1468983648
C   C142      1.0  0.95760  0.38300  0.14030  1.0000 -0.1374922412
C   C143      1.0  0.98700  0.59670  0.37380  1.0000 -0.1468983648
C   C144      1.0  0.01250  0.44120  0.24600  1.0000 0.0629901766
C   C145      1.0  0.12760  0.32900  0.39760  1.0000 -0.5593999756
C   C146      1.0  0.13370  0.27960  0.43400  1.0000 0.4916754531
C   C147      1.0  0.37040  0.30320  0.53610  1.0000 -0.3497547937
C   C148      1.0  0.25140  0.22350  0.53150  1.0000 -0.3418997956
N   N1        1.0  0.24460  0.22820  0.99410  1.0000 0.0180921817
N   N2        1.0  0.75540  0.72820  0.50590  1.0000 0.0180921817
N   N3        1.0  0.75540  0.77180  0.00590  1.0000 0.0180921817
N   N4        1.0  0.24460  0.27180  0.49410  1.0000 0.0180921817
O   O1        1.0  0.75900  0.29511  0.83760  1.0000 -0.7874021662
O   O2        1.0  0.53930  0.81603  0.77140  1.0000 -0.5099132193
O   O3        1.0  0.70470  0.20520  0.86720  1.0000 -0.79912336
O   O4        1.0  0.59480  0.27182  0.20150  1.0000 -0.5203501565
O   O5        1.0  0.47330  0.88155  0.69700  1.0000 -0.5593999756
O   O6        1.0  0.91880  0.20960  0.50990  1.0000 -0.5272342843
O   O7        1.0  0.18310  0.84020  0.98160  1.0000 -0.5461524559
O   O8        1.0  0.44420  0.15940  0.83510  1.0000 -0.5382315574
O   O9        1.0  0.01640  0.80550  0.99500  1.0000 -0.5203501565
O   O10       1.0  0.57630  0.29308  0.88910  1.0000 -0.5677623947
O   O11       1.0  0.38760  0.21873  0.75080  1.0000 -0.5008543483
O   O12       1.0  0.58150  0.23550  0.96610  1.0000 -0.5382315574
O   O13       1.0  0.66870  0.34600  0.25020  1.0000 -0.5008543483
O   O14       1.0  0.81750  0.13600  0.48270  1.0000 -0.5677623947
O   O15       1.0  0.03110  0.24770  0.90300  1.0000 -0.5008543483
O   O16       1.0  0.83330  0.39970  0.85110  1.0000 -0.6045781505
O   O17       1.0  0.56130  0.12590  0.97550  1.0000 -0.7064973695
O   O18       1.0  0.24100  0.79511  0.66240  1.0000 -0.7874021662
O   O19       1.0  0.46070  0.31603  0.72860  1.0000 -0.5099132193
O   O20       1.0  0.29530  0.70520  0.63280  1.0000 -0.79912336
O   O21       1.0  0.40520  0.77182  0.29850  1.0000 -0.5203501565
O   O22       1.0  0.52670  0.38155  0.80300  1.0000 -0.5593999756
O   O23       1.0  0.08120  0.70960  0.99010  1.0000 -0.5272342843
O   O24       1.0  0.81690  0.34020  0.51840  1.0000 -0.5461524559
O   O25       1.0  0.55580  0.65940  0.66490  1.0000 -0.5382315574
O   O26       1.0  0.98360  0.30550  0.50500  1.0000 -0.5203501565
O   O27       1.0  0.42370  0.79308  0.61090  1.0000 -0.5677623947
O   O28       1.0  0.61240  0.71873  0.74920  1.0000 -0.5099132193
O   O29       1.0  0.41850  0.73550  0.53390  1.0000 -0.5382315574
O   O30       1.0  0.33130  0.84600  0.24980  1.0000 -0.5008543483
O   O31       1.0  0.18250  0.63600  0.01730  1.0000 -0.5677623947
O   O32       1.0  0.96890  0.74770  0.59700  1.0000 -0.5008543483
O   O33       1.0  0.16670  0.89970  0.64890  1.0000 -0.6045781505
O   O34       1.0  0.43870  0.62590  0.52450  1.0000 -0.7064973695
O   O35       1.0  0.24100  0.70489  0.16240  1.0000 -0.7874021662
O   O36       1.0  0.46070  0.18397  0.22860  1.0000 -0.5099132193
O   O37       1.0  0.29530  0.79480  0.13280  1.0000 -0.806009723
O   O38       1.0  0.40520  0.72818  0.79850  1.0000 -0.5203501565
O   O39       1.0  0.52670  0.11845  0.30300  1.0000 -0.5593999756
O   O40       1.0  0.08120  0.79040  0.49010  1.0000 -0.5272342843
O   O41       1.0  0.81690  0.15980  0.01840  1.0000 -0.5461524559
O   O42       1.0  0.55580  0.84060  0.16490  1.0000 -0.5382315574
O   O43       1.0  0.98360  0.19450  0.00500  1.0000 -0.5203501565
O   O44       1.0  0.42370  0.70692  0.11090  1.0000 -0.5677623947
O   O45       1.0  0.61240  0.78127  0.24920  1.0000 -0.5008543483
O   O46       1.0  0.41850  0.76450  0.03390  1.0000 -0.5382315574
O   O47       1.0  0.33130  0.65400  0.74980  1.0000 -0.5008543483
O   O48       1.0  0.18250  0.86400  0.51730  1.0000 -0.5677623947
O   O49       1.0  0.96890  0.75230  0.09700  1.0000 -0.5008543483
O   O50       1.0  0.16670  0.60030  0.14890  1.0000 -0.6045781505
O   O51       1.0  0.43870  0.87410  0.02450  1.0000 -0.7064973695
O   O52       1.0  0.75900  0.20489  0.33760  1.0000 -0.7874021662
O   O53       1.0  0.53930  0.68397  0.27140  1.0000 -0.5099132193
O   O54       1.0  0.70470  0.29480  0.36720  1.0000 -0.806009723
O   O55       1.0  0.59480  0.22818  0.70150  1.0000 -0.5203501565
O   O56       1.0  0.47330  0.61845  0.19700  1.0000 -0.5593999756
O   O57       1.0  0.91880  0.29040  0.00990  1.0000 -0.5272342843
O   O58       1.0  0.18310  0.65980  0.48160  1.0000 -0.5461524559
O   O59       1.0  0.44420  0.34060  0.33510  1.0000 -0.5382315574
O   O60       1.0  0.01640  0.69450  0.49500  1.0000 -0.5203501565
O   O61       1.0  0.57630  0.20692  0.38910  1.0000 -0.5677623947
O   O62       1.0  0.38760  0.28127  0.25080  1.0000 -0.5008543483
O   O63       1.0  0.58150  0.26450  0.46610  1.0000 -0.5382315574
O   O64       1.0  0.66870  0.15400  0.75020  1.0000 -0.5008543483
O   O65       1.0  0.81750  0.36400  0.98270  1.0000 -0.5677623947
O   O66       1.0  0.03110  0.25230  0.40300  1.0000 -0.5008543483
O   O67       1.0  0.83330  0.10030  0.35110  1.0000 -0.6045781505
O   O68       1.0  0.56130  0.37410  0.47550  1.0000 -0.7064973695
