# DDEC6 charges by PACMAN v1.1 (https://github.com/mtap-research/PACMAN-charge/)
data_2019[Zn][sql]2[FSR]13
_chemical_formula_sum              "Zn8 H128 C160 N16 O32"
_cell_length_a       10.1799
_cell_length_b       17.9193
_cell_length_c       23.548
_cell_angle_alpha    90
_cell_angle_beta     90
_cell_angle_gamma    90

_symmetry_space_group_name_H-M    "P 1"
_symmetry_Int_Tables_number       1

loop_
  _symmetry_equiv_pos_as_xyz
  'x, y, z'

loop_
  _atom_site_type_symbol
  _atom_site_label
  _atom_site_symmetry_multiplicity
  _atom_site_fract_x
  _atom_site_fract_y
  _atom_site_fract_z
  _atom_site_occupancy
  _atom_site_charge
Zn  Zn1       1.0  0.05893  0.07912  0.57997  1.0000 0.7477469326
Zn  Zn2       1.0  0.05893  0.42088  0.07997  1.0000 0.7477469326
Zn  Zn3       1.0  0.44107  0.92088  0.07997  1.0000 0.7477469326
Zn  Zn4       1.0  0.44107  0.57912  0.57997  1.0000 0.7477469326
Zn  Zn5       1.0  0.94107  0.57912  0.92003  1.0000 0.7477469326
Zn  Zn6       1.0  0.94107  0.92088  0.42003  1.0000 0.7477469326
Zn  Zn7       1.0  0.55893  0.42088  0.42003  1.0000 0.7477469326
Zn  Zn8       1.0  0.55893  0.07912  0.92003  1.0000 0.7477469326
H   H1        1.0  0.36093  0.89642  0.56013  1.0000 0.1102600357
H   H2        1.0  0.75580  0.89849  0.56715  1.0000 0.1102600357
H   H3        1.0  0.55386  0.09033  0.57825  1.0000 0.1102600357
H   H4        1.0  0.56030  0.83356  0.55683  1.0000 0.1102600357
H   H5        1.0  0.18337  0.22001  0.53102  1.0000 0.1102600357
H   H6        1.0  0.17367  0.29040  0.44913  1.0000 0.1467892012
H   H7        1.0  0.88621  0.15604  0.39332  1.0000 0.1467892012
H   H8        1.0  0.90073  0.09039  0.47698  1.0000 0.1200167739
H   H9        1.0  0.23265  0.35239  0.27067  1.0000 0.1467892012
H   H10       1.0  0.21379  0.41889  0.18754  1.0000 0.1102600357
H   H11       1.0  0.92982  0.28895  0.13578  1.0000 0.1102600357
H   H12       1.0  0.94391  0.21776  0.21689  1.0000 0.1383107335
H   H13       1.0  0.18872  0.22734  0.31951  1.0000 0.1200167739
H   H14       1.0  0.06011  0.18429  0.30273  1.0000 0.1200167739
H   H15       1.0  0.06087  0.32250  0.36107  1.0000 0.1276213855
H   H16       1.0  0.93244  0.27947  0.34433  1.0000 0.1200167739
H   H17       1.0  0.36093  0.60358  0.06013  1.0000 0.1102600357
H   H18       1.0  0.75580  0.60151  0.06715  1.0000 0.1102600357
H   H19       1.0  0.55386  0.40967  0.07825  1.0000 0.1102600357
H   H20       1.0  0.56030  0.66644  0.05683  1.0000 0.1102600357
H   H21       1.0  0.18337  0.27999  0.03102  1.0000 0.1102600357
H   H22       1.0  0.17367  0.20960  0.94913  1.0000 0.1467892012
H   H23       1.0  0.88621  0.34396  0.89332  1.0000 0.1467892012
H   H24       1.0  0.90073  0.40961  0.97698  1.0000 0.1200167739
H   H25       1.0  0.23265  0.14761  0.77067  1.0000 0.1467892012
H   H26       1.0  0.21379  0.08111  0.68754  1.0000 0.1102600357
H   H27       1.0  0.92982  0.21105  0.63578  1.0000 0.1102600357
H   H28       1.0  0.94391  0.28224  0.71689  1.0000 0.1383107335
H   H29       1.0  0.18872  0.27266  0.81951  1.0000 0.1200167739
H   H30       1.0  0.06011  0.31571  0.80273  1.0000 0.1200167739
H   H31       1.0  0.06087  0.17750  0.86107  1.0000 0.1276213855
H   H32       1.0  0.93244  0.22053  0.84433  1.0000 0.1200167739
H   H33       1.0  0.13907  0.10358  0.06013  1.0000 0.1102600357
H   H34       1.0  0.74420  0.10151  0.06715  1.0000 0.1102600357
H   H35       1.0  0.94614  0.90967  0.07825  1.0000 0.1102600357
H   H36       1.0  0.93970  0.16644  0.05683  1.0000 0.1102600357
H   H37       1.0  0.31663  0.77999  0.03102  1.0000 0.1102600357
H   H38       1.0  0.32633  0.70960  0.94913  1.0000 0.1467892012
H   H39       1.0  0.61379  0.84396  0.89332  1.0000 0.1467892012
H   H40       1.0  0.59927  0.90961  0.97698  1.0000 0.1200167739
H   H41       1.0  0.26735  0.64761  0.77067  1.0000 0.1467892012
H   H42       1.0  0.28621  0.58111  0.68754  1.0000 0.1102600357
H   H43       1.0  0.57018  0.71105  0.63578  1.0000 0.1102600357
H   H44       1.0  0.55609  0.78224  0.71689  1.0000 0.1383107335
H   H45       1.0  0.31128  0.77266  0.81951  1.0000 0.1200167739
H   H46       1.0  0.43989  0.81571  0.80273  1.0000 0.1200167739
H   H47       1.0  0.43913  0.67750  0.86107  1.0000 0.1276213855
H   H48       1.0  0.56756  0.72053  0.84433  1.0000 0.1200167739
H   H49       1.0  0.13907  0.39642  0.56013  1.0000 0.1102600357
H   H50       1.0  0.74420  0.39849  0.56715  1.0000 0.1102600357
H   H51       1.0  0.94614  0.59033  0.57825  1.0000 0.1102600357
H   H52       1.0  0.93970  0.33356  0.55683  1.0000 0.1102600357
H   H53       1.0  0.31663  0.72001  0.53102  1.0000 0.1102600357
H   H54       1.0  0.32633  0.79040  0.44913  1.0000 0.1467892012
H   H55       1.0  0.61379  0.65604  0.39332  1.0000 0.1467892012
H   H56       1.0  0.59927  0.59039  0.47698  1.0000 0.1200167739
H   H57       1.0  0.26735  0.85239  0.27067  1.0000 0.1467892012
H   H58       1.0  0.28621  0.91889  0.18754  1.0000 0.1102600357
H   H59       1.0  0.57018  0.78895  0.13578  1.0000 0.1102600357
H   H60       1.0  0.55609  0.71776  0.21689  1.0000 0.1383107335
H   H61       1.0  0.31128  0.72734  0.31951  1.0000 0.1200167739
H   H62       1.0  0.43989  0.68429  0.30273  1.0000 0.1200167739
H   H63       1.0  0.43913  0.82250  0.36107  1.0000 0.1276213855
H   H64       1.0  0.56756  0.77947  0.34433  1.0000 0.1200167739
H   H65       1.0  0.63907  0.39642  0.93987  1.0000 0.1102600357
H   H66       1.0  0.24420  0.39849  0.93285  1.0000 0.1102600357
H   H67       1.0  0.44614  0.59033  0.92175  1.0000 0.1102600357
H   H68       1.0  0.43970  0.33356  0.94317  1.0000 0.1102600357
H   H69       1.0  0.81663  0.72001  0.96898  1.0000 0.1102600357
H   H70       1.0  0.82633  0.79040  0.05087  1.0000 0.1467892012
H   H71       1.0  0.11379  0.65604  0.10668  1.0000 0.1467892012
H   H72       1.0  0.09927  0.59039  0.02302  1.0000 0.1200167739
H   H73       1.0  0.76735  0.85239  0.22933  1.0000 0.1467892012
H   H74       1.0  0.78621  0.91889  0.31246  1.0000 0.1102600357
H   H75       1.0  0.07018  0.78895  0.36422  1.0000 0.1102600357
H   H76       1.0  0.05609  0.71776  0.28311  1.0000 0.1383107335
H   H77       1.0  0.81128  0.72734  0.18049  1.0000 0.1200167739
H   H78       1.0  0.93989  0.68429  0.19727  1.0000 0.1200167739
H   H79       1.0  0.93913  0.82250  0.13893  1.0000 0.1276213855
H   H80       1.0  0.06756  0.77947  0.15567  1.0000 0.1200167739
H   H81       1.0  0.63907  0.10358  0.43987  1.0000 0.1102600357
H   H82       1.0  0.24420  0.10151  0.43285  1.0000 0.1102600357
H   H83       1.0  0.44614  0.90967  0.42175  1.0000 0.1102600357
H   H84       1.0  0.43970  0.16644  0.44317  1.0000 0.1102600357
H   H85       1.0  0.81663  0.77999  0.46898  1.0000 0.1102600357
H   H86       1.0  0.82633  0.70960  0.55087  1.0000 0.1467892012
H   H87       1.0  0.11379  0.84396  0.60668  1.0000 0.1467892012
H   H88       1.0  0.09927  0.90961  0.52302  1.0000 0.1200167739
H   H89       1.0  0.76735  0.64761  0.72933  1.0000 0.1467892012
H   H90       1.0  0.78621  0.58111  0.81246  1.0000 0.1102600357
H   H91       1.0  0.07018  0.71105  0.86422  1.0000 0.1102600357
H   H92       1.0  0.05609  0.78224  0.78311  1.0000 0.1383107335
H   H93       1.0  0.81128  0.77266  0.68049  1.0000 0.1200167739
H   H94       1.0  0.93989  0.81571  0.69727  1.0000 0.1200167739
H   H95       1.0  0.93913  0.67750  0.63893  1.0000 0.1276213855
H   H96       1.0  0.06756  0.72053  0.65567  1.0000 0.1200167739
H   H97       1.0  0.86093  0.60358  0.43987  1.0000 0.1102600357
H   H98       1.0  0.25580  0.60151  0.43285  1.0000 0.1102600357
H   H99       1.0  0.05386  0.40967  0.42175  1.0000 0.1102600357
H   H100      1.0  0.06030  0.66644  0.44317  1.0000 0.1102600357
H   H101      1.0  0.68337  0.27999  0.46898  1.0000 0.1102600357
H   H102      1.0  0.67367  0.20960  0.55087  1.0000 0.1467892012
H   H103      1.0  0.38621  0.34396  0.60668  1.0000 0.1467892012
H   H104      1.0  0.40073  0.40961  0.52302  1.0000 0.1200167739
H   H105      1.0  0.73265  0.14761  0.72933  1.0000 0.1467892012
H   H106      1.0  0.71379  0.08111  0.81246  1.0000 0.1102600357
H   H107      1.0  0.42982  0.21105  0.86422  1.0000 0.1102600357
H   H108      1.0  0.44391  0.28224  0.78311  1.0000 0.1383107335
H   H109      1.0  0.68872  0.27266  0.68049  1.0000 0.1200167739
H   H110      1.0  0.56011  0.31571  0.69727  1.0000 0.1200167739
H   H111      1.0  0.56087  0.17750  0.63893  1.0000 0.1276213855
H   H112      1.0  0.43244  0.22053  0.65567  1.0000 0.1200167739
H   H113      1.0  0.86093  0.89642  0.93987  1.0000 0.1102600357
H   H114      1.0  0.25580  0.89849  0.93285  1.0000 0.1102600357
H   H115      1.0  0.05386  0.09033  0.92175  1.0000 0.1102600357
H   H116      1.0  0.06030  0.83356  0.94317  1.0000 0.1102600357
H   H117      1.0  0.68337  0.22001  0.96898  1.0000 0.1102600357
H   H118      1.0  0.67367  0.29040  0.05087  1.0000 0.1467892012
H   H119      1.0  0.38621  0.15604  0.10668  1.0000 0.1467892012
H   H120      1.0  0.40073  0.09039  0.02302  1.0000 0.1200167739
H   H121      1.0  0.73265  0.35239  0.22933  1.0000 0.1467892012
H   H122      1.0  0.71379  0.41889  0.31246  1.0000 0.1102600357
H   H123      1.0  0.42982  0.28895  0.36422  1.0000 0.1102600357
H   H124      1.0  0.44391  0.21776  0.28311  1.0000 0.1383107335
H   H125      1.0  0.68872  0.22734  0.18049  1.0000 0.1200167739
H   H126      1.0  0.56011  0.18429  0.19727  1.0000 0.1200167739
H   H127      1.0  0.56087  0.32250  0.13893  1.0000 0.1276213855
H   H128      1.0  0.43244  0.27947  0.15567  1.0000 0.1200167739
C   C1        1.0  0.31130  0.04386  0.57506  1.0000 0.5403997183
C   C2        1.0  0.79925  0.04534  0.58071  1.0000 0.5460302115
C   C3        1.0  0.43924  0.92275  0.56362  1.0000 -0.1009641154
C   C4        1.0  0.67628  0.92403  0.56763  1.0000 -0.1009641154
C   C5        1.0  0.55493  0.03863  0.57485  1.0000 -0.1150005727
C   C6        1.0  0.67487  0.00139  0.57412  1.0000 -0.0261184133
C   C7        1.0  0.43710  0.00036  0.57064  1.0000 -0.0248830568
C   C8        1.0  0.55892  0.88502  0.56187  1.0000 -0.1009641154
C   C9        1.0  0.02860  0.23096  0.41114  1.0000 0.1801138607
C   C10       1.0  0.12307  0.20714  0.50302  1.0000 0.0813768974
C   C11       1.0  0.11790  0.24972  0.45370  1.0000 -0.2095532288
C   C12       1.0  0.94720  0.17021  0.42068  1.0000 -0.2031136125
C   C13       1.0  0.95686  0.13061  0.47109  1.0000 0.1102600357
C   C14       1.0  0.09030  0.27721  0.25383  1.0000 0.1727779687
C   C15       1.0  0.17040  0.33833  0.24380  1.0000 -0.2095532288
C   C16       1.0  0.15800  0.37860  0.19378  1.0000 0.0978600339
C   C17       1.0  0.99120  0.30175  0.16337  1.0000 0.0695807517
C   C18       1.0  0.99900  0.25866  0.21209  1.0000 -0.2095532288
C   C19       1.0  0.09750  0.23349  0.30850  1.0000 -0.2422981381
C   C20       1.0  0.02340  0.27324  0.35562  1.0000 -0.2347017571
C   C21       1.0  0.31130  0.45614  0.07506  1.0000 0.5403997183
C   C22       1.0  0.79925  0.45466  0.08071  1.0000 0.5460302115
C   C23       1.0  0.43924  0.57725  0.06362  1.0000 -0.1009641154
C   C24       1.0  0.67628  0.57597  0.06763  1.0000 -0.1009641154
C   C25       1.0  0.55493  0.46137  0.07485  1.0000 -0.1150005727
C   C26       1.0  0.67487  0.49861  0.07412  1.0000 -0.0261184133
C   C27       1.0  0.43710  0.49964  0.07064  1.0000 -0.0248830568
C   C28       1.0  0.55892  0.61498  0.06187  1.0000 -0.1009641154
C   C29       1.0  0.02860  0.26904  0.91114  1.0000 0.1801138607
C   C30       1.0  0.12307  0.29286  0.00302  1.0000 0.0813768974
C   C31       1.0  0.11790  0.25028  0.95370  1.0000 -0.2095532288
C   C32       1.0  0.94720  0.32979  0.92068  1.0000 -0.2031136125
C   C33       1.0  0.95686  0.36939  0.97109  1.0000 0.1102600357
C   C34       1.0  0.09030  0.22279  0.75383  1.0000 0.1727779687
C   C35       1.0  0.17040  0.16167  0.74380  1.0000 -0.2095532288
C   C36       1.0  0.15800  0.12140  0.69378  1.0000 0.0978600339
C   C37       1.0  0.99120  0.19825  0.66337  1.0000 0.0695807517
C   C38       1.0  0.99900  0.24134  0.71209  1.0000 -0.2095532288
C   C39       1.0  0.09750  0.26651  0.80850  1.0000 -0.2422981381
C   C40       1.0  0.02340  0.22676  0.85562  1.0000 -0.2347017571
C   C41       1.0  0.18870  0.95614  0.07506  1.0000 0.5403997183
C   C42       1.0  0.70075  0.95466  0.08071  1.0000 0.5460302115
C   C43       1.0  0.06076  0.07725  0.06362  1.0000 -0.1009641154
C   C44       1.0  0.82372  0.07597  0.06763  1.0000 -0.1009641154
C   C45       1.0  0.94507  0.96137  0.07485  1.0000 -0.1150005727
C   C46       1.0  0.82513  0.99861  0.07412  1.0000 -0.0261184133
C   C47       1.0  0.06290  0.99964  0.07064  1.0000 -0.0248830568
C   C48       1.0  0.94108  0.11498  0.06187  1.0000 -0.1009641154
C   C49       1.0  0.47140  0.76904  0.91114  1.0000 0.1801138607
C   C50       1.0  0.37693  0.79286  0.00302  1.0000 0.0813768974
C   C51       1.0  0.38210  0.75028  0.95370  1.0000 -0.2095532288
C   C52       1.0  0.55280  0.82979  0.92068  1.0000 -0.2031136125
C   C53       1.0  0.54314  0.86939  0.97109  1.0000 0.1102600357
C   C54       1.0  0.40970  0.72279  0.75383  1.0000 0.1727779687
C   C55       1.0  0.32960  0.66167  0.74380  1.0000 -0.2095532288
C   C56       1.0  0.34200  0.62140  0.69378  1.0000 0.0978600339
C   C57       1.0  0.50880  0.69825  0.66337  1.0000 0.0695807517
C   C58       1.0  0.50100  0.74134  0.71209  1.0000 -0.2095532288
C   C59       1.0  0.40250  0.76651  0.80850  1.0000 -0.2422981381
C   C60       1.0  0.47660  0.72676  0.85562  1.0000 -0.2347017571
C   C61       1.0  0.18870  0.54386  0.57506  1.0000 0.5403997183
C   C62       1.0  0.70075  0.54534  0.58071  1.0000 0.5460302115
C   C63       1.0  0.06076  0.42275  0.56362  1.0000 -0.1009641154
C   C64       1.0  0.82372  0.42403  0.56763  1.0000 -0.1009641154
C   C65       1.0  0.94507  0.53863  0.57485  1.0000 -0.1150005727
C   C66       1.0  0.82513  0.50139  0.57412  1.0000 -0.0261184133
C   C67       1.0  0.06290  0.50036  0.57064  1.0000 -0.0248830568
C   C68       1.0  0.94108  0.38502  0.56187  1.0000 -0.1009641154
C   C69       1.0  0.47140  0.73096  0.41114  1.0000 0.1801138607
C   C70       1.0  0.37693  0.70714  0.50302  1.0000 0.0813768974
C   C71       1.0  0.38210  0.74972  0.45370  1.0000 -0.2095532288
C   C72       1.0  0.55280  0.67021  0.42068  1.0000 -0.2031136125
C   C73       1.0  0.54314  0.63061  0.47109  1.0000 0.1102600357
C   C74       1.0  0.40970  0.77721  0.25383  1.0000 0.1727779687
C   C75       1.0  0.32960  0.83833  0.24380  1.0000 -0.2095532288
C   C76       1.0  0.34200  0.87860  0.19378  1.0000 0.0978600339
C   C77       1.0  0.50880  0.80175  0.16337  1.0000 0.0695807517
C   C78       1.0  0.50100  0.75866  0.21209  1.0000 -0.2095532288
C   C79       1.0  0.40250  0.73349  0.30850  1.0000 -0.2422981381
C   C80       1.0  0.47660  0.77324  0.35562  1.0000 -0.2347017571
C   C81       1.0  0.68870  0.54386  0.92494  1.0000 0.5403997183
C   C82       1.0  0.20075  0.54534  0.91929  1.0000 0.5460302115
C   C83       1.0  0.56076  0.42275  0.93638  1.0000 -0.1009641154
C   C84       1.0  0.32372  0.42403  0.93237  1.0000 -0.1009641154
C   C85       1.0  0.44507  0.53863  0.92515  1.0000 -0.1150005727
C   C86       1.0  0.32513  0.50139  0.92588  1.0000 -0.0261184133
C   C87       1.0  0.56290  0.50036  0.92936  1.0000 -0.0248830568
C   C88       1.0  0.44108  0.38502  0.93813  1.0000 -0.1009641154
C   C89       1.0  0.97140  0.73096  0.08886  1.0000 0.1801138607
C   C90       1.0  0.87693  0.70714  0.99698  1.0000 0.0813768974
C   C91       1.0  0.88210  0.74972  0.04630  1.0000 -0.2095532288
C   C92       1.0  0.05280  0.67021  0.07932  1.0000 -0.2031136125
C   C93       1.0  0.04314  0.63061  0.02891  1.0000 0.1102600357
C   C94       1.0  0.90970  0.77721  0.24617  1.0000 0.1727779687
C   C95       1.0  0.82960  0.83833  0.25620  1.0000 -0.2095532288
C   C96       1.0  0.84200  0.87860  0.30622  1.0000 0.0978600339
C   C97       1.0  0.00880  0.80175  0.33663  1.0000 0.0695807517
C   C98       1.0  0.00100  0.75866  0.28791  1.0000 -0.2095532288
C   C99       1.0  0.90250  0.73349  0.19150  1.0000 -0.2422981381
C   C100      1.0  0.97660  0.77324  0.14438  1.0000 -0.2347017571
C   C101      1.0  0.68870  0.95614  0.42494  1.0000 0.5403997183
C   C102      1.0  0.20075  0.95466  0.41929  1.0000 0.5460302115
C   C103      1.0  0.56076  0.07725  0.43638  1.0000 -0.1009641154
C   C104      1.0  0.32372  0.07597  0.43237  1.0000 -0.1009641154
C   C105      1.0  0.44507  0.96137  0.42515  1.0000 -0.1150005727
C   C106      1.0  0.32513  0.99861  0.42588  1.0000 -0.0261184133
C   C107      1.0  0.56290  0.99964  0.42936  1.0000 -0.0248830568
C   C108      1.0  0.44108  0.11498  0.43813  1.0000 -0.1009641154
C   C109      1.0  0.97140  0.76904  0.58886  1.0000 0.1801138607
C   C110      1.0  0.87693  0.79286  0.49698  1.0000 0.0813768974
C   C111      1.0  0.88210  0.75028  0.54630  1.0000 -0.2095532288
C   C112      1.0  0.05280  0.82979  0.57932  1.0000 -0.2031136125
C   C113      1.0  0.04314  0.86939  0.52891  1.0000 0.1102600357
C   C114      1.0  0.90970  0.72279  0.74617  1.0000 0.1727779687
C   C115      1.0  0.82960  0.66167  0.75620  1.0000 -0.2095532288
C   C116      1.0  0.84200  0.62140  0.80622  1.0000 0.0978600339
C   C117      1.0  0.00880  0.69825  0.83663  1.0000 0.0695807517
C   C118      1.0  0.00100  0.74134  0.78791  1.0000 -0.2095532288
C   C119      1.0  0.90250  0.76651  0.69150  1.0000 -0.2422981381
C   C120      1.0  0.97660  0.72676  0.64438  1.0000 -0.2347017571
C   C121      1.0  0.81130  0.45614  0.42494  1.0000 0.5403997183
C   C122      1.0  0.29925  0.45466  0.41929  1.0000 0.5460302115
C   C123      1.0  0.93924  0.57725  0.43638  1.0000 -0.1009641154
C   C124      1.0  0.17628  0.57597  0.43237  1.0000 -0.1009641154
C   C125      1.0  0.05493  0.46137  0.42515  1.0000 -0.1150005727
C   C126      1.0  0.17487  0.49861  0.42588  1.0000 -0.0261184133
C   C127      1.0  0.93710  0.49964  0.42936  1.0000 -0.0248830568
C   C128      1.0  0.05892  0.61498  0.43813  1.0000 -0.1009641154
C   C129      1.0  0.52860  0.26904  0.58886  1.0000 0.1801138607
C   C130      1.0  0.62307  0.29286  0.49698  1.0000 0.0813768974
C   C131      1.0  0.61790  0.25028  0.54630  1.0000 -0.2095532288
C   C132      1.0  0.44720  0.32979  0.57932  1.0000 -0.2031136125
C   C133      1.0  0.45686  0.36939  0.52891  1.0000 0.1102600357
C   C134      1.0  0.59030  0.22279  0.74617  1.0000 0.1727779687
C   C135      1.0  0.67040  0.16167  0.75620  1.0000 -0.2095532288
C   C136      1.0  0.65800  0.12140  0.80622  1.0000 0.0978600339
C   C137      1.0  0.49120  0.19825  0.83663  1.0000 0.0695807517
C   C138      1.0  0.49900  0.24134  0.78791  1.0000 -0.2095532288
C   C139      1.0  0.59750  0.26651  0.69150  1.0000 -0.2422981381
C   C140      1.0  0.52340  0.22676  0.64438  1.0000 -0.2347017571
C   C141      1.0  0.81130  0.04386  0.92494  1.0000 0.5403997183
C   C142      1.0  0.29925  0.04534  0.91929  1.0000 0.5460302115
C   C143      1.0  0.93924  0.92275  0.93638  1.0000 -0.1009641154
C   C144      1.0  0.17628  0.92403  0.93237  1.0000 -0.1009641154
C   C145      1.0  0.05493  0.03863  0.92515  1.0000 -0.1146409481
C   C146      1.0  0.17487  0.00139  0.92588  1.0000 -0.0261184133
C   C147      1.0  0.93710  0.00036  0.92936  1.0000 -0.0248830568
C   C148      1.0  0.05892  0.88502  0.93813  1.0000 -0.1009641154
C   C149      1.0  0.52860  0.23096  0.08886  1.0000 0.1801138607
C   C150      1.0  0.62307  0.20714  0.99698  1.0000 0.0813768974
C   C151      1.0  0.61790  0.24972  0.04630  1.0000 -0.2095532288
C   C152      1.0  0.44720  0.17021  0.07932  1.0000 -0.2031136125
C   C153      1.0  0.45686  0.13061  0.02891  1.0000 0.1102600357
C   C154      1.0  0.59030  0.27721  0.24617  1.0000 0.1727779687
C   C155      1.0  0.67040  0.33833  0.25620  1.0000 -0.2095532288
C   C156      1.0  0.65800  0.37860  0.30622  1.0000 0.0978600339
C   C157      1.0  0.49120  0.30175  0.33663  1.0000 0.0695807517
C   C158      1.0  0.49900  0.25866  0.28791  1.0000 -0.2095532288
C   C159      1.0  0.59750  0.23349  0.19150  1.0000 -0.2422981381
C   C160      1.0  0.52340  0.27324  0.14438  1.0000 -0.2347017571
N   N1        1.0  0.04418  0.14808  0.51176  1.0000 -0.251788453
N   N2        1.0  0.06898  0.36158  0.15433  1.0000 -0.2347017571
N   N3        1.0  0.04418  0.35192  0.01176  1.0000 -0.251788453
N   N4        1.0  0.06898  0.13842  0.65433  1.0000 -0.2347017571
N   N5        1.0  0.45582  0.85192  0.01176  1.0000 -0.251788453
N   N6        1.0  0.43102  0.63842  0.65433  1.0000 -0.2347017571
N   N7        1.0  0.45582  0.64808  0.51176  1.0000 -0.251788453
N   N8        1.0  0.43102  0.86158  0.15433  1.0000 -0.2347017571
N   N9        1.0  0.95582  0.64808  0.98824  1.0000 -0.251788453
N   N10       1.0  0.93102  0.86158  0.34567  1.0000 -0.2347017571
N   N11       1.0  0.95582  0.85192  0.48824  1.0000 -0.251788453
N   N12       1.0  0.93102  0.63842  0.84567  1.0000 -0.2347017571
N   N13       1.0  0.54418  0.35192  0.48824  1.0000 -0.251788453
N   N14       1.0  0.56898  0.13842  0.84567  1.0000 -0.2347017571
N   N15       1.0  0.54418  0.14808  0.98824  1.0000 -0.251788453
N   N16       1.0  0.56898  0.36158  0.34567  1.0000 -0.2347017571
O   O1        1.0  0.79268  0.11302  0.59288  1.0000 -0.5868801593
O   O2        1.0  0.20405  0.00591  0.57856  1.0000 -0.5527135551
O   O3        1.0  0.90785  0.01050  0.57345  1.0000 -0.5400992751
O   O4        1.0  0.31424  0.11286  0.57676  1.0000 -0.5605276495
O   O5        1.0  0.79268  0.38698  0.09288  1.0000 -0.5868801593
O   O6        1.0  0.20405  0.49409  0.07856  1.0000 -0.5527135551
O   O7        1.0  0.90785  0.48950  0.07345  1.0000 -0.5400992751
O   O8        1.0  0.31424  0.38714  0.07676  1.0000 -0.5605276495
O   O9        1.0  0.70732  0.88698  0.09288  1.0000 -0.5868801593
O   O10       1.0  0.29595  0.99409  0.07856  1.0000 -0.5527135551
O   O11       1.0  0.59215  0.98950  0.07345  1.0000 -0.5400992751
O   O12       1.0  0.18576  0.88714  0.07676  1.0000 -0.5605276495
O   O13       1.0  0.70732  0.61302  0.59288  1.0000 -0.5868801593
O   O14       1.0  0.29595  0.50591  0.57856  1.0000 -0.5527135551
O   O15       1.0  0.59215  0.51050  0.57345  1.0000 -0.5400992751
O   O16       1.0  0.18576  0.61286  0.57676  1.0000 -0.5605276495
O   O17       1.0  0.20732  0.61302  0.90712  1.0000 -0.5868801593
O   O18       1.0  0.79595  0.50591  0.92144  1.0000 -0.5527135551
O   O19       1.0  0.09215  0.51050  0.92655  1.0000 -0.5400992751
O   O20       1.0  0.68576  0.61286  0.92324  1.0000 -0.5605276495
O   O21       1.0  0.20732  0.88698  0.40712  1.0000 -0.5868801593
O   O22       1.0  0.79595  0.99409  0.42144  1.0000 -0.5527135551
O   O23       1.0  0.09215  0.98950  0.42655  1.0000 -0.5400992751
O   O24       1.0  0.68576  0.88714  0.42324  1.0000 -0.5605276495
O   O25       1.0  0.29268  0.38698  0.40712  1.0000 -0.5868801593
O   O26       1.0  0.70405  0.49409  0.42144  1.0000 -0.5527135551
O   O27       1.0  0.40785  0.48950  0.42655  1.0000 -0.5400992751
O   O28       1.0  0.81424  0.38714  0.42324  1.0000 -0.5605276495
O   O29       1.0  0.29268  0.11302  0.90712  1.0000 -0.5868801593
O   O30       1.0  0.70405  0.00591  0.92144  1.0000 -0.5527135551
O   O31       1.0  0.40785  0.01050  0.92655  1.0000 -0.5400992751
O   O32       1.0  0.81424  0.11286  0.92324  1.0000 -0.5605276495
