# DDEC6 charges by PACMAN v1.1 (https://github.com/mtap-research/PACMAN-charge/)
data_2019[Tb][sql]2[FSR]3
_chemical_formula_sum              "Tb8 H128 C72 O64"
_cell_length_a       8.6942
_cell_length_b       14.202
_cell_length_c       23.475
_cell_angle_alpha    90
_cell_angle_beta     90
_cell_angle_gamma    90

_symmetry_space_group_name_H-M    "P 1"
_symmetry_Int_Tables_number       1

loop_
  _symmetry_equiv_pos_as_xyz
  'x, y, z'

loop_
  _atom_site_type_symbol
  _atom_site_label
  _atom_site_symmetry_multiplicity
  _atom_site_fract_x
  _atom_site_fract_y
  _atom_site_fract_z
  _atom_site_occupancy
  _atom_site_charge
Tb  Tb1       1.0  0.77593  0.53640  0.19230  1.0000 2.0371985442
Tb  Tb2       1.0  0.77234  0.67495  0.81207  1.0000 2.0371985442
Tb  Tb3       1.0  0.72407  0.46360  0.69230  1.0000 2.0371985442
Tb  Tb4       1.0  0.72766  0.32505  0.31207  1.0000 2.0371985442
Tb  Tb5       1.0  0.22407  0.03640  0.30770  1.0000 2.0371985442
Tb  Tb6       1.0  0.22766  0.17495  0.68793  1.0000 2.0371985442
Tb  Tb7       1.0  0.27593  0.96360  0.80770  1.0000 2.0371985442
Tb  Tb8       1.0  0.27234  0.82505  0.18793  1.0000 2.0371985442
H   H1        1.0  0.83754  0.74520  0.18911  1.0000 0.4258340157
H   H2        1.0  0.70666  0.72208  0.14252  1.0000 0.4165211029
H   H3        1.0  0.56155  0.55671  0.29186  1.0000 0.4087365016
H   H4        1.0  0.58796  0.66006  0.27132  1.0000 0.4087365016
H   H5        1.0  0.52281  0.77608  0.73131  1.0000 0.3595472283
H   H6        1.0  0.58168  0.70400  0.70534  1.0000 0.3515724845
H   H7        1.0  0.69643  0.87041  0.84992  1.0000 0.4087365016
H   H8        1.0  0.86467  0.87772  0.84953  1.0000 0.4087365016
H   H9        1.0  0.42299  0.57777  0.03454  1.0000 0.1209168322
H   H10       1.0  0.57137  0.54133  0.00255  1.0000 0.1388102993
H   H11       1.0  0.55316  0.72353  0.05529  1.0000 0.1016292817
H   H12       1.0  0.69881  0.68744  0.02257  1.0000 0.1016292817
H   H13       1.0  0.41581  0.71137  0.96444  1.0000 0.0938031885
H   H14       1.0  0.48874  0.85593  0.00544  1.0000 0.1304098417
H   H15       1.0  0.47740  0.86100  0.93886  1.0000 0.1388102993
H   H16       1.0  0.63872  0.85399  0.96839  1.0000 0.1209168322
H   H17       1.0  0.25128  0.46595  0.10373  1.0000 0.1016292817
H   H18       1.0  0.23993  0.35187  0.20004  1.0000 0.1016292817
H   H19       1.0  0.33452  0.44474  0.19196  1.0000 0.1113641331
H   H20       1.0  0.41440  0.26498  0.14457  1.0000 0.1388102993
H   H21       1.0  0.49576  0.35723  0.12260  1.0000 0.1516917653
H   H22       1.0  0.07342  0.30537  0.09307  1.0000 0.1304098417
H   H23       1.0  0.24657  0.30167  0.07457  1.0000 0.1113641331
H   H24       1.0  0.13361  0.37234  0.04489  1.0000 0.1209168322
H   H25       1.0  0.00695  0.48691  0.37810  1.0000 0.1113641331
H   H26       1.0  0.17313  0.42118  0.30730  1.0000 0.1016292817
H   H27       1.0  0.25962  0.51790  0.30393  1.0000 0.1209168322
H   H28       1.0  0.33493  0.50060  0.40126  1.0000 0.1388102993
H   H29       1.0  0.25279  0.40202  0.40295  1.0000 0.1388102993
H   H30       1.0  0.14589  0.65975  0.35217  1.0000 0.1304098417
H   H31       1.0  0.14881  0.60985  0.41173  1.0000 0.1209168322
H   H32       1.0  0.99410  0.65044  0.38778  1.0000 0.1304098417
H   H33       1.0  0.66246  0.25480  0.68911  1.0000 0.4258340157
H   H34       1.0  0.79334  0.27792  0.64252  1.0000 0.4165211029
H   H35       1.0  0.93845  0.44329  0.79186  1.0000 0.4087365016
H   H36       1.0  0.91204  0.33994  0.77132  1.0000 0.4087365016
H   H37       1.0  0.97719  0.22392  0.23131  1.0000 0.3595472283
H   H38       1.0  0.91832  0.29600  0.20534  1.0000 0.3515724845
H   H39       1.0  0.80357  0.12959  0.34992  1.0000 0.4087365016
H   H40       1.0  0.63533  0.12228  0.34953  1.0000 0.4087365016
H   H41       1.0  0.07701  0.42223  0.53454  1.0000 0.1209168322
H   H42       1.0  0.92863  0.45867  0.50255  1.0000 0.1388102993
H   H43       1.0  0.94684  0.27647  0.55529  1.0000 0.1016292817
H   H44       1.0  0.80119  0.31256  0.52257  1.0000 0.1016292817
H   H45       1.0  0.08419  0.28863  0.46444  1.0000 0.0938031885
H   H46       1.0  0.01126  0.14407  0.50544  1.0000 0.1304098417
H   H47       1.0  0.02260  0.13900  0.43886  1.0000 0.1388102993
H   H48       1.0  0.86128  0.14601  0.46839  1.0000 0.1209168322
H   H49       1.0  0.24872  0.53405  0.60373  1.0000 0.1016292817
H   H50       1.0  0.26007  0.64813  0.70004  1.0000 0.1016292817
H   H51       1.0  0.16548  0.55526  0.69196  1.0000 0.1113641331
H   H52       1.0  0.08560  0.73502  0.64457  1.0000 0.1388102993
H   H53       1.0  0.00424  0.64277  0.62260  1.0000 0.1516917653
H   H54       1.0  0.42658  0.69463  0.59307  1.0000 0.1304098417
H   H55       1.0  0.25343  0.69833  0.57457  1.0000 0.1113641331
H   H56       1.0  0.36639  0.62766  0.54489  1.0000 0.1209168322
H   H57       1.0  0.49305  0.51309  0.87810  1.0000 0.1113641331
H   H58       1.0  0.32687  0.57882  0.80730  1.0000 0.1016292817
H   H59       1.0  0.24038  0.48210  0.80393  1.0000 0.1209168322
H   H60       1.0  0.16507  0.49940  0.90126  1.0000 0.1388102993
H   H61       1.0  0.24721  0.59798  0.90295  1.0000 0.1388102993
H   H62       1.0  0.35411  0.34025  0.85217  1.0000 0.1304098417
H   H63       1.0  0.35119  0.39015  0.91173  1.0000 0.1209168322
H   H64       1.0  0.50590  0.34956  0.88778  1.0000 0.1304098417
H   H65       1.0  0.16246  0.24520  0.31089  1.0000 0.4258340157
H   H66       1.0  0.29334  0.22208  0.35748  1.0000 0.4165211029
H   H67       1.0  0.43845  0.05671  0.20814  1.0000 0.4087365016
H   H68       1.0  0.41204  0.16006  0.22868  1.0000 0.4087365016
H   H69       1.0  0.47719  0.27608  0.76869  1.0000 0.3595472283
H   H70       1.0  0.41832  0.20400  0.79466  1.0000 0.3515724845
H   H71       1.0  0.30357  0.37041  0.65008  1.0000 0.4087365016
H   H72       1.0  0.13533  0.37772  0.65047  1.0000 0.4087365016
H   H73       1.0  0.57701  0.07777  0.46546  1.0000 0.1209168322
H   H74       1.0  0.42863  0.04133  0.49745  1.0000 0.1388102993
H   H75       1.0  0.44684  0.22353  0.44471  1.0000 0.1016292817
H   H76       1.0  0.30119  0.18744  0.47743  1.0000 0.1016292817
H   H77       1.0  0.58419  0.21137  0.53556  1.0000 0.0938031885
H   H78       1.0  0.51126  0.35593  0.49456  1.0000 0.1388102993
H   H79       1.0  0.52260  0.36100  0.56114  1.0000 0.1388102993
H   H80       1.0  0.36128  0.35399  0.53161  1.0000 0.1209168322
H   H81       1.0  0.74872  0.96595  0.39627  1.0000 0.1016292817
H   H82       1.0  0.76007  0.85187  0.29996  1.0000 0.1016292817
H   H83       1.0  0.66548  0.94474  0.30804  1.0000 0.1113641331
H   H84       1.0  0.58560  0.76498  0.35543  1.0000 0.1388102993
H   H85       1.0  0.50424  0.85723  0.37740  1.0000 0.1516917653
H   H86       1.0  0.92658  0.80537  0.40693  1.0000 0.1304098417
H   H87       1.0  0.75343  0.80167  0.42543  1.0000 0.1113641331
H   H88       1.0  0.86639  0.87234  0.45511  1.0000 0.1209168322
H   H89       1.0  0.99305  0.98691  0.12190  1.0000 0.1113641331
H   H90       1.0  0.82687  0.92118  0.19270  1.0000 0.1016292817
H   H91       1.0  0.74038  0.01790  0.19607  1.0000 0.1209168322
H   H92       1.0  0.66507  0.00060  0.09874  1.0000 0.1388102993
H   H93       1.0  0.74721  0.90202  0.09705  1.0000 0.1388102993
H   H94       1.0  0.85411  0.15975  0.14783  1.0000 0.1304098417
H   H95       1.0  0.85119  0.10985  0.08827  1.0000 0.1209168322
H   H96       1.0  0.00590  0.15044  0.11222  1.0000 0.1304098417
H   H97       1.0  0.33754  0.75480  0.81089  1.0000 0.4258340157
H   H98       1.0  0.20666  0.77792  0.85748  1.0000 0.4165211029
H   H99       1.0  0.06155  0.94329  0.70814  1.0000 0.4087365016
H   H100      1.0  0.08796  0.83994  0.72868  1.0000 0.4087365016
H   H101      1.0  0.02281  0.72392  0.26869  1.0000 0.3595472283
H   H102      1.0  0.08168  0.79600  0.29466  1.0000 0.3515724845
H   H103      1.0  0.19643  0.62959  0.15008  1.0000 0.4087365016
H   H104      1.0  0.36467  0.62228  0.15047  1.0000 0.4087365016
H   H105      1.0  0.92299  0.92223  0.96546  1.0000 0.1209168322
H   H106      1.0  0.07137  0.95867  0.99745  1.0000 0.1388102993
H   H107      1.0  0.05316  0.77647  0.94471  1.0000 0.1016292817
H   H108      1.0  0.19881  0.81256  0.97743  1.0000 0.1016292817
H   H109      1.0  0.91581  0.78863  0.03556  1.0000 0.0938031885
H   H110      1.0  0.98874  0.64407  0.99456  1.0000 0.1388102993
H   H111      1.0  0.97740  0.63900  0.06114  1.0000 0.1388102993
H   H112      1.0  0.13872  0.64601  0.03161  1.0000 0.1209168322
H   H113      1.0  0.75128  0.03405  0.89627  1.0000 0.1016292817
H   H114      1.0  0.73993  0.14813  0.79996  1.0000 0.1016292817
H   H115      1.0  0.83452  0.05526  0.80804  1.0000 0.1113641331
H   H116      1.0  0.91440  0.23502  0.85543  1.0000 0.1388102993
H   H117      1.0  0.99576  0.14277  0.87740  1.0000 0.1516917653
H   H118      1.0  0.57342  0.19463  0.90693  1.0000 0.1304098417
H   H119      1.0  0.74657  0.19833  0.92543  1.0000 0.1113641331
H   H120      1.0  0.63361  0.12766  0.95511  1.0000 0.1209168322
H   H121      1.0  0.50695  0.01309  0.62190  1.0000 0.1113641331
H   H122      1.0  0.67313  0.07882  0.69270  1.0000 0.1016292817
H   H123      1.0  0.75962  0.98210  0.69607  1.0000 0.1209168322
H   H124      1.0  0.83493  0.99940  0.59874  1.0000 0.1388102993
H   H125      1.0  0.75279  0.09798  0.59705  1.0000 0.1388102993
H   H126      1.0  0.64589  0.84025  0.64783  1.0000 0.1304098417
H   H127      1.0  0.64881  0.89015  0.58827  1.0000 0.1209168322
H   H128      1.0  0.49410  0.84956  0.61222  1.0000 0.1304098417
C   C1        1.0  0.60790  0.55550  0.09070  1.0000 0.6217481128
C   C2        1.0  0.53420  0.58200  0.03280  1.0000 -0.3260258281
C   C3        1.0  0.58730  0.68550  0.02340  1.0000 -0.1495759965
C   C4        1.0  0.52450  0.72880  0.96760  1.0000 -0.0559460253
C   C5        1.0  0.60510  0.69350  0.91500  1.0000 0.5657523281
C   C6        1.0  0.53300  0.83450  0.97030  1.0000 -0.4002317332
C   C7        1.0  0.05460  0.45880  0.14890  1.0000 0.5798540271
C   C8        1.0  0.19770  0.41540  0.12400  1.0000 -0.0671520301
C   C9        1.0  0.29980  0.38800  0.17290  1.0000 -0.1575617932
C   C10       1.0  0.44470  0.32840  0.15490  1.0000 -0.320579695
C   C11       1.0  0.55000  0.32660  0.20560  1.0000 0.6625629968
C   C12       1.0  0.15900  0.34200  0.08020  1.0000 -0.4002317332
C   C13       1.0  0.95000  0.53170  0.29850  1.0000 0.6270297772
C   C14       1.0  0.05610  0.52740  0.34960  1.0000 -0.0671520301
C   C15       1.0  0.20250  0.47640  0.32900  1.0000 -0.1495759965
C   C16       1.0  0.30700  0.44610  0.37860  1.0000 -0.3147233718
C   C17       1.0  0.45200  0.39970  0.35460  1.0000 0.6217481128
C   C18       1.0  0.08900  0.62030  0.37790  1.0000 -0.4095632129
C   C19       1.0  0.89210  0.44450  0.59070  1.0000 0.6217481128
C   C20       1.0  0.96580  0.41800  0.53280  1.0000 -0.3260258281
C   C21       1.0  0.91270  0.31450  0.52340  1.0000 -0.1495759965
C   C22       1.0  0.97550  0.27120  0.46760  1.0000 -0.0559460253
C   C23       1.0  0.89490  0.30650  0.41500  1.0000 0.5657523281
C   C24       1.0  0.96700  0.16550  0.47030  1.0000 -0.4002317332
C   C25       1.0  0.44540  0.54120  0.64890  1.0000 0.5798540271
C   C26       1.0  0.30230  0.58460  0.62400  1.0000 -0.0671520301
C   C27       1.0  0.20020  0.61200  0.67290  1.0000 -0.1575617932
C   C28       1.0  0.05530  0.67160  0.65490  1.0000 -0.320579695
C   C29       1.0  0.95000  0.67340  0.70560  1.0000 0.6625629968
C   C30       1.0  0.34100  0.65800  0.58020  1.0000 -0.4002317332
C   C31       1.0  0.55000  0.46830  0.79850  1.0000 0.6270297772
C   C32       1.0  0.44390  0.47260  0.84960  1.0000 -0.0671520301
C   C33       1.0  0.29750  0.52360  0.82900  1.0000 -0.1495759965
C   C34       1.0  0.19300  0.55390  0.87860  1.0000 -0.3147233718
C   C35       1.0  0.04800  0.60030  0.85460  1.0000 0.6217481128
C   C36       1.0  0.41100  0.37970  0.87790  1.0000 -0.4095632129
C   C37       1.0  0.39210  0.05550  0.40930  1.0000 0.6217481128
C   C38       1.0  0.46580  0.08200  0.46720  1.0000 -0.3260258281
C   C39       1.0  0.41270  0.18550  0.47660  1.0000 -0.1495759965
C   C40       1.0  0.47550  0.22880  0.53240  1.0000 -0.0559460253
C   C41       1.0  0.39490  0.19350  0.58500  1.0000 0.5657523281
C   C42       1.0  0.46700  0.33450  0.52970  1.0000 -0.4002317332
C   C43       1.0  0.94540  0.95880  0.35110  1.0000 0.5798540271
C   C44       1.0  0.80230  0.91540  0.37600  1.0000 -0.0671520301
C   C45       1.0  0.70020  0.88800  0.32710  1.0000 -0.1575617932
C   C46       1.0  0.55530  0.82840  0.34510  1.0000 -0.320579695
C   C47       1.0  0.45000  0.82660  0.29440  1.0000 0.6625629968
C   C48       1.0  0.84100  0.84200  0.41980  1.0000 -0.4002317332
C   C49       1.0  0.05000  0.03170  0.20150  1.0000 0.6270297772
C   C50       1.0  0.94390  0.02740  0.15040  1.0000 -0.0671520301
C   C51       1.0  0.79750  0.97640  0.17100  1.0000 -0.1495759965
C   C52       1.0  0.69300  0.94610  0.12140  1.0000 -0.3147233718
C   C53       1.0  0.54800  0.89970  0.14540  1.0000 0.6217481128
C   C54       1.0  0.91100  0.12030  0.12210  1.0000 -0.4095632129
C   C55       1.0  0.10790  0.94450  0.90930  1.0000 0.6217481128
C   C56       1.0  0.03420  0.91800  0.96720  1.0000 -0.3260258281
C   C57       1.0  0.08730  0.81450  0.97660  1.0000 -0.1495759965
C   C58       1.0  0.02450  0.77120  0.03240  1.0000 -0.0559460253
C   C59       1.0  0.10510  0.80650  0.08500  1.0000 0.5657523281
C   C60       1.0  0.03300  0.66550  0.02970  1.0000 -0.4002317332
C   C61       1.0  0.55460  0.04120  0.85110  1.0000 0.5798540271
C   C62       1.0  0.69770  0.08460  0.87600  1.0000 -0.0671520301
C   C63       1.0  0.79980  0.11200  0.82710  1.0000 -0.1575617932
C   C64       1.0  0.94470  0.17160  0.84510  1.0000 -0.320579695
C   C65       1.0  0.05000  0.17340  0.79440  1.0000 0.6625629968
C   C66       1.0  0.65900  0.15800  0.91980  1.0000 -0.4002317332
C   C67       1.0  0.45000  0.96830  0.70150  1.0000 0.6270297772
C   C68       1.0  0.55610  0.97260  0.65040  1.0000 -0.0671520301
C   C69       1.0  0.70250  0.02360  0.67100  1.0000 -0.1495759965
C   C70       1.0  0.80700  0.05390  0.62140  1.0000 -0.320579695
C   C71       1.0  0.95200  0.10030  0.64540  1.0000 0.6217481128
C   C72       1.0  0.58900  0.87970  0.62210  1.0000 -0.4095632129
O   O1        1.0  0.74010  0.51550  0.09060  1.0000 -0.6407828026
O   O2        1.0  0.78710  0.69680  0.16667  1.0000 -0.8435452871
O   O3        1.0  0.54250  0.57100  0.13820  1.0000 -0.6407828026
O   O4        1.0  0.60220  0.59450  0.26090  1.0000 -0.8627632104
O   O5        1.0  0.73660  0.65790  0.91540  1.0000 -0.6108344116
O   O6        1.0  0.59900  0.73010  0.74300  1.0000 -0.8068261289
O   O7        1.0  0.53930  0.70750  0.86590  1.0000 -0.6465059065
O   O8        1.0  0.78490  0.83430  0.83740  1.0000 -0.8435452871
O   O9        1.0  0.94730  0.40710  0.16720  1.0000 -0.6209342324
O   O10       1.0  0.04090  0.54770  0.15220  1.0000 -0.6209342324
O   O11       1.0  0.55420  0.25940  0.23970  1.0000 -0.5876731568
O   O12       1.0  0.63730  0.39730  0.21580  1.0000 -0.7280823358
O   O13       1.0  0.94950  0.60300  0.26540  1.0000 -0.6108344116
O   O14       1.0  0.86270  0.46350  0.28600  1.0000 -0.7280823358
O   O15       1.0  0.46300  0.31410  0.35190  1.0000 -0.5808838897
O   O16       1.0  0.56080  0.45420  0.33700  1.0000 -0.6609283381
O   O17       1.0  0.75990  0.48450  0.59060  1.0000 -0.6407828026
O   O18       1.0  0.71290  0.30320  0.66667  1.0000 -0.8435452871
O   O19       1.0  0.95750  0.42900  0.63820  1.0000 -0.6407828026
O   O20       1.0  0.89780  0.40550  0.76090  1.0000 -0.8627632104
O   O21       1.0  0.76340  0.34210  0.41540  1.0000 -0.6108344116
O   O22       1.0  0.90100  0.26990  0.24300  1.0000 -0.8068261289
O   O23       1.0  0.96070  0.29250  0.36590  1.0000 -0.6465059065
O   O24       1.0  0.71510  0.16570  0.33740  1.0000 -0.8435452871
O   O25       1.0  0.55270  0.59290  0.66720  1.0000 -0.6209342324
O   O26       1.0  0.45910  0.45230  0.65220  1.0000 -0.6209342324
O   O27       1.0  0.94580  0.74060  0.73970  1.0000 -0.5876731568
O   O28       1.0  0.86270  0.60270  0.71580  1.0000 -0.7280823358
O   O29       1.0  0.55050  0.39700  0.76540  1.0000 -0.6108344116
O   O30       1.0  0.63730  0.53650  0.78600  1.0000 -0.7280823358
O   O31       1.0  0.03700  0.68590  0.85190  1.0000 -0.5808838897
O   O32       1.0  0.93920  0.54580  0.83700  1.0000 -0.6609283381
O   O33       1.0  0.25990  0.01550  0.40940  1.0000 -0.6407828026
O   O34       1.0  0.21290  0.19680  0.33333  1.0000 -0.8435452871
O   O35       1.0  0.45750  0.07100  0.36180  1.0000 -0.6407828026
O   O36       1.0  0.39780  0.09450  0.23910  1.0000 -0.8627632104
O   O37       1.0  0.26340  0.15790  0.58460  1.0000 -0.6108344116
O   O38       1.0  0.40100  0.23010  0.75700  1.0000 -0.8068261289
O   O39       1.0  0.46070  0.20750  0.63410  1.0000 -0.6465059065
O   O40       1.0  0.21510  0.33430  0.66260  1.0000 -0.8435452871
O   O41       1.0  0.05270  0.90710  0.33280  1.0000 -0.6209342324
O   O42       1.0  0.95910  0.04770  0.34780  1.0000 -0.6209342324
O   O43       1.0  0.44580  0.75940  0.26030  1.0000 -0.5876731568
O   O44       1.0  0.36270  0.89730  0.28420  1.0000 -0.7280823358
O   O45       1.0  0.05050  0.10300  0.23460  1.0000 -0.6108344116
O   O46       1.0  0.13730  0.96350  0.21400  1.0000 -0.7280823358
O   O47       1.0  0.53700  0.81410  0.14810  1.0000 -0.5808838897
O   O48       1.0  0.43920  0.95420  0.16300  1.0000 -0.6609283381
O   O49       1.0  0.24010  0.98450  0.90940  1.0000 -0.6407828026
O   O50       1.0  0.28710  0.80320  0.83333  1.0000 -0.8435452871
O   O51       1.0  0.04250  0.92900  0.86180  1.0000 -0.6407828026
O   O52       1.0  0.10220  0.90550  0.73910  1.0000 -0.8627632104
O   O53       1.0  0.23660  0.84210  0.08460  1.0000 -0.6108344116
O   O54       1.0  0.09900  0.76990  0.25700  1.0000 -0.8068261289
O   O55       1.0  0.03930  0.79250  0.13410  1.0000 -0.6465059065
O   O56       1.0  0.28490  0.66570  0.16260  1.0000 -0.8435452871
O   O57       1.0  0.44730  0.09290  0.83280  1.0000 -0.6209342324
O   O58       1.0  0.54090  0.95230  0.84780  1.0000 -0.6209342324
O   O59       1.0  0.05420  0.24060  0.76030  1.0000 -0.5876731568
O   O60       1.0  0.13730  0.10270  0.78420  1.0000 -0.7280823358
O   O61       1.0  0.44950  0.89700  0.73460  1.0000 -0.6108344116
O   O62       1.0  0.36270  0.03650  0.71400  1.0000 -0.7280823358
O   O63       1.0  0.96300  0.18590  0.64810  1.0000 -0.5808838897
O   O64       1.0  0.06080  0.04580  0.66300  1.0000 -0.6609283381
