# DDEC6 charges by PACMAN v1.1 (https://github.com/mtap-research/PACMAN-charge/)
data_2019[Bi][pts]3[FSR]1
_chemical_formula_sum              "Bi2 H44 C88 O16"
_cell_length_a       11.0807
_cell_length_b       11.0807
_cell_length_c       28.5598
_cell_angle_alpha    88.4716
_cell_angle_beta     91.5284
_cell_angle_gamma    43.3849

_symmetry_space_group_name_H-M    "P 1"
_symmetry_Int_Tables_number       1

loop_
  _symmetry_equiv_pos_as_xyz
  'x, y, z'

loop_
  _atom_site_type_symbol
  _atom_site_label
  _atom_site_symmetry_multiplicity
  _atom_site_fract_x
  _atom_site_fract_y
  _atom_site_fract_z
  _atom_site_occupancy
  _atom_site_charge
Bi  Bi1       1.0  0.88195  0.88195  0.25000  1.0000 1.3539683484
Bi  Bi2       1.0  0.11805  0.11805  0.75000  1.0000 1.3539683484
H   H1        1.0  0.24350  0.83250  0.40220  1.0000 0.1206515991
H   H2        1.0  0.91620  0.87940  0.59580  1.0000 0.1206515991
H   H3        1.0  0.31480  0.43560  0.49750  1.0000 0.128894996
H   H4        1.0  0.75690  0.12910  0.40750  1.0000 0.1206515991
H   H5        1.0  0.58400  0.32000  0.46490  1.0000 0.1123878919
H   H6        1.0  0.37100  0.48440  0.30920  1.0000 0.1406217329
H   H7        1.0  0.91430  0.64210  0.55280  1.0000 0.128894996
H   H8        1.0  0.37570  0.42570  0.60500  1.0000 0.128894996
H   H9        1.0  0.19700  0.67640  0.36680  1.0000 0.128894996
H   H10       1.0  0.91050  0.50370  0.61410  1.0000 0.128894996
H   H11       1.0  0.37760  0.27620  0.66300  1.0000 0.1406217329
H   H12       1.0  0.83250  0.24350  0.09780  1.0000 0.1206515991
H   H13       1.0  0.87940  0.91620  0.90420  1.0000 0.1206515991
H   H14       1.0  0.43560  0.31480  0.00250  1.0000 0.128894996
H   H15       1.0  0.12910  0.75690  0.09250  1.0000 0.1206515991
H   H16       1.0  0.32000  0.58400  0.03510  1.0000 0.1123878919
H   H17       1.0  0.48440  0.37100  0.19080  1.0000 0.1406217329
H   H18       1.0  0.64210  0.91430  0.94720  1.0000 0.128894996
H   H19       1.0  0.42570  0.37570  0.89500  1.0000 0.128894996
H   H20       1.0  0.67640  0.19700  0.13320  1.0000 0.128894996
H   H21       1.0  0.50370  0.91050  0.88590  1.0000 0.128894996
H   H22       1.0  0.27620  0.37760  0.83700  1.0000 0.1406217329
H   H23       1.0  0.75650  0.16750  0.59780  1.0000 0.1206515991
H   H24       1.0  0.08380  0.12060  0.40420  1.0000 0.1206515991
H   H25       1.0  0.68520  0.56440  0.50250  1.0000 0.128894996
H   H26       1.0  0.24310  0.87090  0.59250  1.0000 0.1206515991
H   H27       1.0  0.41600  0.68000  0.53510  1.0000 0.1123878919
H   H28       1.0  0.62900  0.51560  0.69080  1.0000 0.1406217329
H   H29       1.0  0.08570  0.35790  0.44720  1.0000 0.128894996
H   H30       1.0  0.62430  0.57430  0.39500  1.0000 0.128894996
H   H31       1.0  0.80300  0.32360  0.63320  1.0000 0.128894996
H   H32       1.0  0.08950  0.49630  0.38590  1.0000 0.128894996
H   H33       1.0  0.62240  0.72380  0.33700  1.0000 0.1406217329
H   H34       1.0  0.16750  0.75650  0.90220  1.0000 0.1206515991
H   H35       1.0  0.12060  0.08380  0.09580  1.0000 0.1206515991
H   H36       1.0  0.56440  0.68520  0.99750  1.0000 0.128894996
H   H37       1.0  0.87090  0.24310  0.90750  1.0000 0.1206515991
H   H38       1.0  0.68000  0.41600  0.96490  1.0000 0.1123878919
H   H39       1.0  0.51560  0.62900  0.80920  1.0000 0.1406217329
H   H40       1.0  0.35790  0.08570  0.05280  1.0000 0.128894996
H   H41       1.0  0.57430  0.62430  0.10500  1.0000 0.128894996
H   H42       1.0  0.32360  0.80300  0.86680  1.0000 0.128894996
H   H43       1.0  0.49630  0.08950  0.11410  1.0000 0.128894996
H   H44       1.0  0.72380  0.62240  0.16300  1.0000 0.1406217329
C   C1        1.0  0.15740  0.81160  0.46120  1.0000 0.0308841589
C   C2        1.0  0.14050  0.28570  0.68380  1.0000 0.5522355252
C   C3        1.0  0.04770  0.90950  0.49910  1.0000 -0.0021509429
C   C4        1.0  0.03860  0.82740  0.53550  1.0000 0.0308841589
C   C5        1.0  0.14380  0.55240  0.57310  1.0000 0.0772769861
C   C6        1.0  0.16940  0.89640  0.42640  1.0000 -0.1372927669
C   C7        1.0  0.37000  0.51840  0.42200  1.0000 0.0687921886
C   C8        1.0  0.92540  0.93120  0.57220  1.0000 -0.1292954199
C   C9        1.0  0.57970  0.28510  0.35270  1.0000 -0.0171556626
C   C10       1.0  0.24700  0.55460  0.49770  1.0000 -0.1832224987
C   C11       1.0  0.69000  0.15200  0.31700  1.0000 0.5522355252
C   C12       1.0  0.64300  0.23900  0.39930  1.0000 -0.0957576446
C   C13       1.0  0.14230  0.64690  0.53450  1.0000 0.0308841589
C   C14       1.0  0.14240  0.37700  0.64480  1.0000 -0.0053063613
C   C15       1.0  0.53990  0.35330  0.43380  1.0000 -0.1558663435
C   C16       1.0  0.41350  0.45010  0.34050  1.0000 -0.0739782415
C   C17       1.0  0.25560  0.63220  0.46090  1.0000 0.0308841589
C   C18       1.0  0.00740  0.57140  0.57560  1.0000 -0.1490038074
C   C19       1.0  0.28080  0.44200  0.60610  1.0000 -0.1490038074
C   C20       1.0  0.30960  0.56540  0.37520  1.0000 -0.1372927669
C   C21       1.0  0.00640  0.48540  0.61230  1.0000 -0.0914291535
C   C22       1.0  0.28110  0.35330  0.64140  1.0000 -0.083702743
C   C23       1.0  0.81160  0.15740  0.03880  1.0000 0.0308841589
C   C24       1.0  0.28570  0.14050  0.81620  1.0000 0.5522355252
C   C25       1.0  0.90950  0.04770  0.00090  1.0000 -0.0021509429
C   C26       1.0  0.82740  0.03860  0.96450  1.0000 0.0308841589
C   C27       1.0  0.55240  0.14380  0.92690  1.0000 0.0772769861
C   C28       1.0  0.89640  0.16940  0.07360  1.0000 -0.1372927669
C   C29       1.0  0.51840  0.37000  0.07800  1.0000 0.0687921886
C   C30       1.0  0.93120  0.92540  0.92780  1.0000 -0.1292954199
C   C31       1.0  0.28510  0.57970  0.14730  1.0000 -0.0171556626
C   C32       1.0  0.55460  0.24700  0.00230  1.0000 -0.1832224987
C   C33       1.0  0.15200  0.69000  0.18300  1.0000 0.5522355252
C   C34       1.0  0.23900  0.64300  0.10070  1.0000 -0.0957576446
C   C35       1.0  0.64690  0.14230  0.96550  1.0000 0.0308841589
C   C36       1.0  0.37700  0.14240  0.85520  1.0000 -0.0053063613
C   C37       1.0  0.35330  0.53990  0.06620  1.0000 -0.1558663435
C   C38       1.0  0.45010  0.41350  0.15950  1.0000 -0.0739782415
C   C39       1.0  0.63220  0.25560  0.03910  1.0000 0.0308841589
C   C40       1.0  0.57140  0.00740  0.92440  1.0000 -0.1490038074
C   C41       1.0  0.44200  0.28080  0.89390  1.0000 -0.1490038074
C   C42       1.0  0.56540  0.30960  0.12480  1.0000 -0.1372927669
C   C43       1.0  0.48540  0.00640  0.88770  1.0000 -0.0914291535
C   C44       1.0  0.35330  0.28110  0.85860  1.0000 -0.083702743
C   C45       1.0  0.84260  0.18840  0.53880  1.0000 0.0308841589
C   C46       1.0  0.85950  0.71430  0.31620  1.0000 0.5522355252
C   C47       1.0  0.95230  0.09050  0.50090  1.0000 -0.0021509429
C   C48       1.0  0.96140  0.17260  0.46450  1.0000 0.0308841589
C   C49       1.0  0.85620  0.44760  0.42690  1.0000 0.0772769861
C   C50       1.0  0.83060  0.10360  0.57360  1.0000 -0.1372927669
C   C51       1.0  0.63000  0.48160  0.57800  1.0000 0.0687921886
C   C52       1.0  0.07460  0.06880  0.42780  1.0000 -0.1292954199
C   C53       1.0  0.42030  0.71490  0.64730  1.0000 -0.0171556626
C   C54       1.0  0.75300  0.44540  0.50230  1.0000 -0.1832224987
C   C55       1.0  0.31000  0.84800  0.68300  1.0000 0.5522355252
C   C56       1.0  0.35700  0.76100  0.60070  1.0000 -0.0957576446
C   C57       1.0  0.85770  0.35310  0.46550  1.0000 0.0308841589
C   C58       1.0  0.85760  0.62300  0.35520  1.0000 -0.0053063613
C   C59       1.0  0.46010  0.64670  0.56620  1.0000 -0.1558663435
C   C60       1.0  0.58650  0.54990  0.65950  1.0000 -0.0739782415
C   C61       1.0  0.74440  0.36780  0.53910  1.0000 0.0308841589
C   C62       1.0  0.99260  0.42860  0.42440  1.0000 -0.1490038074
C   C63       1.0  0.71920  0.55800  0.39390  1.0000 -0.1490038074
C   C64       1.0  0.69040  0.43460  0.62480  1.0000 -0.1372927669
C   C65       1.0  0.99360  0.51460  0.38770  1.0000 -0.0914291535
C   C66       1.0  0.71890  0.64670  0.35860  1.0000 -0.083702743
C   C67       1.0  0.18840  0.84260  0.96120  1.0000 0.0308841589
C   C68       1.0  0.71430  0.85950  0.18380  1.0000 0.5522355252
C   C69       1.0  0.09050  0.95230  0.99910  1.0000 -0.0021509429
C   C70       1.0  0.17260  0.96140  0.03550  1.0000 0.0308841589
C   C71       1.0  0.44760  0.85620  0.07310  1.0000 0.0772769861
C   C72       1.0  0.10360  0.83060  0.92640  1.0000 -0.1372927669
C   C73       1.0  0.48160  0.63000  0.92200  1.0000 0.0687921886
C   C74       1.0  0.06880  0.07460  0.07220  1.0000 -0.1292954199
C   C75       1.0  0.71490  0.42030  0.85270  1.0000 -0.0171556626
C   C76       1.0  0.44540  0.75300  0.99770  1.0000 -0.1832224987
C   C77       1.0  0.84800  0.31000  0.81700  1.0000 0.5522355252
C   C78       1.0  0.76100  0.35700  0.89930  1.0000 -0.0957576446
C   C79       1.0  0.35310  0.85770  0.03450  1.0000 0.0308841589
C   C80       1.0  0.62300  0.85760  0.14480  1.0000 -0.0053063613
C   C81       1.0  0.64670  0.46010  0.93380  1.0000 -0.1558663435
C   C82       1.0  0.54990  0.58650  0.84050  1.0000 -0.0739782415
C   C83       1.0  0.36780  0.74440  0.96090  1.0000 0.0308841589
C   C84       1.0  0.42860  0.99260  0.07560  1.0000 -0.1490038074
C   C85       1.0  0.55800  0.71920  0.10610  1.0000 -0.1490038074
C   C86       1.0  0.43460  0.69040  0.87520  1.0000 -0.1372927669
C   C87       1.0  0.51460  0.99360  0.11230  1.0000 -0.0914291535
C   C88       1.0  0.64670  0.71890  0.14140  1.0000 -0.083702743
O   O1        1.0  0.84450  0.00490  0.32942  1.0000 -0.5472474731
O   O2        1.0  0.62420  0.18800  0.27527  1.0000 -0.5208242274
O   O3        1.0  0.27900  0.14720  0.70423  1.0000 -0.477674108
O   O4        1.0  0.99090  0.35650  0.69555  1.0000 -0.4949182011
O   O5        1.0  0.00490  0.84450  0.17058  1.0000 -0.5472474731
O   O6        1.0  0.18800  0.62420  0.22473  1.0000 -0.5208242274
O   O7        1.0  0.14720  0.27900  0.79577  1.0000 -0.477674108
O   O8        1.0  0.35650  0.99090  0.80445  1.0000 -0.4949182011
O   O9        1.0  0.15550  0.99510  0.67058  1.0000 -0.5472474731
O   O10       1.0  0.37580  0.81200  0.72473  1.0000 -0.5208242274
O   O11       1.0  0.72100  0.85280  0.29577  1.0000 -0.477674108
O   O12       1.0  0.00910  0.64350  0.30445  1.0000 -0.4949182011
O   O13       1.0  0.99510  0.15550  0.82942  1.0000 -0.5472474731
O   O14       1.0  0.81200  0.37580  0.77527  1.0000 -0.5208242274
O   O15       1.0  0.85280  0.72100  0.20423  1.0000 -0.477674108
O   O16       1.0  0.64350  0.00910  0.19555  1.0000 -0.4949182011
