# DDEC6 charges by PACMAN v1.1 (https://github.com/mtap-research/PACMAN-charge/)
data_2019[Co][pcu]3[FSR]4
_chemical_formula_sum              "Co8 H120 C144 N16 O32"
_cell_length_a       19.4426
_cell_length_b       10.9351
_cell_length_c       28.503
_cell_angle_alpha    90
_cell_angle_beta     131.374
_cell_angle_gamma    90

_symmetry_space_group_name_H-M    "P 1"
_symmetry_Int_Tables_number       1

loop_
  _symmetry_equiv_pos_as_xyz
  'x, y, z'

loop_
  _atom_site_type_symbol
  _atom_site_label
  _atom_site_symmetry_multiplicity
  _atom_site_fract_x
  _atom_site_fract_y
  _atom_site_fract_z
  _atom_site_occupancy
  _atom_site_charge
Co  Co1       1.0  0.57653  0.59065  0.75325  1.0000 0.8530729584
Co  Co2       1.0  0.92123  0.70502  0.24258  1.0000 0.8559627107
Co  Co3       1.0  0.42347  0.59065  0.74675  1.0000 0.8530729584
Co  Co4       1.0  0.07877  0.70502  0.25742  1.0000 0.8559627107
Co  Co5       1.0  0.42347  0.40935  0.24675  1.0000 0.8530729584
Co  Co6       1.0  0.07877  0.29498  0.75742  1.0000 0.8559627107
Co  Co7       1.0  0.57653  0.40935  0.25325  1.0000 0.8530729584
Co  Co8       1.0  0.92123  0.29498  0.74258  1.0000 0.8559627107
H   H1        1.0  0.62600  0.71520  0.54070  1.0000 0.2577990911
H   H2        1.0  0.85870  0.63430  0.44890  1.0000 0.2577990911
H   H3        1.0  0.59920  0.62700  0.93010  1.0000 0.1170457348
H   H4        1.0  0.67980  0.66480  0.03440  1.0000 0.1117669922
H   H5        1.0  0.91470  0.67880  0.06580  1.0000 0.1117669922
H   H6        1.0  0.83290  0.63780  0.96110  1.0000 0.1117669922
H   H7        1.0  0.56710  0.98690  0.71840  1.0000 0.1170457348
H   H8        1.0  0.57060  0.19680  0.72180  1.0000 0.1117669922
H   H9        1.0  0.89380  0.31170  0.24640  1.0000 0.1117669922
H   H10       1.0  0.89110  0.10230  0.24410  1.0000 0.1170457348
H   H11       1.0  0.68230  0.43840  0.73250  1.0000 0.10156056
H   H12       1.0  0.73300  0.44010  0.67880  1.0000 0.1402857504
H   H13       1.0  0.59880  0.75640  0.60000  1.0000 0.129847411
H   H14       1.0  0.55520  0.74760  0.65780  1.0000 0.1170457348
H   H15       1.0  0.77350  0.62520  0.63200  1.0000 0.1170457348
H   H16       1.0  0.70620  0.52000  0.58880  1.0000 0.1170457348
H   H17       1.0  0.64110  0.69490  0.38640  1.0000 0.129847411
H   H18       1.0  0.84080  0.66300  0.60130  1.0000 0.129847411
H   H19       1.0  0.52690  0.61390  0.43240  1.0000 0.1402857504
H   H20       1.0  0.51240  0.67830  0.37730  1.0000 0.1497242565
H   H21       1.0  0.52620  0.75700  0.42890  1.0000 0.1402857504
H   H22       1.0  0.95010  0.58900  0.55100  1.0000 0.129847411
H   H23       1.0  0.96900  0.64630  0.60900  1.0000 0.1402857504
H   H24       1.0  0.95920  0.73120  0.56050  1.0000 0.1497242565
H   H25       1.0  0.76790  0.81720  0.38900  1.0000 0.1117669922
H   H26       1.0  0.70560  0.70350  0.35250  1.0000 0.1170457348
H   H27       1.0  0.73980  0.87350  0.29480  1.0000 0.129847411
H   H28       1.0  0.79400  0.85660  0.24320  1.0000 0.1170457348
H   H29       1.0  0.92570  0.55780  0.33360  1.0000 0.1117669922
H   H30       1.0  0.87740  0.56730  0.38850  1.0000 0.1402857504
H   H31       1.0  0.37400  0.71520  0.95930  1.0000 0.2577990911
H   H32       1.0  0.14130  0.63430  0.05110  1.0000 0.2577990911
H   H33       1.0  0.40080  0.62700  0.56990  1.0000 0.1170457348
H   H34       1.0  0.32020  0.66480  0.46560  1.0000 0.1117669922
H   H35       1.0  0.08530  0.67880  0.43420  1.0000 0.1117669922
H   H36       1.0  0.16710  0.63780  0.53890  1.0000 0.1117669922
H   H37       1.0  0.43290  0.98690  0.78160  1.0000 0.1170457348
H   H38       1.0  0.42940  0.19680  0.77820  1.0000 0.1117669922
H   H39       1.0  0.10620  0.31170  0.25360  1.0000 0.1117669922
H   H40       1.0  0.10890  0.10230  0.25590  1.0000 0.1170457348
H   H41       1.0  0.31770  0.43840  0.76750  1.0000 0.10156056
H   H42       1.0  0.26700  0.44010  0.82120  1.0000 0.1402857504
H   H43       1.0  0.40120  0.75640  0.90000  1.0000 0.129847411
H   H44       1.0  0.44480  0.74760  0.84220  1.0000 0.1170457348
H   H45       1.0  0.22650  0.62520  0.86800  1.0000 0.1170457348
H   H46       1.0  0.29380  0.52000  0.91120  1.0000 0.1170457348
H   H47       1.0  0.35890  0.69490  0.11360  1.0000 0.129847411
H   H48       1.0  0.15920  0.66300  0.89870  1.0000 0.129847411
H   H49       1.0  0.47310  0.61390  0.06760  1.0000 0.1402857504
H   H50       1.0  0.48760  0.67830  0.12270  1.0000 0.1497242565
H   H51       1.0  0.47380  0.75700  0.07110  1.0000 0.1402857504
H   H52       1.0  0.04990  0.58900  0.94900  1.0000 0.129847411
H   H53       1.0  0.03100  0.64630  0.89100  1.0000 0.1402857504
H   H54       1.0  0.04080  0.73120  0.93950  1.0000 0.1497242565
H   H55       1.0  0.23210  0.81720  0.11100  1.0000 0.1117669922
H   H56       1.0  0.29440  0.70350  0.14750  1.0000 0.1170457348
H   H57       1.0  0.26020  0.87350  0.20520  1.0000 0.129847411
H   H58       1.0  0.20600  0.85660  0.25680  1.0000 0.1170457348
H   H59       1.0  0.07430  0.55780  0.16640  1.0000 0.1117669922
H   H60       1.0  0.12260  0.56730  0.11150  1.0000 0.1402857504
H   H61       1.0  0.37400  0.28480  0.45930  1.0000 0.2577990911
H   H62       1.0  0.14130  0.36570  0.55110  1.0000 0.2577990911
H   H63       1.0  0.40080  0.37300  0.06990  1.0000 0.1170457348
H   H64       1.0  0.32020  0.33520  0.96560  1.0000 0.1117669922
H   H65       1.0  0.08530  0.32120  0.93420  1.0000 0.1117669922
H   H66       1.0  0.16710  0.36220  0.03890  1.0000 0.1117669922
H   H67       1.0  0.43290  0.01310  0.28160  1.0000 0.1170457348
H   H68       1.0  0.42940  0.80320  0.27820  1.0000 0.1117669922
H   H69       1.0  0.10620  0.68830  0.75360  1.0000 0.1117669922
H   H70       1.0  0.10890  0.89770  0.75590  1.0000 0.1170457348
H   H71       1.0  0.31770  0.56160  0.26750  1.0000 0.10156056
H   H72       1.0  0.26700  0.55990  0.32120  1.0000 0.1402857504
H   H73       1.0  0.40120  0.24360  0.40000  1.0000 0.129847411
H   H74       1.0  0.44480  0.25240  0.34220  1.0000 0.1170457348
H   H75       1.0  0.22650  0.37480  0.36800  1.0000 0.1170457348
H   H76       1.0  0.29380  0.48000  0.41120  1.0000 0.1170457348
H   H77       1.0  0.35890  0.30510  0.61360  1.0000 0.129847411
H   H78       1.0  0.15920  0.33700  0.39870  1.0000 0.129847411
H   H79       1.0  0.47310  0.38610  0.56760  1.0000 0.1402857504
H   H80       1.0  0.48760  0.32170  0.62270  1.0000 0.1497242565
H   H81       1.0  0.47380  0.24300  0.57110  1.0000 0.1402857504
H   H82       1.0  0.04990  0.41100  0.44900  1.0000 0.129847411
H   H83       1.0  0.03100  0.35370  0.39100  1.0000 0.1402857504
H   H84       1.0  0.04080  0.26880  0.43950  1.0000 0.1497242565
H   H85       1.0  0.23210  0.18280  0.61100  1.0000 0.1117669922
H   H86       1.0  0.29440  0.29650  0.64750  1.0000 0.1170457348
H   H87       1.0  0.26020  0.12650  0.70520  1.0000 0.129847411
H   H88       1.0  0.20600  0.14340  0.75680  1.0000 0.1170457348
H   H89       1.0  0.07430  0.44220  0.66640  1.0000 0.1117669922
H   H90       1.0  0.12260  0.43270  0.61150  1.0000 0.1402857504
H   H91       1.0  0.62600  0.28480  0.04070  1.0000 0.2577990911
H   H92       1.0  0.85870  0.36570  0.94890  1.0000 0.2577990911
H   H93       1.0  0.59920  0.37300  0.43010  1.0000 0.1170457348
H   H94       1.0  0.67980  0.33520  0.53440  1.0000 0.1117669922
H   H95       1.0  0.91470  0.32120  0.56580  1.0000 0.1117669922
H   H96       1.0  0.83290  0.36220  0.46110  1.0000 0.1117669922
H   H97       1.0  0.56710  0.01310  0.21840  1.0000 0.1170457348
H   H98       1.0  0.57060  0.80320  0.22180  1.0000 0.1117669922
H   H99       1.0  0.89380  0.68830  0.74640  1.0000 0.1117669922
H   H100      1.0  0.89110  0.89770  0.74410  1.0000 0.1170457348
H   H101      1.0  0.68230  0.56160  0.23250  1.0000 0.10156056
H   H102      1.0  0.73300  0.55990  0.17880  1.0000 0.1402857504
H   H103      1.0  0.59880  0.24360  0.10000  1.0000 0.129847411
H   H104      1.0  0.55520  0.25240  0.15780  1.0000 0.1170457348
H   H105      1.0  0.77350  0.37480  0.13200  1.0000 0.1170457348
H   H106      1.0  0.70620  0.48000  0.08880  1.0000 0.1170457348
H   H107      1.0  0.64110  0.30510  0.88640  1.0000 0.129847411
H   H108      1.0  0.84080  0.33700  0.10130  1.0000 0.129847411
H   H109      1.0  0.52690  0.38610  0.93240  1.0000 0.1402857504
H   H110      1.0  0.51240  0.32170  0.87730  1.0000 0.1497242565
H   H111      1.0  0.52620  0.24300  0.92890  1.0000 0.1402857504
H   H112      1.0  0.95010  0.41100  0.05100  1.0000 0.129847411
H   H113      1.0  0.96900  0.35370  0.10900  1.0000 0.1402857504
H   H114      1.0  0.95920  0.26880  0.06050  1.0000 0.1497242565
H   H115      1.0  0.76790  0.18280  0.88900  1.0000 0.1117669922
H   H116      1.0  0.70560  0.29650  0.85250  1.0000 0.1170457348
H   H117      1.0  0.73980  0.12650  0.79480  1.0000 0.129847411
H   H118      1.0  0.79400  0.14340  0.74320  1.0000 0.1170457348
H   H119      1.0  0.92570  0.44220  0.83360  1.0000 0.1117669922
H   H120      1.0  0.87740  0.43270  0.88850  1.0000 0.1402857504
C   C1        1.0  0.65450  0.60590  0.86720  1.0000 0.5517790289
C   C2        1.0  0.70810  0.62930  0.93540  1.0000 -0.0116377107
C   C3        1.0  0.66250  0.63710  0.95750  1.0000 -0.1211788565
C   C4        1.0  0.71060  0.65970  0.01980  1.0000 -0.1314679288
C   C5        1.0  0.80490  0.67480  0.06090  1.0000 -0.0205624269
C   C6        1.0  0.85160  0.66760  0.03860  1.0000 -0.1211788565
C   C7        1.0  0.80260  0.64400  0.97600  1.0000 -0.1314679288
C   C8        1.0  0.85790  0.69340  0.12900  1.0000 0.5575161449
C   C9        1.0  0.54080  0.02910  0.73150  1.0000 -0.1314679288
C   C10       1.0  0.54150  0.15460  0.73280  1.0000 -0.1367422247
C   C11       1.0  0.93610  0.26880  0.24750  1.0000 -0.1314679288
C   C12       1.0  0.93530  0.14390  0.24680  1.0000 -0.1211788565
C   C13       1.0  0.66720  0.50450  0.70670  1.0000 0.10156056
C   C14       1.0  0.69790  0.50460  0.67430  1.0000 -0.2020260521
C   C15       1.0  0.67560  0.60080  0.63560  1.0000 0.10156056
C   C16       1.0  0.61860  0.69240  0.62790  1.0000 -0.2170423229
C   C17       1.0  0.59210  0.68580  0.66240  1.0000 0.0819982843
C   C18       1.0  0.70910  0.60330  0.60170  1.0000 -0.0601091014
C   C19       1.0  0.70700  0.67270  0.52400  1.0000 0.092156729
C   C20       1.0  0.64590  0.68260  0.45900  1.0000 0.092156729
C   C21       1.0  0.68120  0.68640  0.42970  1.0000 -0.2653915711
C   C22       1.0  0.77540  0.67790  0.46350  1.0000 0.1117669922
C   C23       1.0  0.83620  0.66680  0.52830  1.0000 0.092156729
C   C24       1.0  0.80070  0.66690  0.55790  1.0000 -0.2805331179
C   C25       1.0  0.54350  0.68290  0.42090  1.0000 -0.4553999022
C   C26       1.0  0.93780  0.65750  0.56560  1.0000 -0.4553999022
C   C27       1.0  0.76880  0.73110  0.38120  1.0000 -0.0601091014
C   C28       1.0  0.80320  0.72190  0.34790  1.0000 0.1117669922
C   C29       1.0  0.77800  0.80890  0.30370  1.0000 -0.2170423229
C   C30       1.0  0.81090  0.79780  0.27280  1.0000 0.0819982843
C   C31       1.0  0.88850  0.62250  0.32600  1.0000 0.092156729
C   C32       1.0  0.85930  0.62720  0.35910  1.0000 -0.2170423229
C   C33       1.0  0.34550  0.60590  0.63280  1.0000 0.5517790289
C   C34       1.0  0.29190  0.62930  0.56460  1.0000 -0.0116377107
C   C35       1.0  0.33750  0.63710  0.54250  1.0000 -0.1211788565
C   C36       1.0  0.28940  0.65970  0.48020  1.0000 -0.1314679288
C   C37       1.0  0.19510  0.67480  0.43910  1.0000 -0.0205624269
C   C38       1.0  0.14840  0.66760  0.46140  1.0000 -0.1211788565
C   C39       1.0  0.19740  0.64400  0.52400  1.0000 -0.1314679288
C   C40       1.0  0.14210  0.69340  0.37100  1.0000 0.5575161449
C   C41       1.0  0.45920  0.02910  0.76850  1.0000 -0.1314679288
C   C42       1.0  0.45850  0.15460  0.76720  1.0000 -0.1367422247
C   C43       1.0  0.06390  0.26880  0.25250  1.0000 -0.1314679288
C   C44       1.0  0.06470  0.14390  0.25320  1.0000 -0.1211788565
C   C45       1.0  0.33280  0.50450  0.79330  1.0000 0.10156056
C   C46       1.0  0.30210  0.50460  0.82570  1.0000 -0.2020260521
C   C47       1.0  0.32440  0.60080  0.86440  1.0000 0.10156056
C   C48       1.0  0.38140  0.69240  0.87210  1.0000 -0.2170423229
C   C49       1.0  0.40790  0.68580  0.83760  1.0000 0.0819982843
C   C50       1.0  0.29090  0.60330  0.89830  1.0000 -0.0601091014
C   C51       1.0  0.29300  0.67270  0.97600  1.0000 0.092156729
C   C52       1.0  0.35410  0.68260  0.04100  1.0000 0.092156729
C   C53       1.0  0.31880  0.68640  0.07030  1.0000 -0.2653915711
C   C54       1.0  0.22460  0.67790  0.03650  1.0000 0.1117669922
C   C55       1.0  0.16380  0.66680  0.97170  1.0000 0.092156729
C   C56       1.0  0.19930  0.66690  0.94210  1.0000 -0.2805331179
C   C57       1.0  0.45650  0.68290  0.07910  1.0000 -0.4553999022
C   C58       1.0  0.06220  0.65750  0.93440  1.0000 -0.4553999022
C   C59       1.0  0.23120  0.73110  0.11880  1.0000 -0.0601091014
C   C60       1.0  0.19680  0.72190  0.15210  1.0000 0.1117669922
C   C61       1.0  0.22200  0.80890  0.19630  1.0000 -0.2170423229
C   C62       1.0  0.18910  0.79780  0.22720  1.0000 0.0819982843
C   C63       1.0  0.11150  0.62250  0.17400  1.0000 0.092156729
C   C64       1.0  0.14070  0.62720  0.14090  1.0000 -0.2170423229
C   C65       1.0  0.50000  0.82640  0.75000  1.0000 0.581812816
C   C66       1.0  0.50000  0.96600  0.75000  1.0000 -0.0009821813
C   C67       1.0  0.50000  0.22070  0.75000  1.0000 -0.0391020381
C   C68       1.0  0.50000  0.35620  0.75000  1.0000 0.5517790289
C   C69       1.0  0.00000  0.46840  0.25000  1.0000 0.5675743989
C   C70       1.0  0.00000  0.33050  0.25000  1.0000 -0.0273874529
C   C71       1.0  0.00000  0.07690  0.25000  1.0000 -0.0116377107
C   C72       1.0  0.00000  0.94000  0.25000  1.0000 0.5884256533
C   C73       1.0  0.34550  0.39410  0.13280  1.0000 0.5517790289
C   C74       1.0  0.29190  0.37070  0.06460  1.0000 -0.0116377107
C   C75       1.0  0.33750  0.36290  0.04250  1.0000 -0.1211788565
C   C76       1.0  0.28940  0.34030  0.98020  1.0000 -0.1314679288
C   C77       1.0  0.19510  0.32520  0.93910  1.0000 -0.0205624269
C   C78       1.0  0.14840  0.33240  0.96140  1.0000 -0.1211788565
C   C79       1.0  0.19740  0.35600  0.02400  1.0000 -0.1314679288
C   C80       1.0  0.14210  0.30660  0.87100  1.0000 0.5575161449
C   C81       1.0  0.45920  0.97090  0.26850  1.0000 -0.1314679288
C   C82       1.0  0.45850  0.84540  0.26720  1.0000 -0.1367422247
C   C83       1.0  0.06390  0.73120  0.75250  1.0000 -0.1314679288
C   C84       1.0  0.06470  0.85610  0.75320  1.0000 -0.1211788565
C   C85       1.0  0.33280  0.49550  0.29330  1.0000 0.10156056
C   C86       1.0  0.30210  0.49540  0.32570  1.0000 -0.2020260521
C   C87       1.0  0.32440  0.39920  0.36440  1.0000 0.10156056
C   C88       1.0  0.38140  0.30760  0.37210  1.0000 -0.2170423229
C   C89       1.0  0.40790  0.31420  0.33760  1.0000 0.0819982843
C   C90       1.0  0.29090  0.39670  0.39830  1.0000 -0.0601091014
C   C91       1.0  0.29300  0.32730  0.47600  1.0000 0.092156729
C   C92       1.0  0.35410  0.31740  0.54100  1.0000 0.092156729
C   C93       1.0  0.31880  0.31360  0.57030  1.0000 -0.2653915711
C   C94       1.0  0.22460  0.32210  0.53650  1.0000 0.1117669922
C   C95       1.0  0.16380  0.33320  0.47170  1.0000 0.092156729
C   C96       1.0  0.19930  0.33310  0.44210  1.0000 -0.2805331179
C   C97       1.0  0.45650  0.31710  0.57910  1.0000 -0.4553999022
C   C98       1.0  0.06220  0.34250  0.43440  1.0000 -0.4553999022
C   C99       1.0  0.23120  0.26890  0.61880  1.0000 -0.0601091014
C   C100      1.0  0.19680  0.27810  0.65210  1.0000 0.1117669922
C   C101      1.0  0.22200  0.19110  0.69630  1.0000 -0.2170423229
C   C102      1.0  0.18910  0.20220  0.72720  1.0000 0.0819982843
C   C103      1.0  0.11150  0.37750  0.67400  1.0000 0.092156729
C   C104      1.0  0.14070  0.37280  0.64090  1.0000 -0.2170423229
C   C105      1.0  0.65450  0.39410  0.36720  1.0000 0.5517790289
C   C106      1.0  0.70810  0.37070  0.43540  1.0000 -0.0116377107
C   C107      1.0  0.66250  0.36290  0.45750  1.0000 -0.1211788565
C   C108      1.0  0.71060  0.34030  0.51980  1.0000 -0.1314679288
C   C109      1.0  0.80490  0.32520  0.56090  1.0000 -0.0205624269
C   C110      1.0  0.85160  0.33240  0.53860  1.0000 -0.1211788565
C   C111      1.0  0.80260  0.35600  0.47600  1.0000 -0.1314679288
C   C112      1.0  0.85790  0.30660  0.62900  1.0000 0.5575161449
C   C113      1.0  0.54080  0.97090  0.23150  1.0000 -0.1314679288
C   C114      1.0  0.54150  0.84540  0.23280  1.0000 -0.1367422247
C   C115      1.0  0.93610  0.73120  0.74750  1.0000 -0.1314679288
C   C116      1.0  0.93530  0.85610  0.74680  1.0000 -0.1211788565
C   C117      1.0  0.66720  0.49550  0.20670  1.0000 0.10156056
C   C118      1.0  0.69790  0.49540  0.17430  1.0000 -0.2020260521
C   C119      1.0  0.67560  0.39920  0.13560  1.0000 0.10156056
C   C120      1.0  0.61860  0.30760  0.12790  1.0000 -0.2170423229
C   C121      1.0  0.59210  0.31420  0.16240  1.0000 0.0819982843
C   C122      1.0  0.70910  0.39670  0.10170  1.0000 -0.0601091014
C   C123      1.0  0.70700  0.32730  0.02400  1.0000 0.092156729
C   C124      1.0  0.64590  0.31740  0.95900  1.0000 0.092156729
C   C125      1.0  0.68120  0.31360  0.92970  1.0000 -0.2653915711
C   C126      1.0  0.77540  0.32210  0.96350  1.0000 0.1117669922
C   C127      1.0  0.83620  0.33320  0.02830  1.0000 0.092156729
C   C128      1.0  0.80070  0.33310  0.05790  1.0000 -0.2805331179
C   C129      1.0  0.54350  0.31710  0.92090  1.0000 -0.4553999022
C   C130      1.0  0.93780  0.34250  0.06560  1.0000 -0.4553999022
C   C131      1.0  0.76880  0.26890  0.88120  1.0000 -0.0601091014
C   C132      1.0  0.80320  0.27810  0.84790  1.0000 0.1117669922
C   C133      1.0  0.77800  0.19110  0.80370  1.0000 -0.2170423229
C   C134      1.0  0.81090  0.20220  0.77280  1.0000 0.0819982843
C   C135      1.0  0.88850  0.37750  0.82600  1.0000 0.092156729
C   C136      1.0  0.85930  0.37280  0.85910  1.0000 -0.2170423229
C   C137      1.0  0.50000  0.17360  0.25000  1.0000 0.581812816
C   C138      1.0  0.50000  0.03400  0.25000  1.0000 -0.0009821813
C   C139      1.0  0.50000  0.77930  0.25000  1.0000 -0.0391020381
C   C140      1.0  0.50000  0.64380  0.25000  1.0000 0.5517790289
C   C141      1.0  0.00000  0.53160  0.75000  1.0000 0.5675743989
C   C142      1.0  0.00000  0.66950  0.75000  1.0000 -0.0273874529
C   C143      1.0  0.00000  0.92310  0.75000  1.0000 -0.0116377107
C   C144      1.0  0.00000  0.06000  0.75000  1.0000 0.5884256533
N   N1        1.0  0.61770  0.59320  0.70260  1.0000 -0.2332109489
N   N2        1.0  0.67250  0.67050  0.55440  1.0000 -0.2098515608
N   N3        1.0  0.80960  0.67480  0.43270  1.0000 -0.2170423229
N   N4        1.0  0.86560  0.70600  0.28380  1.0000 -0.2464777694
N   N5        1.0  0.38230  0.59320  0.79740  1.0000 -0.2332109489
N   N6        1.0  0.32750  0.67050  0.94560  1.0000 -0.2098515608
N   N7        1.0  0.19040  0.67480  0.06730  1.0000 -0.2170423229
N   N8        1.0  0.13440  0.70600  0.21620  1.0000 -0.2464777694
N   N9        1.0  0.38230  0.40680  0.29740  1.0000 -0.2332109489
N   N10       1.0  0.32750  0.32950  0.44560  1.0000 -0.2098515608
N   N11       1.0  0.19040  0.32520  0.56730  1.0000 -0.2170423229
N   N12       1.0  0.13440  0.29400  0.71620  1.0000 -0.2464777694
N   N13       1.0  0.61770  0.40680  0.20260  1.0000 -0.2332109489
N   N14       1.0  0.67250  0.32950  0.05440  1.0000 -0.2098515608
N   N15       1.0  0.80960  0.32520  0.93270  1.0000 -0.2170423229
N   N16       1.0  0.86560  0.29400  0.78380  1.0000 -0.2464777694
O   O1        1.0  0.69450  0.60120  0.84590  1.0000 -0.5434622594
O   O2        1.0  0.56880  0.59230  0.83220  1.0000 -0.5787489094
O   O3        1.0  0.94390  0.70360  0.16500  1.0000 -0.5787489094
O   O4        1.0  0.81480  0.69680  0.14860  1.0000 -0.5576722153
O   O5        1.0  0.55792  0.77340  0.74962  1.0000 -0.552508367
O   O6        1.0  0.55770  0.40650  0.75000  1.0000 -0.552508367
O   O7        1.0  0.93930  0.52170  0.24660  1.0000 -0.5576722153
O   O8        1.0  0.93810  0.88710  0.24510  1.0000 -0.552508367
O   O9        1.0  0.30550  0.60120  0.65410  1.0000 -0.5434622594
O   O10       1.0  0.43120  0.59230  0.66780  1.0000 -0.5787489094
O   O11       1.0  0.05610  0.70360  0.33500  1.0000 -0.5787489094
O   O12       1.0  0.18520  0.69680  0.35140  1.0000 -0.5576722153
O   O13       1.0  0.44208  0.77340  0.75038  1.0000 -0.552508367
O   O14       1.0  0.44230  0.40650  0.75000  1.0000 -0.552508367
O   O15       1.0  0.06070  0.52170  0.25340  1.0000 -0.5576722153
O   O16       1.0  0.06190  0.88710  0.25490  1.0000 -0.552508367
O   O17       1.0  0.30550  0.39880  0.15410  1.0000 -0.5434622594
O   O18       1.0  0.43120  0.40770  0.16780  1.0000 -0.5787489094
O   O19       1.0  0.05610  0.29640  0.83500  1.0000 -0.5787489094
O   O20       1.0  0.18520  0.30320  0.85140  1.0000 -0.5576722153
O   O21       1.0  0.44208  0.22660  0.25038  1.0000 -0.552508367
O   O22       1.0  0.44230  0.59350  0.25000  1.0000 -0.552508367
O   O23       1.0  0.06070  0.47830  0.75340  1.0000 -0.5576722153
O   O24       1.0  0.06190  0.11290  0.75490  1.0000 -0.552508367
O   O25       1.0  0.69450  0.39880  0.34590  1.0000 -0.5434622594
O   O26       1.0  0.56880  0.40770  0.33220  1.0000 -0.5787489094
O   O27       1.0  0.94390  0.29640  0.66500  1.0000 -0.5787489094
O   O28       1.0  0.81480  0.30320  0.64860  1.0000 -0.5576722153
O   O29       1.0  0.55792  0.22660  0.24962  1.0000 -0.552508367
O   O30       1.0  0.55770  0.59350  0.25000  1.0000 -0.552508367
O   O31       1.0  0.93930  0.47830  0.74660  1.0000 -0.5576722153
O   O32       1.0  0.93810  0.11290  0.74510  1.0000 -0.552508367
