# DDEC6 charges by PACMAN v1.1 (https://github.com/mtap-research/PACMAN-charge/)
data_2019[Tb][nan]3[FSR]2
_chemical_formula_sum              "Tb4 H112 C156 N4 O32"
_cell_length_a       9.3853
_cell_length_b       24.1051
_cell_length_c       16.4757
_cell_angle_alpha    90
_cell_angle_beta     102.805
_cell_angle_gamma    90

_symmetry_space_group_name_H-M    "P 1"
_symmetry_Int_Tables_number       1

loop_
  _symmetry_equiv_pos_as_xyz
  'x, y, z'

loop_
  _atom_site_type_symbol
  _atom_site_label
  _atom_site_symmetry_multiplicity
  _atom_site_fract_x
  _atom_site_fract_y
  _atom_site_fract_z
  _atom_site_occupancy
  _atom_site_charge
Tb  Tb1       1.0  0.24091  0.51054  0.48397  1.0000 2.0623371985
Tb  Tb2       1.0  0.25909  0.01054  0.51603  1.0000 2.0623371985
Tb  Tb3       1.0  0.75909  0.48946  0.51603  1.0000 2.0623371985
Tb  Tb4       1.0  0.74091  0.98946  0.48397  1.0000 2.0623371985
H   H1        1.0  0.69600  0.09720  0.24290  1.0000 0.135104188
H   H2        1.0  0.91680  0.04840  0.26060  1.0000 0.126921261
H   H3        1.0  0.99140  0.11830  0.05210  1.0000 0.1101923329
H   H4        1.0  0.77180  0.16530  0.03450  1.0000 0.126921261
H   H5        1.0  0.17230  0.05480  0.29880  1.0000 0.1185082019
H   H6        1.0  0.49370  0.98610  0.20400  1.0000 0.1185082019
H   H7        1.0  0.35100  0.99490  0.07250  1.0000 0.1101923329
H   H8        1.0  0.12330  0.03670  0.05180  1.0000 0.1101923329
H   H9        1.0  0.63220  0.25860  0.19080  1.0000 0.126921261
H   H10       1.0  0.55810  0.29550  0.30440  1.0000 0.1101923329
H   H11       1.0  0.33390  0.15620  0.32500  1.0000 0.1101923329
H   H12       1.0  0.40380  0.12010  0.20990  1.0000 0.1185082019
H   H13       1.0  0.37090  0.33390  0.35450  1.0000 0.1185082019
H   H14       1.0  0.20020  0.31560  0.55820  1.0000 0.1185082019
H   H15       1.0  0.25540  0.22120  0.55630  1.0000 0.1185082019
H   H16       1.0  0.36320  0.18530  0.45720  1.0000 0.1101923329
H   H17       1.0  0.55240  0.08190  0.00760  1.0000 0.1185082019
H   H18       1.0  0.36310  0.06060  0.89820  1.0000 0.1185082019
H   H19       1.0  0.13510  0.18950  0.95860  1.0000 0.1101923329
H   H20       1.0  0.32390  0.20960  0.06900  1.0000 0.126921261
H   H21       1.0  0.93800  0.13580  0.90130  1.0000 0.1036574853
H   H22       1.0  0.74460  0.11690  0.79070  1.0000 0.1101923329
H   H23       1.0  0.78550  0.08000  0.66810  1.0000 0.1185082019
H   H24       1.0  0.21920  0.08100  0.76640  1.0000 0.1185082019
H   H25       1.0  0.46320  0.60120  0.55730  1.0000 0.3593569484
H   H26       1.0  0.31950  0.61350  0.55460  1.0000 0.3127338228
H   H27       1.0  0.01860  0.59780  0.47510  1.0000 0.3696679783
H   H28       1.0  0.07700  0.60120  0.40580  1.0000 0.34045414
H   H29       1.0  0.80400  0.59720  0.75710  1.0000 0.135104188
H   H30       1.0  0.58320  0.54840  0.73940  1.0000 0.126921261
H   H31       1.0  0.50860  0.61830  0.94790  1.0000 0.1101923329
H   H32       1.0  0.72820  0.66530  0.96550  1.0000 0.126921261
H   H33       1.0  0.32770  0.55480  0.70120  1.0000 0.1185082019
H   H34       1.0  0.00630  0.48610  0.79600  1.0000 0.1185082019
H   H35       1.0  0.14900  0.49490  0.92750  1.0000 0.1101923329
H   H36       1.0  0.37670  0.53670  0.94820  1.0000 0.1101923329
H   H37       1.0  0.86780  0.75860  0.80920  1.0000 0.126921261
H   H38       1.0  0.94190  0.79550  0.69560  1.0000 0.1101923329
H   H39       1.0  0.16610  0.65620  0.67500  1.0000 0.1101923329
H   H40       1.0  0.09620  0.62010  0.79010  1.0000 0.1185082019
H   H41       1.0  0.12910  0.83390  0.64550  1.0000 0.1185082019
H   H42       1.0  0.29980  0.81560  0.44180  1.0000 0.1185082019
H   H43       1.0  0.24460  0.72120  0.44370  1.0000 0.1185082019
H   H44       1.0  0.13680  0.68530  0.54280  1.0000 0.1101923329
H   H45       1.0  0.94760  0.58190  0.99240  1.0000 0.1185082019
H   H46       1.0  0.13690  0.56060  0.10180  1.0000 0.1185082019
H   H47       1.0  0.36490  0.68950  0.04140  1.0000 0.1101923329
H   H48       1.0  0.17610  0.70960  0.93100  1.0000 0.126921261
H   H49       1.0  0.56200  0.63580  0.09870  1.0000 0.1036574853
H   H50       1.0  0.75540  0.61690  0.20930  1.0000 0.1101923329
H   H51       1.0  0.71450  0.58000  0.33190  1.0000 0.1185082019
H   H52       1.0  0.28080  0.58100  0.23360  1.0000 0.1185082019
H   H53       1.0  0.03680  0.10120  0.44270  1.0000 0.3593569484
H   H54       1.0  0.18050  0.11350  0.44540  1.0000 0.3127338228
H   H55       1.0  0.48140  0.09780  0.52490  1.0000 0.3696679783
H   H56       1.0  0.42300  0.10120  0.59420  1.0000 0.34045414
H   H57       1.0  0.30400  0.90280  0.75710  1.0000 0.135104188
H   H58       1.0  0.08320  0.95160  0.73940  1.0000 0.126921261
H   H59       1.0  0.00860  0.88170  0.94790  1.0000 0.1101923329
H   H60       1.0  0.22820  0.83470  0.96550  1.0000 0.126921261
H   H61       1.0  0.82770  0.94520  0.70120  1.0000 0.1185082019
H   H62       1.0  0.50630  0.01390  0.79600  1.0000 0.1185082019
H   H63       1.0  0.64900  0.00510  0.92750  1.0000 0.1101923329
H   H64       1.0  0.87670  0.96330  0.94820  1.0000 0.1101923329
H   H65       1.0  0.36780  0.74140  0.80920  1.0000 0.126921261
H   H66       1.0  0.44190  0.70450  0.69560  1.0000 0.1101923329
H   H67       1.0  0.66610  0.84380  0.67500  1.0000 0.1101923329
H   H68       1.0  0.59620  0.87990  0.79010  1.0000 0.1185082019
H   H69       1.0  0.62910  0.66610  0.64550  1.0000 0.1185082019
H   H70       1.0  0.79980  0.68440  0.44180  1.0000 0.1185082019
H   H71       1.0  0.74460  0.77880  0.44370  1.0000 0.1185082019
H   H72       1.0  0.63680  0.81470  0.54280  1.0000 0.1101923329
H   H73       1.0  0.44760  0.91810  0.99240  1.0000 0.1185082019
H   H74       1.0  0.63690  0.93940  0.10180  1.0000 0.1185082019
H   H75       1.0  0.86490  0.81050  0.04140  1.0000 0.1101923329
H   H76       1.0  0.67610  0.79040  0.93100  1.0000 0.126921261
H   H77       1.0  0.06200  0.86420  0.09870  1.0000 0.1036574853
H   H78       1.0  0.25540  0.88310  0.20930  1.0000 0.1101923329
H   H79       1.0  0.21450  0.92000  0.33190  1.0000 0.1185082019
H   H80       1.0  0.78080  0.91900  0.23360  1.0000 0.1185082019
H   H81       1.0  0.53680  0.39880  0.44270  1.0000 0.3593569484
H   H82       1.0  0.68050  0.38650  0.44540  1.0000 0.3127338228
H   H83       1.0  0.98140  0.40220  0.52490  1.0000 0.3696679783
H   H84       1.0  0.92300  0.39880  0.59420  1.0000 0.34045414
H   H85       1.0  0.19600  0.40280  0.24290  1.0000 0.135104188
H   H86       1.0  0.41680  0.45160  0.26060  1.0000 0.126921261
H   H87       1.0  0.49140  0.38170  0.05210  1.0000 0.1101923329
H   H88       1.0  0.27180  0.33470  0.03450  1.0000 0.126921261
H   H89       1.0  0.67230  0.44520  0.29880  1.0000 0.1185082019
H   H90       1.0  0.99370  0.51390  0.20400  1.0000 0.1185082019
H   H91       1.0  0.85100  0.50510  0.07250  1.0000 0.1101923329
H   H92       1.0  0.62330  0.46330  0.05180  1.0000 0.1101923329
H   H93       1.0  0.13220  0.24140  0.19080  1.0000 0.126921261
H   H94       1.0  0.05810  0.20450  0.30440  1.0000 0.1101923329
H   H95       1.0  0.83390  0.34380  0.32500  1.0000 0.1101923329
H   H96       1.0  0.90380  0.37990  0.20990  1.0000 0.1185082019
H   H97       1.0  0.87090  0.16610  0.35450  1.0000 0.1185082019
H   H98       1.0  0.70020  0.18440  0.55820  1.0000 0.1185082019
H   H99       1.0  0.75540  0.27880  0.55630  1.0000 0.1185082019
H   H100      1.0  0.86320  0.31470  0.45720  1.0000 0.1101923329
H   H101      1.0  0.05240  0.41810  0.00760  1.0000 0.1185082019
H   H102      1.0  0.86310  0.43940  0.89820  1.0000 0.1185082019
H   H103      1.0  0.63510  0.31050  0.95860  1.0000 0.1101923329
H   H104      1.0  0.82390  0.29040  0.06900  1.0000 0.126921261
H   H105      1.0  0.43800  0.36420  0.90130  1.0000 0.1036574853
H   H106      1.0  0.24460  0.38310  0.79070  1.0000 0.1101923329
H   H107      1.0  0.28550  0.42000  0.66810  1.0000 0.1185082019
H   H108      1.0  0.71920  0.41900  0.76640  1.0000 0.1185082019
H   H109      1.0  0.96320  0.89880  0.55730  1.0000 0.3593569484
H   H110      1.0  0.81950  0.88650  0.55460  1.0000 0.3127338228
H   H111      1.0  0.51860  0.90220  0.47510  1.0000 0.3696679783
H   H112      1.0  0.57700  0.89880  0.40580  1.0000 0.34045414
C   C1        1.0  0.71030  0.13380  0.13490  1.0000 0.1676058818
C   C2        1.0  0.75460  0.10080  0.20370  1.0000 -0.1702154807
C   C3        1.0  0.88890  0.07260  0.21520  1.0000 -0.1123120475
C   C4        1.0  0.98080  0.07990  0.16050  1.0000 0.062167899
C   C5        1.0  0.93320  0.11390  0.09130  1.0000 -0.1390968195
C   C6        1.0  0.80070  0.14130  0.08010  1.0000 -0.1816991465
C   C7        1.0  0.12480  0.05200  0.17340  1.0000 0.0766116113
C   C8        1.0  0.20910  0.04400  0.25260  1.0000 -0.1584446046
C   C9        1.0  0.34910  0.02010  0.26540  1.0000 -0.0275686507
C   C10       1.0  0.40040  0.00220  0.19630  1.0000 -0.121264695
C   C11       1.0  0.31660  0.00790  0.11840  1.0000 -0.0880765593
C   C12       1.0  0.17980  0.03280  0.10620  1.0000 -0.1482028717
C   C13       1.0  0.43830  0.01380  0.35140  1.0000 0.6309737947
C   C14       1.0  0.52980  0.18510  0.19130  1.0000 0.1588997927
C   C15       1.0  0.57230  0.23770  0.21810  1.0000 -0.1702154807
C   C16       1.0  0.52650  0.25980  0.28550  1.0000 -0.1297657813
C   C17       1.0  0.43360  0.23020  0.32680  1.0000 0.062167899
C   C18       1.0  0.39310  0.17760  0.29790  1.0000 -0.1297657813
C   C19       1.0  0.43700  0.15540  0.23000  1.0000 -0.1702154807
C   C20       1.0  0.37610  0.25590  0.39370  1.0000 0.074531873
C   C21       1.0  0.34770  0.31080  0.39560  1.0000 -0.1702154807
C   C22       1.0  0.28390  0.33460  0.45810  1.0000 -0.0181758651
C   C23       1.0  0.24610  0.30100  0.51760  1.0000 -0.0970889318
C   C24       1.0  0.27810  0.24490  0.51560  1.0000 -0.0880765593
C   C25       1.0  0.34180  0.22350  0.45600  1.0000 -0.1482028717
C   C26       1.0  0.25820  0.39540  0.45790  1.0000 0.5608949449
C   C27       1.0  0.45950  0.14860  0.05100  1.0000 0.1920649048
C   C28       1.0  0.46730  0.10370  0.99810  1.0000 -0.1875567904
C   C29       1.0  0.35370  0.09080  0.93270  1.0000 -0.1297657813
C   C30       1.0  0.22540  0.12130  0.91650  1.0000 0.062167899
C   C31       1.0  0.21900  0.16700  0.96880  1.0000 -0.1390968195
C   C32       1.0  0.33280  0.17940  0.03450  1.0000 -0.1875567904
C   C33       1.0  0.95620  0.12030  0.85220  1.0000 -0.1482028717
C   C34       1.0  0.84060  0.10930  0.78590  1.0000 -0.0880765593
C   C35       1.0  0.86500  0.08720  0.71270  1.0000 -0.0970889318
C   C36       1.0  0.00600  0.07560  0.70480  1.0000 -0.0363645597
C   C37       1.0  0.12340  0.08750  0.77250  1.0000 -0.1482028717
C   C38       1.0  0.10340  0.10820  0.84690  1.0000 0.062167899
C   C39       1.0  0.03480  0.05040  0.62860  1.0000 0.6395362851
C   C40       1.0  0.78970  0.63380  0.86510  1.0000 0.1676058818
C   C41       1.0  0.74540  0.60080  0.79630  1.0000 -0.1702154807
C   C42       1.0  0.61110  0.57260  0.78480  1.0000 -0.1123120475
C   C43       1.0  0.51920  0.57990  0.83950  1.0000 0.062167899
C   C44       1.0  0.56680  0.61390  0.90870  1.0000 -0.1390968195
C   C45       1.0  0.69930  0.64130  0.91990  1.0000 -0.1816991465
C   C46       1.0  0.37520  0.55200  0.82660  1.0000 0.0766116113
C   C47       1.0  0.29090  0.54400  0.74740  1.0000 -0.1584446046
C   C48       1.0  0.15090  0.52010  0.73460  1.0000 -0.0275686507
C   C49       1.0  0.09960  0.50220  0.80370  1.0000 -0.121264695
C   C50       1.0  0.18340  0.50790  0.88160  1.0000 -0.0880765593
C   C51       1.0  0.32020  0.53280  0.89380  1.0000 -0.1482028717
C   C52       1.0  0.06170  0.51380  0.64860  1.0000 0.6309737947
C   C53       1.0  0.97020  0.68510  0.80870  1.0000 0.1588997927
C   C54       1.0  0.92770  0.73770  0.78190  1.0000 -0.1702154807
C   C55       1.0  0.97350  0.75980  0.71450  1.0000 -0.1297657813
C   C56       1.0  0.06640  0.73020  0.67320  1.0000 0.062167899
C   C57       1.0  0.10690  0.67760  0.70210  1.0000 -0.1297657813
C   C58       1.0  0.06300  0.65540  0.77000  1.0000 -0.1702154807
C   C59       1.0  0.12390  0.75590  0.60630  1.0000 0.074531873
C   C60       1.0  0.15230  0.81080  0.60440  1.0000 -0.1702154807
C   C61       1.0  0.21610  0.83460  0.54190  1.0000 -0.0181758651
C   C62       1.0  0.25390  0.80100  0.48240  1.0000 -0.0970889318
C   C63       1.0  0.22190  0.74490  0.48440  1.0000 -0.0880765593
C   C64       1.0  0.15820  0.72350  0.54400  1.0000 -0.1482028717
C   C65       1.0  0.24180  0.89540  0.54210  1.0000 0.5608949449
C   C66       1.0  0.04050  0.64860  0.94900  1.0000 0.1920649048
C   C67       1.0  0.03270  0.60370  0.00190  1.0000 -0.1816991465
C   C68       1.0  0.14630  0.59080  0.06730  1.0000 -0.1297657813
C   C69       1.0  0.27460  0.62130  0.08350  1.0000 0.062167899
C   C70       1.0  0.28100  0.66700  0.03120  1.0000 -0.1390968195
C   C71       1.0  0.16720  0.67940  0.96550  1.0000 -0.1875567904
C   C72       1.0  0.54380  0.62030  0.14780  1.0000 -0.1482028717
C   C73       1.0  0.65940  0.60930  0.21410  1.0000 -0.0880765593
C   C74       1.0  0.63500  0.58720  0.28730  1.0000 -0.0970889318
C   C75       1.0  0.49400  0.57560  0.29520  1.0000 -0.0363645597
C   C76       1.0  0.37660  0.58750  0.22750  1.0000 -0.1482028717
C   C77       1.0  0.39660  0.60820  0.15310  1.0000 0.062167899
C   C78       1.0  0.46520  0.55040  0.37140  1.0000 0.6395362851
C   C79       1.0  0.28970  0.86620  0.86510  1.0000 0.1676058818
C   C80       1.0  0.24540  0.89920  0.79630  1.0000 -0.1702154807
C   C81       1.0  0.11110  0.92740  0.78480  1.0000 -0.1123120475
C   C82       1.0  0.01920  0.92010  0.83950  1.0000 0.062167899
C   C83       1.0  0.06680  0.88610  0.90870  1.0000 -0.1390968195
C   C84       1.0  0.19930  0.85870  0.91990  1.0000 -0.1816991465
C   C85       1.0  0.87520  0.94800  0.82660  1.0000 0.0766116113
C   C86       1.0  0.79090  0.95600  0.74740  1.0000 -0.1584446046
C   C87       1.0  0.65090  0.97990  0.73460  1.0000 -0.0275686507
C   C88       1.0  0.59960  0.99780  0.80370  1.0000 -0.121264695
C   C89       1.0  0.68340  0.99210  0.88160  1.0000 -0.0880765593
C   C90       1.0  0.82020  0.96720  0.89380  1.0000 -0.1482028717
C   C91       1.0  0.56170  0.98620  0.64860  1.0000 0.6309737947
C   C92       1.0  0.47020  0.81490  0.80870  1.0000 0.1588997927
C   C93       1.0  0.42770  0.76230  0.78190  1.0000 -0.1702154807
C   C94       1.0  0.47350  0.74020  0.71450  1.0000 -0.1297657813
C   C95       1.0  0.56640  0.76980  0.67320  1.0000 0.062167899
C   C96       1.0  0.60690  0.82240  0.70210  1.0000 -0.1297657813
C   C97       1.0  0.56300  0.84460  0.77000  1.0000 -0.1702154807
C   C98       1.0  0.62390  0.74410  0.60630  1.0000 0.074531873
C   C99       1.0  0.65230  0.68920  0.60440  1.0000 -0.1702154807
C   C100      1.0  0.71610  0.66540  0.54190  1.0000 -0.0181758651
C   C101      1.0  0.75390  0.69900  0.48240  1.0000 -0.0970889318
C   C102      1.0  0.72190  0.75510  0.48440  1.0000 -0.0880765593
C   C103      1.0  0.65820  0.77650  0.54400  1.0000 -0.1482028717
C   C104      1.0  0.74180  0.60460  0.54210  1.0000 0.5608949449
C   C105      1.0  0.54050  0.85140  0.94900  1.0000 0.1920649048
C   C106      1.0  0.53270  0.89630  0.00190  1.0000 -0.1875567904
C   C107      1.0  0.64630  0.90920  0.06730  1.0000 -0.1297657813
C   C108      1.0  0.77460  0.87870  0.08350  1.0000 0.062167899
C   C109      1.0  0.78100  0.83300  0.03120  1.0000 -0.1390968195
C   C110      1.0  0.66720  0.82060  0.96550  1.0000 -0.1875567904
C   C111      1.0  0.04380  0.87970  0.14780  1.0000 -0.1482028717
C   C112      1.0  0.15940  0.89070  0.21410  1.0000 -0.0880765593
C   C113      1.0  0.13500  0.91280  0.28730  1.0000 -0.0970889318
C   C114      1.0  0.99400  0.92440  0.29520  1.0000 -0.0363645597
C   C115      1.0  0.87660  0.91250  0.22750  1.0000 -0.1482028717
C   C116      1.0  0.89660  0.89180  0.15310  1.0000 0.062167899
C   C117      1.0  0.96520  0.94960  0.37140  1.0000 0.6395362851
C   C118      1.0  0.21030  0.36620  0.13490  1.0000 0.1676058818
C   C119      1.0  0.25460  0.39920  0.20370  1.0000 -0.1702154807
C   C120      1.0  0.38890  0.42740  0.21520  1.0000 -0.1123120475
C   C121      1.0  0.48080  0.42010  0.16050  1.0000 0.062167899
C   C122      1.0  0.43320  0.38610  0.09130  1.0000 -0.1390968195
C   C123      1.0  0.30070  0.35870  0.08010  1.0000 -0.1816991465
C   C124      1.0  0.62480  0.44800  0.17340  1.0000 0.0766116113
C   C125      1.0  0.70910  0.45600  0.25260  1.0000 -0.1584446046
C   C126      1.0  0.84910  0.47990  0.26540  1.0000 -0.0275686507
C   C127      1.0  0.90040  0.49780  0.19630  1.0000 -0.121264695
C   C128      1.0  0.81660  0.49210  0.11840  1.0000 -0.0880765593
C   C129      1.0  0.67980  0.46720  0.10620  1.0000 -0.1482028717
C   C130      1.0  0.93830  0.48620  0.35140  1.0000 0.6309737947
C   C131      1.0  0.02980  0.31490  0.19130  1.0000 0.1588997927
C   C132      1.0  0.07230  0.26230  0.21810  1.0000 -0.1702154807
C   C133      1.0  0.02650  0.24020  0.28550  1.0000 -0.1297657813
C   C134      1.0  0.93360  0.26980  0.32680  1.0000 0.062167899
C   C135      1.0  0.89310  0.32240  0.29790  1.0000 -0.1297657813
C   C136      1.0  0.93700  0.34460  0.23000  1.0000 -0.1702154807
C   C137      1.0  0.87610  0.24410  0.39370  1.0000 0.074531873
C   C138      1.0  0.84770  0.18920  0.39560  1.0000 -0.1702154807
C   C139      1.0  0.78390  0.16540  0.45810  1.0000 -0.0181758651
C   C140      1.0  0.74610  0.19900  0.51760  1.0000 -0.0970889318
C   C141      1.0  0.77810  0.25510  0.51560  1.0000 -0.0880765593
C   C142      1.0  0.84180  0.27650  0.45600  1.0000 -0.1482028717
C   C143      1.0  0.75820  0.10460  0.45790  1.0000 0.5608949449
C   C144      1.0  0.95950  0.35140  0.05100  1.0000 0.1920649048
C   C145      1.0  0.96730  0.39630  0.99810  1.0000 -0.1875567904
C   C146      1.0  0.85370  0.40920  0.93270  1.0000 -0.1297657813
C   C147      1.0  0.72540  0.37870  0.91650  1.0000 0.062167899
C   C148      1.0  0.71900  0.33300  0.96880  1.0000 -0.1390968195
C   C149      1.0  0.83280  0.32060  0.03450  1.0000 -0.1875567904
C   C150      1.0  0.45620  0.37970  0.85220  1.0000 -0.1482028717
C   C151      1.0  0.34060  0.39070  0.78590  1.0000 -0.0880765593
C   C152      1.0  0.36500  0.41280  0.71270  1.0000 -0.0970889318
C   C153      1.0  0.50600  0.42440  0.70480  1.0000 -0.0363645597
C   C154      1.0  0.62340  0.41250  0.77250  1.0000 -0.1482028717
C   C155      1.0  0.60340  0.39180  0.84690  1.0000 0.062167899
C   C156      1.0  0.53480  0.44960  0.62860  1.0000 0.6395362851
N   N1        1.0  0.57180  0.16230  0.11860  1.0000 -0.1816991465
N   N2        1.0  0.92820  0.66230  0.88140  1.0000 -0.1816991465
N   N3        1.0  0.42820  0.83770  0.88140  1.0000 -0.1816991465
N   N4        1.0  0.07180  0.33770  0.11860  1.0000 -0.1816991465
O   O1        1.0  0.38130  0.01688  0.41220  1.0000 -0.6878625068
O   O2        1.0  0.57400  0.00487  0.35790  1.0000 -0.6627635572
O   O3        1.0  0.16880  0.41458  0.49840  1.0000 -0.6368911478
O   O4        1.0  0.32780  0.42743  0.42150  1.0000 -0.5863382879
O   O5        1.0  0.16060  0.05530  0.61560  1.0000 -0.6529957864
O   O6        1.0  0.93580  0.02380  0.58160  1.0000 -0.6686557594
O   O7        1.0  0.38200  0.58746  0.56200  1.0000 -0.7434538666
O   O8        1.0  0.09730  0.59481  0.45790  1.0000 -0.7576974395
O   O9        1.0  0.11870  0.51688  0.58780  1.0000 -0.6878625068
O   O10       1.0  0.92600  0.50487  0.64210  1.0000 -0.6627635572
O   O11       1.0  0.33120  0.91458  0.50160  1.0000 -0.6368911478
O   O12       1.0  0.17220  0.92743  0.57850  1.0000 -0.5863382879
O   O13       1.0  0.33940  0.55530  0.38440  1.0000 -0.6529957864
O   O14       1.0  0.56420  0.52380  0.41840  1.0000 -0.6686557594
O   O15       1.0  0.11800  0.08746  0.43800  1.0000 -0.7434538666
O   O16       1.0  0.40270  0.09481  0.54210  1.0000 -0.7576974395
O   O17       1.0  0.61870  0.98312  0.58780  1.0000 -0.6878625068
O   O18       1.0  0.42600  0.99513  0.64210  1.0000 -0.6627635572
O   O19       1.0  0.83120  0.58542  0.50160  1.0000 -0.6368911478
O   O20       1.0  0.67220  0.57257  0.57850  1.0000 -0.5863382879
O   O21       1.0  0.83940  0.94470  0.38440  1.0000 -0.6529957864
O   O22       1.0  0.06420  0.97620  0.41840  1.0000 -0.6686557594
O   O23       1.0  0.61800  0.41254  0.43800  1.0000 -0.7434538666
O   O24       1.0  0.90270  0.40519  0.54210  1.0000 -0.7576974395
O   O25       1.0  0.88130  0.48312  0.41220  1.0000 -0.6878625068
O   O26       1.0  0.07400  0.49513  0.35790  1.0000 -0.6627635572
O   O27       1.0  0.66880  0.08542  0.49840  1.0000 -0.6368911478
O   O28       1.0  0.82780  0.07257  0.42150  1.0000 -0.5863382879
O   O29       1.0  0.66060  0.44470  0.61560  1.0000 -0.6529957864
O   O30       1.0  0.43580  0.47620  0.58160  1.0000 -0.6686557594
O   O31       1.0  0.88200  0.91254  0.56200  1.0000 -0.7434538666
O   O32       1.0  0.59730  0.90519  0.45790  1.0000 -0.7576974395
