# DDEC6 charges by PACMAN v1.1 (https://github.com/mtap-research/PACMAN-charge/)
data_2019[Ho][sql]2[FSR]1
_chemical_formula_sum              "Ho4 H52 C24 N4 O28"
_cell_length_a       12.3586
_cell_length_b       9.8594
_cell_length_c       13.0149
_cell_angle_alpha    90
_cell_angle_beta     104.2
_cell_angle_gamma    90

_symmetry_space_group_name_H-M    "P 1"
_symmetry_Int_Tables_number       1

loop_
  _symmetry_equiv_pos_as_xyz
  'x, y, z'

loop_
  _atom_site_type_symbol
  _atom_site_label
  _atom_site_symmetry_multiplicity
  _atom_site_fract_x
  _atom_site_fract_y
  _atom_site_fract_z
  _atom_site_occupancy
  _atom_site_charge
Ho  Ho1       1.0  0.79605  0.34242  0.38937  1.0000 1.907193534
Ho  Ho2       1.0  0.70395  0.84242  0.61063  1.0000 1.907193534
Ho  Ho3       1.0  0.20395  0.65758  0.61063  1.0000 1.907193534
Ho  Ho4       1.0  0.29605  0.15758  0.38937  1.0000 1.907193534
H   H1        1.0  0.89100  0.37260  0.60510  1.0000 0.2879585921
H   H2        1.0  0.90820  0.49350  0.56350  1.0000 0.3175540639
H   H3        1.0  0.70370  0.13520  0.16760  1.0000 0.1097696609
H   H4        1.0  0.80930  0.08420  0.13200  1.0000 0.0980265177
H   H5        1.0  0.84750  0.93500  0.32050  1.0000 0.12814329
H   H6        1.0  0.72760  0.99810  0.30210  1.0000 0.12814329
H   H7        1.0  0.97930  0.09930  0.23240  1.0000 0.1097696609
H   H8        1.0  0.99640  0.05800  0.35150  1.0000 0.1359788551
H   H9        1.0  0.87780  0.30520  0.13760  1.0000 0.0898656881
H   H10       1.0  0.75630  0.30260  0.06350  1.0000 0.0898656881
H   H11       1.0  0.70900  0.42600  0.19000  1.0000 0.2846029623
H   H12       1.0  0.73600  0.62500  0.40200  1.0000 0.3730007185
H   H13       1.0  0.83000  0.61500  0.33800  1.0000 0.3730007185
H   H14       1.0  0.60900  0.87260  0.39490  1.0000 0.2879585921
H   H15       1.0  0.59180  0.99350  0.43650  1.0000 0.3175540639
H   H16       1.0  0.79630  0.63520  0.83240  1.0000 0.1097696609
H   H17       1.0  0.69070  0.58420  0.86800  1.0000 0.0980265177
H   H18       1.0  0.65250  0.43500  0.67950  1.0000 0.12814329
H   H19       1.0  0.77240  0.49810  0.69790  1.0000 0.12814329
H   H20       1.0  0.52070  0.59930  0.76760  1.0000 0.1097696609
H   H21       1.0  0.50360  0.55800  0.64850  1.0000 0.1359788551
H   H22       1.0  0.62220  0.80520  0.86240  1.0000 0.0898656881
H   H23       1.0  0.74370  0.80260  0.93650  1.0000 0.0898656881
H   H24       1.0  0.79100  0.92600  0.81000  1.0000 0.2846029623
H   H25       1.0  0.76400  0.12500  0.59800  1.0000 0.3730007185
H   H26       1.0  0.67000  0.11500  0.66200  1.0000 0.3730007185
H   H27       1.0  0.10900  0.62740  0.39490  1.0000 0.2879585921
H   H28       1.0  0.09180  0.50650  0.43650  1.0000 0.3175540639
H   H29       1.0  0.29630  0.86480  0.83240  1.0000 0.1097696609
H   H30       1.0  0.19070  0.91580  0.86800  1.0000 0.0980265177
H   H31       1.0  0.15250  0.06500  0.67950  1.0000 0.12814329
H   H32       1.0  0.27240  0.00190  0.69790  1.0000 0.12814329
H   H33       1.0  0.02070  0.90070  0.76760  1.0000 0.1097696609
H   H34       1.0  0.00360  0.94200  0.64850  1.0000 0.1359788551
H   H35       1.0  0.12220  0.69480  0.86240  1.0000 0.0898656881
H   H36       1.0  0.24370  0.69740  0.93650  1.0000 0.0898656881
H   H37       1.0  0.29100  0.57400  0.81000  1.0000 0.2846029623
H   H38       1.0  0.26400  0.37500  0.59800  1.0000 0.3730007185
H   H39       1.0  0.17000  0.38500  0.66200  1.0000 0.3730007185
H   H40       1.0  0.39100  0.12740  0.60510  1.0000 0.2879585921
H   H41       1.0  0.40820  0.00650  0.56350  1.0000 0.3175540639
H   H42       1.0  0.20370  0.36480  0.16760  1.0000 0.1097696609
H   H43       1.0  0.30930  0.41580  0.13200  1.0000 0.0980265177
H   H44       1.0  0.34750  0.56500  0.32050  1.0000 0.12814329
H   H45       1.0  0.22760  0.50190  0.30210  1.0000 0.12814329
H   H46       1.0  0.47930  0.40070  0.23240  1.0000 0.1097696609
H   H47       1.0  0.49640  0.44200  0.35150  1.0000 0.1359788551
H   H48       1.0  0.37780  0.19480  0.13760  1.0000 0.0898656881
H   H49       1.0  0.25630  0.19740  0.06350  1.0000 0.0898656881
H   H50       1.0  0.20900  0.07400  0.19000  1.0000 0.2846029623
H   H51       1.0  0.23600  0.87500  0.40200  1.0000 0.3730007185
H   H52       1.0  0.33000  0.88500  0.33800  1.0000 0.3730007185
C   C1        1.0  0.82240  0.02900  0.45320  1.0000 0.6366975232
C   C2        1.0  0.78270  0.15100  0.17480  1.0000 -0.1817237959
C   C3        1.0  0.80600  0.01330  0.33480  1.0000 -0.3030056583
C   C4        1.0  0.96580  0.12740  0.29960  1.0000 -0.3144709767
C   C5        1.0  0.79970  0.29120  0.13600  1.0000 -0.0082715121
C   C6        1.0  0.02750  0.25950  0.33340  1.0000 0.6574524565
C   C7        1.0  0.67760  0.52900  0.54680  1.0000 0.6366975232
C   C8        1.0  0.71730  0.65100  0.82520  1.0000 -0.1817237959
C   C9        1.0  0.69400  0.51330  0.66520  1.0000 -0.3030056583
C   C10       1.0  0.53420  0.62740  0.70040  1.0000 -0.3144709767
C   C11       1.0  0.70030  0.79120  0.86400  1.0000 -0.0082715121
C   C12       1.0  0.47250  0.75950  0.66667  1.0000 0.6574524565
C   C13       1.0  0.17760  0.97100  0.54680  1.0000 0.6366975232
C   C14       1.0  0.21730  0.84900  0.82520  1.0000 -0.1817237959
C   C15       1.0  0.19400  0.98670  0.66520  1.0000 -0.3030056583
C   C16       1.0  0.03420  0.87260  0.70040  1.0000 -0.3144709767
C   C17       1.0  0.20030  0.70880  0.86400  1.0000 -0.0082715121
C   C18       1.0  0.97250  0.74050  0.66667  1.0000 0.6574524565
C   C19       1.0  0.32240  0.47100  0.45320  1.0000 0.6366975232
C   C20       1.0  0.28270  0.34900  0.17480  1.0000 -0.1817237959
C   C21       1.0  0.30600  0.48670  0.33480  1.0000 -0.3030056583
C   C22       1.0  0.46580  0.37260  0.29960  1.0000 -0.3144709767
C   C23       1.0  0.29970  0.20880  0.13600  1.0000 -0.0082715121
C   C24       1.0  0.52750  0.24050  0.33340  1.0000 0.6574524565
N   N1        1.0  0.84430  0.13530  0.28820  1.0000 -0.1440188663
N   N2        1.0  0.65570  0.63530  0.71180  1.0000 -0.1440188663
N   N3        1.0  0.15570  0.86470  0.71180  1.0000 -0.1440188663
N   N4        1.0  0.34430  0.36470  0.28820  1.0000 -0.1440188663
O   O1        1.0  0.12800  0.26510  0.33030  1.0000 -0.703613408
O   O2        1.0  0.76430  0.38760  0.20430  1.0000 -0.5080814661
O   O3        1.0  0.91440  0.40840  0.55490  1.0000 -0.7660174744
O   O4        1.0  0.81990  0.92410  0.50700  1.0000 -0.669135444
O   O5        1.0  0.83330  0.14760  0.49220  1.0000 -0.6765273438
O   O6        1.0  0.97570  0.35580  0.36380  1.0000 -0.6581255274
O   O7        1.0  0.79510  0.57870  0.36810  1.0000 -0.7940317468
O   O8        1.0  0.37200  0.76510  0.66970  1.0000 -0.703613408
O   O9        1.0  0.73570  0.88760  0.79570  1.0000 -0.5080814661
O   O10       1.0  0.58560  0.90840  0.44510  1.0000 -0.7660174744
O   O11       1.0  0.68010  0.42410  0.49300  1.0000 -0.669135444
O   O12       1.0  0.66667  0.64760  0.50780  1.0000 -0.6765273438
O   O13       1.0  0.52430  0.85580  0.63620  1.0000 -0.6581255274
O   O14       1.0  0.70490  0.07870  0.63190  1.0000 -0.7940317468
O   O15       1.0  0.87200  0.73490  0.66970  1.0000 -0.703613408
O   O16       1.0  0.23570  0.61240  0.79570  1.0000 -0.5080814661
O   O17       1.0  0.08560  0.59160  0.44510  1.0000 -0.7660174744
O   O18       1.0  0.18010  0.07590  0.49300  1.0000 -0.669135444
O   O19       1.0  0.16670  0.85240  0.50780  1.0000 -0.6765273438
O   O20       1.0  0.02430  0.64420  0.63620  1.0000 -0.6581255274
O   O21       1.0  0.20490  0.42130  0.63190  1.0000 -0.7940317468
O   O22       1.0  0.62800  0.23490  0.33030  1.0000 -0.703613408
O   O23       1.0  0.26430  0.11240  0.20430  1.0000 -0.5080814661
O   O24       1.0  0.41440  0.09160  0.55490  1.0000 -0.7660174744
O   O25       1.0  0.31990  0.57590  0.50700  1.0000 -0.669135444
O   O26       1.0  0.33333  0.35240  0.49220  1.0000 -0.6765273438
O   O27       1.0  0.47570  0.14420  0.36380  1.0000 -0.6581255274
O   O28       1.0  0.29510  0.92130  0.36810  1.0000 -0.7940317468
