# DDEC6 charges by PACMAN v1.1 (https://github.com/mtap-research/PACMAN-charge/)
data_2019[Zn][sql]2[FSR]4
_chemical_formula_sum              "Zn4 H72 C104 N16 O20"
_cell_length_a       8.2834
_cell_length_b       22.704
_cell_length_c       14.4811
_cell_angle_alpha    90
_cell_angle_beta     91.07
_cell_angle_gamma    90

_symmetry_space_group_name_H-M    "P 1"
_symmetry_Int_Tables_number       1

loop_
  _symmetry_equiv_pos_as_xyz
  'x, y, z'

loop_
  _atom_site_type_symbol
  _atom_site_label
  _atom_site_symmetry_multiplicity
  _atom_site_fract_x
  _atom_site_fract_y
  _atom_site_fract_z
  _atom_site_occupancy
  _atom_site_charge
Zn  Zn1       1.0  0.34805  0.03847  0.81764  1.0000 0.7653968845
Zn  Zn2       1.0  0.34805  0.46153  0.81764  1.0000 0.7653968845
Zn  Zn3       1.0  0.65195  0.53847  0.18236  1.0000 0.7653968845
Zn  Zn4       1.0  0.65195  0.96153  0.18236  1.0000 0.7653968845
H   H1        1.0  0.06730  0.16080  0.79290  1.0000 0.1384135165
H   H2        1.0  0.96690  0.07870  0.60740  1.0000 0.111526056
H   H3        1.0  0.06960  0.02430  0.06460  1.0000 0.1195913703
H   H4        1.0  0.95960  0.03150  0.20970  1.0000 0.1297629133
H   H5        1.0  0.41630  0.91800  0.71120  1.0000 0.1195913703
H   H6        1.0  0.37310  0.94030  0.98020  1.0000 0.1297629133
H   H7        1.0  0.52480  0.16510  0.82800  1.0000 0.1195913703
H   H8        1.0  0.93420  0.08010  0.78590  1.0000 0.1297629133
H   H9        1.0  0.20370  0.19420  0.07950  1.0000 0.111526056
H   H10       1.0  0.09650  0.19970  0.22600  1.0000 0.1297629133
H   H11       1.0  0.39800  0.83430  0.95140  1.0000 0.1297629133
H   H12       1.0  0.42840  0.83900  0.63690  1.0000 0.1384135165
H   H13       1.0  0.71500  0.00890  0.79170  1.0000 0.1195913703
H   H14       1.0  0.36150  0.03650  0.46630  1.0000 0.1195913703
H   H15       1.0  0.24040  0.07260  0.33160  1.0000 0.1195913703
H   H16       1.0  0.84310  0.11490  0.47500  1.0000 0.1384135165
H   H17       1.0  0.06730  0.33920  0.79290  1.0000 0.1384135165
H   H18       1.0  0.96690  0.42130  0.60740  1.0000 0.111526056
H   H19       1.0  0.06960  0.47570  0.06460  1.0000 0.1195913703
H   H20       1.0  0.95960  0.46850  0.20970  1.0000 0.1297629133
H   H21       1.0  0.41630  0.58200  0.71120  1.0000 0.1195913703
H   H22       1.0  0.37310  0.55970  0.98020  1.0000 0.1297629133
H   H23       1.0  0.52480  0.33490  0.82800  1.0000 0.1195913703
H   H24       1.0  0.93420  0.41990  0.78590  1.0000 0.1297629133
H   H25       1.0  0.20370  0.30580  0.07950  1.0000 0.111526056
H   H26       1.0  0.09650  0.30030  0.22600  1.0000 0.1297629133
H   H27       1.0  0.39800  0.66570  0.95140  1.0000 0.1297629133
H   H28       1.0  0.42840  0.66100  0.63690  1.0000 0.1384135165
H   H29       1.0  0.71500  0.49110  0.79170  1.0000 0.1195913703
H   H30       1.0  0.36150  0.46350  0.46630  1.0000 0.1195913703
H   H31       1.0  0.24040  0.42740  0.33160  1.0000 0.1195913703
H   H32       1.0  0.84310  0.38510  0.47500  1.0000 0.1384135165
H   H33       1.0  0.64520  0.25000  0.81580  1.0000 0.1297629133
H   H34       1.0  0.20340  0.25000  0.79050  1.0000 0.1195913703
H   H35       1.0  0.41100  0.75000  0.87600  1.0000 0.1384135165
H   H36       1.0  0.43650  0.75000  0.55870  1.0000 0.1195913703
H   H37       1.0  0.93270  0.66080  0.20710  1.0000 0.1384135165
H   H38       1.0  0.03310  0.57870  0.39260  1.0000 0.111526056
H   H39       1.0  0.93040  0.52430  0.93540  1.0000 0.1195913703
H   H40       1.0  0.04040  0.53150  0.79030  1.0000 0.1297629133
H   H41       1.0  0.58370  0.41800  0.28880  1.0000 0.1195913703
H   H42       1.0  0.62690  0.44030  0.01980  1.0000 0.1297629133
H   H43       1.0  0.47520  0.66510  0.17200  1.0000 0.1195913703
H   H44       1.0  0.06580  0.58010  0.21410  1.0000 0.1297629133
H   H45       1.0  0.79630  0.69420  0.92050  1.0000 0.111526056
H   H46       1.0  0.90350  0.69970  0.77400  1.0000 0.1297629133
H   H47       1.0  0.60200  0.33430  0.04860  1.0000 0.1297629133
H   H48       1.0  0.57160  0.33900  0.36310  1.0000 0.1384135165
H   H49       1.0  0.28500  0.50890  0.20830  1.0000 0.1195913703
H   H50       1.0  0.63850  0.53650  0.53370  1.0000 0.1195913703
H   H51       1.0  0.75960  0.57260  0.66840  1.0000 0.1195913703
H   H52       1.0  0.15690  0.61490  0.52500  1.0000 0.1384135165
H   H53       1.0  0.93270  0.83920  0.20710  1.0000 0.1384135165
H   H54       1.0  0.03310  0.92130  0.39260  1.0000 0.111526056
H   H55       1.0  0.93040  0.97570  0.93540  1.0000 0.1195913703
H   H56       1.0  0.04040  0.96850  0.79030  1.0000 0.1297629133
H   H57       1.0  0.58370  0.08200  0.28880  1.0000 0.1195913703
H   H58       1.0  0.62690  0.05970  0.01980  1.0000 0.1297629133
H   H59       1.0  0.47520  0.83490  0.17200  1.0000 0.1195913703
H   H60       1.0  0.06580  0.91990  0.21410  1.0000 0.1297629133
H   H61       1.0  0.79630  0.80580  0.92050  1.0000 0.111526056
H   H62       1.0  0.90350  0.80030  0.77400  1.0000 0.1297629133
H   H63       1.0  0.60200  0.16570  0.04860  1.0000 0.1297629133
H   H64       1.0  0.57160  0.16100  0.36310  1.0000 0.1384135165
H   H65       1.0  0.28500  0.99110  0.20830  1.0000 0.1195913703
H   H66       1.0  0.63850  0.96350  0.53370  1.0000 0.1195913703
H   H67       1.0  0.75960  0.92740  0.66840  1.0000 0.1195913703
H   H68       1.0  0.15690  0.88510  0.52500  1.0000 0.1384135165
H   H69       1.0  0.35480  0.75000  0.18420  1.0000 0.1297629133
H   H70       1.0  0.79660  0.75000  0.20950  1.0000 0.1195913703
H   H71       1.0  0.58900  0.25000  0.12400  1.0000 0.1384135165
H   H72       1.0  0.56350  0.25000  0.44130  1.0000 0.1195913703
C   C1        1.0  0.00970  0.19690  0.79680  1.0000 -0.1734182622
C   C2        1.0  0.26620  0.03890  0.63880  1.0000 0.5476192151
C   C3        1.0  0.18040  0.05690  0.55130  1.0000 -0.036588881
C   C4        1.0  0.02420  0.07840  0.55120  1.0000 -0.0904448416
C   C5        1.0  0.22760  0.10270  0.96480  1.0000 0.5443160449
C   C6        1.0  0.14880  0.10786  0.05630  1.0000 -0.036588881
C   C7        1.0  0.07550  0.06070  0.09690  1.0000 -0.0904448416
C   C8        1.0  0.01040  0.06470  0.18300  1.0000 -0.1979568835
C   C9        1.0  0.40870  0.91052  0.77550  1.0000 0.1195913703
C   C10       1.0  0.01880  0.11630  0.22990  1.0000 0.2209314768
C   C11       1.0  0.38550  0.92230  0.92150  1.0000 -0.0327937328
C   C12       1.0  0.60020  0.13430  0.81820  1.0000 0.1012451936
C   C13       1.0  0.42230  0.80219  0.76360  1.0000 0.1771819506
C   C14       1.0  0.82360  0.08890  0.79520  1.0000 -0.0904448416
C   C15       1.0  0.15480  0.16040  0.10580  1.0000 -0.1053004946
C   C16       1.0  0.09050  0.16380  0.19230  1.0000 -0.2073447566
C   C17       1.0  0.39860  0.86460  0.90610  1.0000 -0.0953567337
C   C18       1.0  0.42740  0.80290  0.66990  1.0000 -0.1872487079
C   C19       1.0  0.70350  0.05030  0.79860  1.0000 -0.036588881
C   C20       1.0  0.84430  0.19740  0.80520  1.0000 0.1749453459
C   C21       1.0  0.02990  0.09750  0.39040  1.0000 0.2596055035
C   C22       1.0  0.25680  0.05350  0.46850  1.0000 -0.0795343045
C   C23       1.0  0.18440  0.07420  0.38820  1.0000 -0.2276233669
C   C24       1.0  0.94940  0.09930  0.47270  1.0000 -0.2073447566
C   C25       1.0  0.00970  0.30310  0.79680  1.0000 -0.1734182622
C   C26       1.0  0.26620  0.46110  0.63880  1.0000 0.5476192151
C   C27       1.0  0.18040  0.44310  0.55130  1.0000 -0.036588881
C   C28       1.0  0.02420  0.42160  0.55120  1.0000 -0.0904448416
C   C29       1.0  0.22760  0.39730  0.96480  1.0000 0.5443160449
C   C30       1.0  0.14880  0.39214  0.05630  1.0000 -0.036588881
C   C31       1.0  0.07550  0.43930  0.09690  1.0000 -0.0904448416
C   C32       1.0  0.01040  0.43530  0.18300  1.0000 -0.1979568835
C   C33       1.0  0.40870  0.58948  0.77550  1.0000 0.1195913703
C   C34       1.0  0.01880  0.38370  0.22990  1.0000 0.2209314768
C   C35       1.0  0.38550  0.57770  0.92150  1.0000 -0.0327937328
C   C36       1.0  0.60020  0.36570  0.81820  1.0000 0.1012451936
C   C37       1.0  0.42230  0.69781  0.76360  1.0000 0.1771819506
C   C38       1.0  0.82360  0.41110  0.79520  1.0000 -0.0904448416
C   C39       1.0  0.15480  0.33960  0.10580  1.0000 -0.1053004946
C   C40       1.0  0.09050  0.33620  0.19230  1.0000 -0.2073447566
C   C41       1.0  0.39860  0.63540  0.90610  1.0000 -0.0953567337
C   C42       1.0  0.42740  0.69710  0.66990  1.0000 -0.1872487079
C   C43       1.0  0.70350  0.44970  0.79860  1.0000 -0.036588881
C   C44       1.0  0.84430  0.30260  0.80520  1.0000 0.1749453459
C   C45       1.0  0.02990  0.40250  0.39040  1.0000 0.2596055035
C   C46       1.0  0.25680  0.44650  0.46850  1.0000 -0.0795343045
C   C47       1.0  0.18440  0.42580  0.38820  1.0000 -0.2276233669
C   C48       1.0  0.94940  0.40070  0.47270  1.0000 -0.2073447566
C   C49       1.0  0.75920  0.25000  0.80980  1.0000 -0.2853207674
C   C50       1.0  0.08900  0.25000  0.79420  1.0000 -0.0327937328
C   C51       1.0  0.41760  0.75000  0.81050  1.0000 -0.2591804947
C   C52       1.0  0.43100  0.75000  0.62420  1.0000 -0.0597178872
C   C53       1.0  0.99030  0.69690  0.20320  1.0000 -0.1734182622
C   C54       1.0  0.73380  0.53890  0.36120  1.0000 0.5476192151
C   C55       1.0  0.81960  0.55690  0.44870  1.0000 -0.036588881
C   C56       1.0  0.97580  0.57840  0.44880  1.0000 -0.0904448416
C   C57       1.0  0.77240  0.60270  0.03520  1.0000 0.5443160449
C   C58       1.0  0.85120  0.60786  0.94370  1.0000 -0.036588881
C   C59       1.0  0.92450  0.56070  0.90310  1.0000 -0.0904448416
C   C60       1.0  0.98960  0.56470  0.81700  1.0000 -0.1979568835
C   C61       1.0  0.59130  0.41052  0.22450  1.0000 0.1195913703
C   C62       1.0  0.98120  0.61630  0.77010  1.0000 0.2209314768
C   C63       1.0  0.61450  0.42230  0.07850  1.0000 -0.0327937328
C   C64       1.0  0.39980  0.63430  0.18180  1.0000 0.1012451936
C   C65       1.0  0.57770  0.30219  0.23640  1.0000 0.1771819506
C   C66       1.0  0.17640  0.58890  0.20480  1.0000 -0.0904448416
C   C67       1.0  0.84520  0.66040  0.89420  1.0000 -0.1053004946
C   C68       1.0  0.90950  0.66380  0.80770  1.0000 -0.2073447566
C   C69       1.0  0.60140  0.36460  0.09390  1.0000 -0.0953567337
C   C70       1.0  0.57260  0.30290  0.33010  1.0000 -0.1872487079
C   C71       1.0  0.29650  0.55030  0.20140  1.0000 -0.036588881
C   C72       1.0  0.15570  0.69740  0.19480  1.0000 0.1771819506
C   C73       1.0  0.97010  0.59750  0.60960  1.0000 0.2596055035
C   C74       1.0  0.74320  0.55350  0.53150  1.0000 -0.0795343045
C   C75       1.0  0.81560  0.57420  0.61180  1.0000 -0.2276233669
C   C76       1.0  0.05060  0.59930  0.52730  1.0000 -0.2073447566
C   C77       1.0  0.99030  0.80310  0.20320  1.0000 -0.1734182622
C   C78       1.0  0.73380  0.96110  0.36120  1.0000 0.5476192151
C   C79       1.0  0.81960  0.94310  0.44870  1.0000 -0.036588881
C   C80       1.0  0.97580  0.92160  0.44880  1.0000 -0.0904448416
C   C81       1.0  0.77240  0.89730  0.03520  1.0000 0.5443160449
C   C82       1.0  0.85120  0.89214  0.94370  1.0000 -0.036588881
C   C83       1.0  0.92450  0.93930  0.90310  1.0000 -0.0904448416
C   C84       1.0  0.98960  0.93530  0.81700  1.0000 -0.1979568835
C   C85       1.0  0.59130  0.08948  0.22450  1.0000 0.1195913703
C   C86       1.0  0.98120  0.88370  0.77010  1.0000 0.2209314768
C   C87       1.0  0.61450  0.07770  0.07850  1.0000 -0.0327937328
C   C88       1.0  0.39980  0.86570  0.18180  1.0000 0.1012451936
C   C89       1.0  0.57770  0.19781  0.23640  1.0000 0.1771819506
C   C90       1.0  0.17640  0.91110  0.20480  1.0000 -0.0904448416
C   C91       1.0  0.84520  0.83960  0.89420  1.0000 -0.1053004946
C   C92       1.0  0.90950  0.83620  0.80770  1.0000 -0.2073447566
C   C93       1.0  0.60140  0.13540  0.09390  1.0000 -0.0953567337
C   C94       1.0  0.57260  0.19710  0.33010  1.0000 -0.1872487079
C   C95       1.0  0.29650  0.94970  0.20140  1.0000 -0.036588881
C   C96       1.0  0.15570  0.80260  0.19480  1.0000 0.1771819506
C   C97       1.0  0.97010  0.90250  0.60960  1.0000 0.2596055035
C   C98       1.0  0.74320  0.94650  0.53150  1.0000 -0.0795343045
C   C99       1.0  0.81560  0.92580  0.61180  1.0000 -0.2276233669
C   C100      1.0  0.05060  0.90070  0.52730  1.0000 -0.2073447566
C   C101      1.0  0.24080  0.75000  0.19020  1.0000 -0.2853207674
C   C102      1.0  0.91100  0.75000  0.20580  1.0000 -0.0327937328
C   C103      1.0  0.58240  0.25000  0.18950  1.0000 -0.2591804947
C   C104      1.0  0.56900  0.25000  0.37580  1.0000 -0.0597178872
N   N1        1.0  0.39290  0.95149  0.83790  1.0000 -0.2800825026
N   N2        1.0  0.75950  0.14276  0.80720  1.0000 0.0082718188
N   N3        1.0  0.56200  0.07849  0.81360  1.0000 -0.2749125149
N   N4        1.0  0.41290  0.85693  0.81290  1.0000 0.0082718188
N   N5        1.0  0.39290  0.54851  0.83790  1.0000 -0.2800825026
N   N6        1.0  0.75950  0.35724  0.80720  1.0000 0.0082718188
N   N7        1.0  0.56200  0.42151  0.81360  1.0000 -0.2749125149
N   N8        1.0  0.41290  0.64307  0.81290  1.0000 0.0082718188
N   N9        1.0  0.60710  0.45149  0.16210  1.0000 -0.2800825026
N   N10       1.0  0.24050  0.64276  0.19280  1.0000 0.0082718188
N   N11       1.0  0.43800  0.57849  0.18640  1.0000 -0.2749125149
N   N12       1.0  0.58710  0.35693  0.18710  1.0000 0.0082718188
N   N13       1.0  0.60710  0.04851  0.16210  1.0000 -0.2800825026
N   N14       1.0  0.24050  0.85724  0.19280  1.0000 0.0082718188
N   N15       1.0  0.43800  0.92151  0.18640  1.0000 -0.2749125149
N   N16       1.0  0.58710  0.14307  0.18710  1.0000 0.0082718188
O   O1        1.0  0.20070  0.05478  0.71440  1.0000 -0.5560314144
O   O2        1.0  0.22570  0.05078  0.93010  1.0000 -0.5515745069
O   O3        1.0  0.28940  0.14503  0.92770  1.0000 -0.5515745069
O   O4        1.0  0.39190  0.01066  0.63600  1.0000 -0.5406411226
O   O5        1.0  0.95020  0.12196  0.31610  1.0000 -0.2184837844
O   O6        1.0  0.20070  0.44522  0.71440  1.0000 -0.5560314144
O   O7        1.0  0.22570  0.44922  0.93010  1.0000 -0.5515745069
O   O8        1.0  0.28940  0.35497  0.92770  1.0000 -0.5515745069
O   O9        1.0  0.39190  0.48934  0.63600  1.0000 -0.5406411226
O   O10       1.0  0.95020  0.37804  0.31610  1.0000 -0.2184837844
O   O11       1.0  0.79930  0.55478  0.28560  1.0000 -0.5560314144
O   O12       1.0  0.77430  0.55078  0.06990  1.0000 -0.5515745069
O   O13       1.0  0.71060  0.64503  0.07230  1.0000 -0.5515745069
O   O14       1.0  0.60810  0.51066  0.36400  1.0000 -0.5406411226
O   O15       1.0  0.04980  0.62196  0.68390  1.0000 -0.2184837844
O   O16       1.0  0.79930  0.94522  0.28560  1.0000 -0.5560314144
O   O17       1.0  0.77430  0.94922  0.06990  1.0000 -0.5515745069
O   O18       1.0  0.71060  0.85497  0.07230  1.0000 -0.5515745069
O   O19       1.0  0.60810  0.98934  0.36400  1.0000 -0.5406411226
O   O20       1.0  0.04980  0.87804  0.68390  1.0000 -0.2184837844
