# DDEC6 charges by PACMAN v1.1 (https://github.com/mtap-research/PACMAN-charge/)
data_2019[Pb][nan]2[FSR]2
_chemical_formula_sum              "H16 Pb4 C36 O24"
_cell_length_a       10.5004
_cell_length_b       7.1398
_cell_length_c       18.1073
_cell_angle_alpha    90
_cell_angle_beta     112.374
_cell_angle_gamma    90

_symmetry_space_group_name_H-M    "P 1"
_symmetry_Int_Tables_number       1

loop_
  _symmetry_equiv_pos_as_xyz
  'x, y, z'

loop_
  _atom_site_type_symbol
  _atom_site_label
  _atom_site_symmetry_multiplicity
  _atom_site_fract_x
  _atom_site_fract_y
  _atom_site_fract_z
  _atom_site_occupancy
  _atom_site_charge
H   H1        1.0  0.21058  0.70116  0.43527  1.0000 0.1313284186
H   H2        1.0  0.83504  0.69628  0.44384  1.0000 0.1313284186
H   H3        1.0  0.89562  0.46937  0.25645  1.0000 0.1313284186
H   H4        1.0  0.04227  0.87976  0.61044  1.0000 0.3716999066
H   H5        1.0  0.78942  0.20116  0.06473  1.0000 0.1313284186
H   H6        1.0  0.16496  0.19628  0.05616  1.0000 0.1313284186
H   H7        1.0  0.10438  0.96937  0.24355  1.0000 0.1313284186
H   H8        1.0  0.95773  0.37976  0.88956  1.0000 0.3716999066
H   H9        1.0  0.78942  0.29884  0.56473  1.0000 0.1313284186
H   H10       1.0  0.16496  0.30372  0.55616  1.0000 0.1313284186
H   H11       1.0  0.10438  0.53063  0.74355  1.0000 0.1313284186
H   H12       1.0  0.95773  0.12024  0.38956  1.0000 0.3716999066
H   H13       1.0  0.21058  0.79884  0.93527  1.0000 0.1313284186
H   H14       1.0  0.83504  0.80372  0.94384  1.0000 0.1313284186
H   H15       1.0  0.89562  0.03063  0.75645  1.0000 0.1313284186
H   H16       1.0  0.04227  0.62024  0.11044  1.0000 0.3716999066
Pb  Pb1       1.0  0.38404  0.52629  0.22954  1.0000 1.0782923398
Pb  Pb2       1.0  0.61596  0.02629  0.27046  1.0000 1.0782923398
Pb  Pb3       1.0  0.61596  0.47371  0.77046  1.0000 1.0782923398
Pb  Pb4       1.0  0.38404  0.97371  0.72954  1.0000 1.0782923398
C   C1        1.0  0.06610  0.58780  0.33660  1.0000 -0.0094605184
C   C2        1.0  0.11750  0.67160  0.41190  1.0000 -0.0934762566
C   C3        1.0  0.03210  0.71180  0.45250  1.0000 -0.0308938087
C   C4        1.0  0.89370  0.66510  0.41810  1.0000 -0.1112785118
C   C5        1.0  0.84220  0.57210  0.34550  1.0000 -0.0308938087
C   C6        1.0  0.92970  0.53280  0.30490  1.0000 -0.0934762566
C   C7        1.0  0.15820  0.55970  0.29050  1.0000 0.5594843474
C   C8        1.0  0.09460  0.80360  0.53320  1.0000 0.5547406969
C   C9        1.0  0.69140  0.51370  0.30950  1.0000 0.5733779666
C   C10       1.0  0.93390  0.08780  0.16340  1.0000 -0.0094605184
C   C11       1.0  0.88250  0.17160  0.08810  1.0000 -0.0934762566
C   C12       1.0  0.96790  0.21180  0.04750  1.0000 -0.0308938087
C   C13       1.0  0.10630  0.16510  0.08190  1.0000 -0.1112785118
C   C14       1.0  0.15780  0.07210  0.15450  1.0000 -0.0308938087
C   C15       1.0  0.07030  0.03280  0.19510  1.0000 -0.0934762566
C   C16       1.0  0.84180  0.05970  0.20950  1.0000 0.5594843474
C   C17       1.0  0.90540  0.30360  0.96680  1.0000 0.5547406969
C   C18       1.0  0.30860  0.01370  0.19050  1.0000 0.5733779666
C   C19       1.0  0.93390  0.41220  0.66340  1.0000 -0.0094605184
C   C20       1.0  0.88250  0.32840  0.58810  1.0000 -0.0934762566
C   C21       1.0  0.96790  0.28820  0.54750  1.0000 -0.0308938087
C   C22       1.0  0.10630  0.33490  0.58190  1.0000 -0.1112785118
C   C23       1.0  0.15780  0.42790  0.65450  1.0000 -0.0308938087
C   C24       1.0  0.07030  0.46720  0.69510  1.0000 -0.0934762566
C   C25       1.0  0.84180  0.44030  0.70950  1.0000 0.5594843474
C   C26       1.0  0.90540  0.19640  0.46680  1.0000 0.5547406969
C   C27       1.0  0.30860  0.48630  0.69050  1.0000 0.5733779666
C   C28       1.0  0.06610  0.91220  0.83660  1.0000 -0.0094605184
C   C29       1.0  0.11750  0.82840  0.91190  1.0000 -0.0934762566
C   C30       1.0  0.03210  0.78820  0.95250  1.0000 -0.0308938087
C   C31       1.0  0.89370  0.83490  0.91810  1.0000 -0.1112785118
C   C32       1.0  0.84220  0.92790  0.84550  1.0000 -0.0308938087
C   C33       1.0  0.92970  0.96720  0.80490  1.0000 -0.0934762566
C   C34       1.0  0.15820  0.94030  0.79050  1.0000 0.5594843474
C   C35       1.0  0.09460  0.69640  0.03320  1.0000 0.5547406969
C   C36       1.0  0.69140  0.98630  0.80950  1.0000 0.5733779666
O   O1        1.0  0.28580  0.57000  0.32920  1.0000 -0.5103240314
O   O2        1.0  0.10290  0.53020  0.21640  1.0000 -0.571577132
O   O3        1.0  0.65860  0.37400  0.26310  1.0000 -0.5590148496
O   O4        1.0  0.60710  0.61220  0.32820  1.0000 -0.5590148496
O   O5        1.0  0.00420  0.82960  0.56680  1.0000 -0.448192172
O   O6        1.0  0.21440  0.84590  0.56400  1.0000 -0.515196413
O   O7        1.0  0.71420  0.07000  0.17080  1.0000 -0.5103240314
O   O8        1.0  0.89710  0.03020  0.28360  1.0000 -0.571577132
O   O9        1.0  0.34140  0.87400  0.23690  1.0000 -0.5590148496
O   O10       1.0  0.39290  0.11220  0.17180  1.0000 -0.5590148496
O   O11       1.0  0.99580  0.32960  0.93320  1.0000 -0.448192172
O   O12       1.0  0.78560  0.34590  0.93600  1.0000 -0.515196413
O   O13       1.0  0.71420  0.43000  0.67080  1.0000 -0.5103240314
O   O14       1.0  0.89710  0.46980  0.78360  1.0000 -0.571577132
O   O15       1.0  0.34140  0.62600  0.73690  1.0000 -0.5590148496
O   O16       1.0  0.39290  0.38780  0.67180  1.0000 -0.5590148496
O   O17       1.0  0.99580  0.17040  0.43320  1.0000 -0.448192172
O   O18       1.0  0.78560  0.15410  0.43600  1.0000 -0.515196413
O   O19       1.0  0.28580  0.93000  0.82920  1.0000 -0.5103240314
O   O20       1.0  0.10290  0.96980  0.71640  1.0000 -0.571577132
O   O21       1.0  0.65860  0.12600  0.76310  1.0000 -0.5590148496
O   O22       1.0  0.60710  0.88780  0.82820  1.0000 -0.5590148496
O   O23       1.0  0.00420  0.67040  0.06680  1.0000 -0.448192172
O   O24       1.0  0.21440  0.65410  0.06400  1.0000 -0.5103240314
