# DDEC6 charges by PACMAN v1.1 (https://github.com/mtap-research/PACMAN-charge/)
data_2019[Zn][lon]3[FSR]1
_chemical_formula_sum              "Zn2 H26 C20 N10 O8"
_cell_length_a       9.6861
_cell_length_b       8.9799
_cell_length_c       11.4935
_cell_angle_alpha    90
_cell_angle_beta     106.106
_cell_angle_gamma    90

_symmetry_space_group_name_H-M    "P 1"
_symmetry_Int_Tables_number       1

loop_
  _symmetry_equiv_pos_as_xyz
  'x, y, z'

loop_
  _atom_site_type_symbol
  _atom_site_label
  _atom_site_symmetry_multiplicity
  _atom_site_fract_x
  _atom_site_fract_y
  _atom_site_fract_z
  _atom_site_occupancy
  _atom_site_charge
Zn  Zn1       1.0  0.79778  0.59167  0.92463  1.0000 0.7078568776
Zn  Zn2       1.0  0.20222  0.09167  0.07537  1.0000 0.7078568776
H   H1        1.0  0.39640  0.60670  0.08950  1.0000 0.2771321376
H   H2        1.0  0.61830  0.46120  0.76380  1.0000 0.26747319
H   H3        1.0  0.75060  0.46780  0.72700  1.0000 0.26747319
H   H4        1.0  0.50020  0.72260  0.44950  1.0000 0.2771321376
H   H5        1.0  0.09870  0.59510  0.85290  1.0000 0.1247679432
H   H6        1.0  0.92960  0.90260  0.01940  1.0000 0.095233201
H   H7        1.0  0.34330  0.70790  0.86410  1.0000 0.1300345227
H   H8        1.0  0.33750  0.88570  0.86390  1.0000 0.1300345227
H   H9        1.0  0.57170  0.50130  0.31060  1.0000 0.1300345227
H   H10       1.0  0.40290  0.53150  0.28720  1.0000 0.1300345227
H   H11       1.0  0.46210  0.89970  0.06680  1.0000 0.0921019343
H   H12       1.0  0.52910  0.66320  0.66960  1.0000 0.1300345227
H   H13       1.0  0.68340  0.71030  0.65600  1.0000 0.1300345227
H   H14       1.0  0.60360  0.10670  0.91050  1.0000 0.2771321376
H   H15       1.0  0.38170  0.96120  0.23620  1.0000 0.26747319
H   H16       1.0  0.24940  0.96780  0.27300  1.0000 0.26747319
H   H17       1.0  0.49980  0.22260  0.55050  1.0000 0.2771321376
H   H18       1.0  0.90130  0.09510  0.14710  1.0000 0.1247679432
H   H19       1.0  0.07040  0.40260  0.98060  1.0000 0.095233201
H   H20       1.0  0.65670  0.20790  0.13590  1.0000 0.1300345227
H   H21       1.0  0.66250  0.38570  0.13610  1.0000 0.1300345227
H   H22       1.0  0.42830  0.00130  0.68940  1.0000 0.1300345227
H   H23       1.0  0.59710  0.03150  0.71280  1.0000 0.1300345227
H   H24       1.0  0.53790  0.39970  0.93320  1.0000 0.0921019343
H   H25       1.0  0.47090  0.16320  0.33040  1.0000 0.1300345227
H   H26       1.0  0.31660  0.21030  0.34400  1.0000 0.1300345227
C   C1        1.0  0.08660  0.68240  0.89570  1.0000 -0.1523206095
C   C2        1.0  0.58480  0.54660  0.53270  1.0000 0.4898021062
C   C3        1.0  0.99480  0.84980  0.98610  1.0000 0.1427475353
C   C4        1.0  0.59770  0.78190  0.98720  1.0000 0.5586098869
C   C5        1.0  0.33250  0.79600  0.91270  1.0000 -0.2939528088
C   C6        1.0  0.49930  0.57780  0.31430  1.0000 -0.1957699667
C   C7        1.0  0.18640  0.79040  0.93430  1.0000 0.1789104183
C   C8        1.0  0.45990  0.79960  0.02820  1.0000 0.006211265
C   C9        1.0  0.61920  0.62460  0.65610  1.0000 -0.1790200929
C   C10       1.0  0.50860  0.70790  0.23080  1.0000 0.482823207
C   C11       1.0  0.91340  0.18240  0.10430  1.0000 -0.1523206095
C   C12       1.0  0.41520  0.04660  0.46730  1.0000 0.4898021062
C   C13       1.0  0.00520  0.34980  0.01390  1.0000 0.1427475353
C   C14       1.0  0.40230  0.28190  0.01280  1.0000 0.5586098869
C   C15       1.0  0.66750  0.29600  0.08730  1.0000 -0.2939528088
C   C16       1.0  0.50070  0.07780  0.68570  1.0000 -0.1957699667
C   C17       1.0  0.81360  0.29040  0.06570  1.0000 0.1789104183
C   C18       1.0  0.54010  0.29960  0.97180  1.0000 0.006211265
C   C19       1.0  0.38080  0.12460  0.34390  1.0000 -0.1790200929
C   C20       1.0  0.49140  0.20790  0.76920  1.0000 0.482823207
N   N1        1.0  0.44630  0.68810  0.11450  1.0000 -0.3493065397
N   N2        1.0  0.68820  0.52410  0.75460  1.0000 -0.4918758507
N   N3        1.0  0.12900  0.89860  0.99190  1.0000 -0.3699845831
N   N4        1.0  0.96420  0.72000  0.92880  1.0000 -0.29565172
N   N5        1.0  0.52510  0.63090  0.43750  1.0000 -0.3073765497
N   N6        1.0  0.55370  0.18810  0.88550  1.0000 -0.3493065397
N   N7        1.0  0.31180  0.02410  0.24540  1.0000 -0.4918758507
N   N8        1.0  0.87100  0.39860  0.00810  1.0000 -0.3699845831
N   N9        1.0  0.03580  0.22000  0.07120  1.0000 -0.29565172
N   N10       1.0  0.47490  0.13090  0.56250  1.0000 -0.3073765497
O   O1        1.0  0.65400  0.65260  0.00530  1.0000 -0.5346490304
O   O2        1.0  0.57050  0.82390  0.27380  1.0000 -0.4918758507
O   O3        1.0  0.61390  0.41400  0.52540  1.0000 -0.5216666023
O   O4        1.0  0.64100  0.88600  0.93660  1.0000 -0.5650319616
O   O5        1.0  0.34600  0.15260  0.99470  1.0000 -0.5346490304
O   O6        1.0  0.42950  0.32390  0.72620  1.0000 -0.4918758507
O   O7        1.0  0.38610  0.91400  0.47460  1.0000 -0.5216666023
O   O8        1.0  0.35900  0.38600  0.06340  1.0000 -0.5650319616
