# DDEC6 charges by PACMAN v1.1 (https://github.com/mtap-research/PACMAN-charge/)
data_2019[CuSi][pcu]2[FSR]1
_chemical_formula_sum              "Cu2 Si2 H32 C48 N24 F20"
_cell_length_a       11.4308
_cell_length_b       11.4308
_cell_length_c       21.317
_cell_angle_alpha    89.986
_cell_angle_beta     90.014
_cell_angle_gamma    138.265

_symmetry_space_group_name_H-M    "P 1"
_symmetry_Int_Tables_number       1

loop_
  _symmetry_equiv_pos_as_xyz
  'x, y, z'

loop_
  _atom_site_type_symbol
  _atom_site_label
  _atom_site_symmetry_multiplicity
  _atom_site_fract_x
  _atom_site_fract_y
  _atom_site_fract_z
  _atom_site_occupancy
  _atom_site_charge
Cu  Cu1       1.0  0.21997  0.21997  0.25000  1.0000 0.5865192382
Cu  Cu2       1.0  0.78003  0.78003  0.75000  1.0000 0.5865192382
Si  Si1       1.0  0.72266  0.72266  0.25000  1.0000 0.9480463236
Si  Si2       1.0  0.27734  0.27734  0.75000  1.0000 0.9480463236
H   H1        1.0  0.14450  0.91750  0.28760  1.0000 0.0795752065
H   H2        1.0  0.23670  0.84970  0.36110  1.0000 0.1210036694
H   H3        1.0  0.53050  0.32170  0.44300  1.0000 0.1210036694
H   H4        1.0  0.44080  0.38200  0.36590  1.0000 0.0795752065
H   H5        1.0  0.93140  0.04980  0.34310  1.0000 0.0795752065
H   H6        1.0  0.85880  0.13040  0.41970  1.0000 0.1139753784
H   H7        1.0  0.29850  0.64030  0.37660  1.0000 0.1139753784
H   H8        1.0  0.36320  0.54920  0.30150  1.0000 0.0795752065
H   H9        1.0  0.91750  0.14450  0.21240  1.0000 0.0795752065
H   H10       1.0  0.84970  0.23670  0.13890  1.0000 0.1210036694
H   H11       1.0  0.32170  0.53050  0.05700  1.0000 0.1210036694
H   H12       1.0  0.38200  0.44080  0.13410  1.0000 0.0795752065
H   H13       1.0  0.04980  0.93140  0.15690  1.0000 0.0795752065
H   H14       1.0  0.13040  0.85880  0.08030  1.0000 0.1139753784
H   H15       1.0  0.64030  0.29850  0.12340  1.0000 0.1139753784
H   H16       1.0  0.54920  0.36320  0.19850  1.0000 0.0795752065
H   H17       1.0  0.85550  0.08250  0.71240  1.0000 0.0795752065
H   H18       1.0  0.76330  0.15030  0.63890  1.0000 0.1210036694
H   H19       1.0  0.46950  0.67830  0.55700  1.0000 0.1210036694
H   H20       1.0  0.55920  0.61800  0.63410  1.0000 0.0795752065
H   H21       1.0  0.06860  0.95020  0.65690  1.0000 0.0795752065
H   H22       1.0  0.14120  0.86960  0.58030  1.0000 0.1139753784
H   H23       1.0  0.70150  0.35970  0.62340  1.0000 0.1139753784
H   H24       1.0  0.63680  0.45080  0.69850  1.0000 0.0795752065
H   H25       1.0  0.08250  0.85550  0.78760  1.0000 0.0795752065
H   H26       1.0  0.15030  0.76330  0.86110  1.0000 0.1210036694
H   H27       1.0  0.67830  0.46950  0.94300  1.0000 0.1210036694
H   H28       1.0  0.61800  0.55920  0.86590  1.0000 0.0795752065
H   H29       1.0  0.95020  0.06860  0.84310  1.0000 0.0795752065
H   H30       1.0  0.86960  0.14120  0.91970  1.0000 0.1139753784
H   H31       1.0  0.35970  0.70150  0.87660  1.0000 0.1139753784
H   H32       1.0  0.45080  0.63680  0.80150  1.0000 0.0795752065
C   C1        1.0  0.22619  0.00161  0.31896  1.0000 0.0795752065
C   C2        1.0  0.27800  0.95880  0.36320  1.0000 -0.1589896606
C   C3        1.0  0.39030  0.07710  0.41000  1.0000 0.0535882121
C   C4        1.0  0.45230  0.23790  0.41106  1.0000 -0.1679632039
C   C5        1.0  0.39810  0.27210  0.36515  1.0000 0.0705069235
C   C6        1.0  0.45070  0.03750  0.45780  1.0000 0.2325839369
C   C7        1.0  0.00720  0.17100  0.35041  1.0000 0.0705069235
C   C8        1.0  0.96420  0.21860  0.39630  1.0000 -0.1589896606
C   C9        1.0  0.07410  0.39510  0.40870  1.0000 0.0535882121
C   C10       1.0  0.22280  0.51860  0.37110  1.0000 -0.1679632039
C   C11       1.0  0.25978  0.46342  0.32600  1.0000 0.0795752065
C   C12       1.0  0.03220  0.45020  0.45750  1.0000 0.2546178071
C   C13       1.0  0.00161  0.22619  0.18104  1.0000 0.0795752065
C   C14       1.0  0.95880  0.27800  0.13680  1.0000 -0.1589896606
C   C15       1.0  0.07710  0.39030  0.09000  1.0000 0.0535882121
C   C16       1.0  0.23790  0.45230  0.08894  1.0000 -0.1679632039
C   C17       1.0  0.27210  0.39810  0.13485  1.0000 0.0705069235
C   C18       1.0  0.03750  0.45070  0.04220  1.0000 0.2325839369
C   C19       1.0  0.17100  0.00720  0.14959  1.0000 0.0705069235
C   C20       1.0  0.21860  0.96420  0.10370  1.0000 -0.1679632039
C   C21       1.0  0.39510  0.07410  0.09130  1.0000 0.0535882121
C   C22       1.0  0.51860  0.22280  0.12890  1.0000 -0.1679632039
C   C23       1.0  0.46342  0.25978  0.17400  1.0000 0.0795752065
C   C24       1.0  0.45020  0.03220  0.04250  1.0000 0.2546178071
C   C25       1.0  0.77381  0.99839  0.68104  1.0000 0.0795752065
C   C26       1.0  0.72200  0.04120  0.63680  1.0000 -0.1589896606
C   C27       1.0  0.60970  0.92290  0.59000  1.0000 0.0535882121
C   C28       1.0  0.54770  0.76210  0.58894  1.0000 -0.1679632039
C   C29       1.0  0.60190  0.72790  0.63485  1.0000 0.0705069235
C   C30       1.0  0.54930  0.96250  0.54220  1.0000 0.2325839369
C   C31       1.0  0.99280  0.82900  0.64959  1.0000 0.0705069235
C   C32       1.0  0.03580  0.78140  0.60370  1.0000 -0.1679632039
C   C33       1.0  0.92590  0.60490  0.59130  1.0000 0.0535882121
C   C34       1.0  0.77720  0.48140  0.62890  1.0000 -0.1679632039
C   C35       1.0  0.74022  0.53658  0.67400  1.0000 0.0795752065
C   C36       1.0  0.96780  0.54980  0.54250  1.0000 0.2546178071
C   C37       1.0  0.99839  0.77381  0.81896  1.0000 0.0795752065
C   C38       1.0  0.04120  0.72200  0.86320  1.0000 -0.1589896606
C   C39       1.0  0.92290  0.60970  0.91000  1.0000 0.0535882121
C   C40       1.0  0.76210  0.54770  0.91106  1.0000 -0.1679632039
C   C41       1.0  0.72790  0.60190  0.86515  1.0000 0.0705069235
C   C42       1.0  0.96250  0.54930  0.95780  1.0000 0.2325839369
C   C43       1.0  0.82900  0.99280  0.85041  1.0000 0.0705069235
C   C44       1.0  0.78140  0.03580  0.89630  1.0000 -0.1589896606
C   C45       1.0  0.60490  0.92590  0.90870  1.0000 0.0535882121
C   C46       1.0  0.48140  0.77720  0.87110  1.0000 -0.1679632039
C   C47       1.0  0.53658  0.74022  0.82600  1.0000 0.0795752065
C   C48       1.0  0.54980  0.96780  0.95750  1.0000 0.2546178071
N   N1        1.0  0.28650  0.15770  0.31830  1.0000 -0.250910438
N   N2        1.0  0.49069  0.95731  0.43932  1.0000 -0.1511375563
N   N3        1.0  0.45830  0.08030  0.51820  1.0000 -0.1589896606
N   N4        1.0  0.15440  0.29220  0.31550  1.0000 -0.250910438
N   N5        1.0  0.90040  0.32740  0.49550  1.0000 -0.1989561518
N   N6        1.0  0.13390  0.61930  0.45960  1.0000 -0.1989561518
N   N7        1.0  0.15770  0.28650  0.18170  1.0000 -0.250910438
N   N8        1.0  0.95731  0.49069  0.06068  1.0000 -0.1511375563
N   N9        1.0  0.08030  0.45830  0.98180  1.0000 -0.1589896606
N   N10       1.0  0.29220  0.15440  0.18450  1.0000 -0.250910438
N   N11       1.0  0.32740  0.90040  0.00450  1.0000 -0.1989561518
N   N12       1.0  0.61930  0.13390  0.04040  1.0000 -0.1989561518
N   N13       1.0  0.71350  0.84230  0.68170  1.0000 -0.250910438
N   N14       1.0  0.50931  0.04269  0.56068  1.0000 -0.1511375563
N   N15       1.0  0.54170  0.91970  0.48180  1.0000 -0.1589896606
N   N16       1.0  0.84560  0.70780  0.68450  1.0000 -0.250910438
N   N17       1.0  0.09960  0.67260  0.50450  1.0000 -0.1989561518
N   N18       1.0  0.86610  0.38070  0.54040  1.0000 -0.1989561518
N   N19       1.0  0.84230  0.71350  0.81830  1.0000 -0.250910438
N   N20       1.0  0.04269  0.50931  0.93932  1.0000 -0.1511375563
N   N21       1.0  0.91970  0.54170  0.01820  1.0000 -0.1589896606
N   N22       1.0  0.70780  0.84560  0.81550  1.0000 -0.250910438
N   N23       1.0  0.67260  0.09960  0.99550  1.0000 -0.1989561518
N   N24       1.0  0.38070  0.86610  0.95960  1.0000 -0.1989561518
F   F1        1.0  0.64280  0.79600  0.23590  1.0000 -0.0309489273
F   F2        1.0  0.70470  0.73510  0.32622  1.0000 -0.0309489273
F   F3        1.0  0.78040  0.67240  0.30590  1.0000 -0.0369099317
F   F4        1.0  0.67150  0.78550  0.30340  1.0000 -0.0178639831
F   F5        1.0  0.79600  0.64280  0.26410  1.0000 -0.0309489273
F   F6        1.0  0.73510  0.70470  0.17378  1.0000 -0.0309489273
F   F7        1.0  0.67240  0.78040  0.19410  1.0000 -0.0369099317
F   F8        1.0  0.78550  0.67150  0.19660  1.0000 -0.0178639831
F   F9        1.0  0.35720  0.20400  0.76410  1.0000 -0.0309489273
F   F10       1.0  0.29530  0.26490  0.67378  1.0000 -0.0309489273
F   F11       1.0  0.21960  0.32760  0.69410  1.0000 -0.0369099317
F   F12       1.0  0.32850  0.21450  0.69660  1.0000 -0.0178639831
F   F13       1.0  0.20400  0.35720  0.73590  1.0000 -0.0309489273
F   F14       1.0  0.26490  0.29530  0.82622  1.0000 -0.0309489273
F   F15       1.0  0.32760  0.21960  0.80590  1.0000 -0.0369099317
F   F16       1.0  0.21450  0.32850  0.80340  1.0000 -0.0178639831
F   F17       1.0  0.93060  0.93060  0.25000  1.0000 -0.4538175197
F   F18       1.0  0.51350  0.51350  0.25000  1.0000 -0.4752566547
F   F19       1.0  0.06940  0.06940  0.75000  1.0000 -0.4563070269
F   F20       1.0  0.48650  0.48650  0.75000  1.0000 -0.4752566547
