# DDEC6 charges by PACMAN v1.1 (https://github.com/mtap-research/PACMAN-charge/)
data_2019[Sm][nan]2[FSR]1
_chemical_formula_sum              "Sm2 H34 C22 N4 O18"
_cell_length_a       6.6188
_cell_length_b       10.5316
_cell_length_c       13.3717
_cell_angle_alpha    97.078
_cell_angle_beta     98.488
_cell_angle_gamma    97.505

_symmetry_space_group_name_H-M    "P 1"
_symmetry_Int_Tables_number       1

loop_
  _symmetry_equiv_pos_as_xyz
  'x, y, z'

loop_
  _atom_site_type_symbol
  _atom_site_label
  _atom_site_symmetry_multiplicity
  _atom_site_fract_x
  _atom_site_fract_y
  _atom_site_fract_z
  _atom_site_occupancy
  _atom_site_charge
Sm  Sm1       1.0  0.07078  0.39837  0.12852  1.0000 2.0338115061
Sm  Sm2       1.0  0.92922  0.60163  0.87148  1.0000 2.0338115061
H   H1        1.0  0.77938  0.47384  0.35451  1.0000 0.1509355271
H   H2        1.0  0.63686  0.33563  0.33697  1.0000 0.1509355271
H   H3        1.0  0.20840  0.33711  0.37121  1.0000 0.1407383844
H   H4        1.0  0.04681  0.37991  0.44224  1.0000 0.1407383844
H   H5        1.0  0.27078  0.02141  0.23690  1.0000 0.1407383844
H   H6        1.0  0.12872  0.92837  0.14179  1.0000 0.1600795837
H   H7        1.0  0.32674  0.76883  0.21884  1.0000 0.1725971812
H   H8        1.0  0.51210  0.73731  0.15957  1.0000 0.1600795837
H   H9        1.0  0.82902  0.17514  0.36520  1.0000 0.107378198
H   H10       1.0  0.99176  0.14499  0.29115  1.0000 0.107378198
H   H11       1.0  0.56872  0.16641  0.21804  1.0000 0.107378198
H   H12       1.0  0.73181  0.13033  0.14590  1.0000 0.1281502398
H   H13       1.0  0.74681  0.93266  0.20608  1.0000 0.1281502398
H   H14       1.0  0.61033  0.97032  0.29146  1.0000 0.107378198
H   H15       1.0  0.46493  0.92552  0.07631  1.0000 0.2614700163
H   H16       1.0  0.33256  0.41807  0.96946  1.0000 0.3971389795
H   H17       1.0  0.35145  0.29112  0.00000  1.0000 0.3786487544
H   H18       1.0  0.22062  0.52616  0.64549  1.0000 0.1509355271
H   H19       1.0  0.36314  0.66437  0.66303  1.0000 0.1509355271
H   H20       1.0  0.79160  0.66289  0.62879  1.0000 0.1407383844
H   H21       1.0  0.95319  0.62009  0.55776  1.0000 0.1407383844
H   H22       1.0  0.72922  0.97859  0.76310  1.0000 0.1407383844
H   H23       1.0  0.87128  0.07163  0.85821  1.0000 0.1600795837
H   H24       1.0  0.67326  0.23117  0.78116  1.0000 0.1725971812
H   H25       1.0  0.48790  0.26269  0.84043  1.0000 0.1600795837
H   H26       1.0  0.17098  0.82486  0.63480  1.0000 0.107378198
H   H27       1.0  0.00824  0.85501  0.70885  1.0000 0.107378198
H   H28       1.0  0.43128  0.83359  0.78196  1.0000 0.107378198
H   H29       1.0  0.26819  0.86967  0.85410  1.0000 0.1281502398
H   H30       1.0  0.25319  0.06734  0.79392  1.0000 0.1281502398
H   H31       1.0  0.38967  0.02968  0.70854  1.0000 0.107378198
H   H32       1.0  0.53507  0.07448  0.92369  1.0000 0.2614700163
H   H33       1.0  0.66744  0.58193  0.03054  1.0000 0.3971389795
H   H34       1.0  0.64855  0.70888  0.00000  1.0000 0.3786487544
C   C1        1.0  0.73330  0.39280  0.30600  1.0000 -0.3004374838
C   C2        1.0  0.61810  0.42460  0.20770  1.0000 0.6728437508
C   C3        1.0  0.09110  0.38590  0.37520  1.0000 -0.3004374838
C   C4        1.0  0.15960  0.52610  0.36640  1.0000 0.6308442021
C   C5        1.0  0.25940  0.98950  0.16320  1.0000 -0.275901798
C   C6        1.0  0.25170  0.10350  0.10340  1.0000 0.6482894385
C   C7        1.0  0.38520  0.77810  0.15560  1.0000 -0.2748223777
C   C8        1.0  0.23040  0.71130  0.06400  1.0000 0.6645942295
C   C9        1.0  0.86780  0.18670  0.29780  1.0000 -0.0890668871
C   C10       1.0  0.69040  0.12180  0.21320  1.0000 -0.2333929276
C   C11       1.0  0.63180  0.97950  0.22080  1.0000 -0.0890668871
C   C12       1.0  0.26670  0.60720  0.69400  1.0000 -0.3004374838
C   C13       1.0  0.38190  0.57540  0.79230  1.0000 0.6728437508
C   C14       1.0  0.90890  0.61410  0.62480  1.0000 -0.3004374838
C   C15       1.0  0.84040  0.47390  0.63360  1.0000 0.6308442021
C   C16       1.0  0.74060  0.01050  0.83680  1.0000 -0.2748223777
C   C17       1.0  0.74830  0.89650  0.89660  1.0000 0.6482894385
C   C18       1.0  0.61480  0.22190  0.84440  1.0000 -0.2748223777
C   C19       1.0  0.76960  0.28870  0.93600  1.0000 0.6645942295
C   C20       1.0  0.13220  0.81330  0.70220  1.0000 -0.0890668871
C   C21       1.0  0.30960  0.87820  0.78680  1.0000 -0.2333929276
C   C22       1.0  0.36820  0.02050  0.77920  1.0000 -0.0890668871
N   N1        1.0  0.91690  0.32800  0.29180  1.0000 -0.1437613031
N   N2        1.0  0.43750  0.91900  0.14720  1.0000 0.043163106
N   N3        1.0  0.08310  0.67200  0.70820  1.0000 -0.1437613031
N   N4        1.0  0.56250  0.08100  0.85280  1.0000 0.043163106
O   O1        1.0  0.43060  0.43440  0.20500  1.0000 -0.6580961978
O   O2        1.0  0.71880  0.44290  0.13610  1.0000 -0.667425934
O   O3        1.0  0.12630  0.56090  0.27840  1.0000 -0.685106579
O   O4        1.0  0.24690  0.59810  0.44590  1.0000 -0.5521162188
O   O5        1.0  0.16250  0.19140  0.14190  1.0000 -0.6829379236
O   O6        1.0  0.33140  0.10220  0.02410  1.0000 -0.5521162188
O   O7        1.0  0.18250  0.77210  0.99280  1.0000 -0.6021646893
O   O8        1.0  0.15780  0.59360  0.06260  1.0000 -0.7261303103
O   O9        1.0  0.25980  0.34510  0.98370  1.0000 -0.8010183012
O   O10       1.0  0.56940  0.56560  0.79500  1.0000 -0.6580961978
O   O11       1.0  0.28120  0.55710  0.86390  1.0000 -0.667425934
O   O12       1.0  0.87370  0.43910  0.72160  1.0000 -0.685106579
O   O13       1.0  0.75310  0.40190  0.55410  1.0000 -0.5521162188
O   O14       1.0  0.83750  0.80860  0.85810  1.0000 -0.6829379236
O   O15       1.0  0.66860  0.89780  0.97590  1.0000 -0.5521162188
O   O16       1.0  0.81750  0.22790  0.00720  1.0000 -0.6021646893
O   O17       1.0  0.84220  0.40640  0.93740  1.0000 -0.7261303103
O   O18       1.0  0.74020  0.65490  0.01630  1.0000 -0.8010183012
