# DDEC6 charges by PACMAN v1.1 (https://github.com/mtap-research/PACMAN-charge/)
data_2019[Co][nan]3[FSR]13
_chemical_formula_sum              "Co6 H116 C164 N28 O28"
_cell_length_a       8.3374
_cell_length_b       28.9847
_cell_length_c       18.8063
_cell_angle_alpha    90
_cell_angle_beta     94.261
_cell_angle_gamma    90

_symmetry_space_group_name_H-M    "P 1"
_symmetry_Int_Tables_number       1

loop_
  _symmetry_equiv_pos_as_xyz
  'x, y, z'

loop_
  _atom_site_type_symbol
  _atom_site_label
  _atom_site_symmetry_multiplicity
  _atom_site_fract_x
  _atom_site_fract_y
  _atom_site_fract_z
  _atom_site_occupancy
  _atom_site_charge
Co  Co1       1.0  0.97402  0.24481  0.27515  1.0000 0.7911407257
Co  Co2       1.0  0.02598  0.74481  0.22485  1.0000 0.7911407257
Co  Co3       1.0  0.02598  0.75519  0.72485  1.0000 0.7911407257
Co  Co4       1.0  0.97402  0.25519  0.77515  1.0000 0.7911407257
Co  Co5       1.0  0.00000  0.50000  0.00000  1.0000 0.9327360893
Co  Co6       1.0  0.00000  0.00000  0.50000  1.0000 0.9327360893
H   H1        1.0  0.62180  0.59390  0.54560  1.0000 0.2751952613
H   H2        1.0  0.69070  0.44070  0.97240  1.0000 0.1034448555
H   H3        1.0  0.78640  0.51700  0.14140  1.0000 0.121045596
H   H4        1.0  0.55570  0.46960  0.16480  1.0000 0.129799431
H   H5        1.0  0.41570  0.41450  0.94880  1.0000 0.129799431
H   H6        1.0  0.21290  0.30200  0.02780  1.0000 0.129799431
H   H7        1.0  0.49030  0.38380  0.15760  1.0000 0.1385083364
H   H8        1.0  0.52520  0.30320  0.22140  1.0000 0.1385083364
H   H9        1.0  0.36540  0.25930  0.30180  1.0000 0.129799431
H   H10       1.0  0.07030  0.30150  0.14420  1.0000 0.121045596
H   H11       1.0  0.11900  0.28570  0.92210  1.0000 0.121045596
H   H12       1.0  0.29470  0.39770  0.84300  1.0000 0.121045596
H   H13       1.0  0.14680  0.35500  0.74910  1.0000 0.129799431
H   H14       1.0  0.83820  0.61280  0.76790  1.0000 0.1120340595
H   H15       1.0  0.76720  0.60720  0.64800  1.0000 0.1120340595
H   H16       1.0  0.74800  0.47070  0.66530  1.0000 0.1120340595
H   H17       1.0  0.80580  0.47670  0.78670  1.0000 0.121045596
H   H18       1.0  0.81410  0.47060  0.55750  1.0000 0.129799431
H   H19       1.0  0.64210  0.52070  0.37190  1.0000 0.129799431
H   H20       1.0  0.61300  0.58640  0.31610  1.0000 0.1120340595
H   H21       1.0  0.46160  0.63980  0.25000  1.0000 0.1120340595
H   H22       1.0  0.25060  0.67640  0.42360  1.0000 0.129799431
H   H23       1.0  0.40140  0.62330  0.48990  1.0000 0.1120340595
H   H24       1.0  0.62960  0.45240  0.33690  1.0000 0.1120340595
H   H25       1.0  0.68420  0.38160  0.28750  1.0000 0.1120340595
H   H26       1.0  0.00180  0.35490  0.45000  1.0000 0.121045596
H   H27       1.0  0.94730  0.42490  0.50040  1.0000 0.1120340595
H   H28       1.0  0.96940  0.58740  0.99500  1.0000 0.3557010794
H   H29       1.0  0.06810  0.58670  0.05840  1.0000 0.3298546503
H   H30       1.0  0.37820  0.09390  0.95440  1.0000 0.2748518491
H   H31       1.0  0.30930  0.94070  0.52760  1.0000 0.1034448555
H   H32       1.0  0.21360  0.01700  0.35860  1.0000 0.121045596
H   H33       1.0  0.44430  0.96960  0.33520  1.0000 0.129799431
H   H34       1.0  0.58430  0.91450  0.55120  1.0000 0.129799431
H   H35       1.0  0.78710  0.80200  0.47220  1.0000 0.129799431
H   H36       1.0  0.50970  0.88380  0.34240  1.0000 0.1385083364
H   H37       1.0  0.47480  0.80320  0.27860  1.0000 0.1385083364
H   H38       1.0  0.63460  0.75930  0.19820  1.0000 0.129799431
H   H39       1.0  0.92970  0.80150  0.35580  1.0000 0.121045596
H   H40       1.0  0.88100  0.78570  0.57790  1.0000 0.121045596
H   H41       1.0  0.70530  0.89770  0.65700  1.0000 0.121045596
H   H42       1.0  0.85320  0.85500  0.75090  1.0000 0.129799431
H   H43       1.0  0.16180  0.11280  0.73210  1.0000 0.1120340595
H   H44       1.0  0.23280  0.10720  0.85200  1.0000 0.1120340595
H   H45       1.0  0.25200  0.97070  0.83470  1.0000 0.1120340595
H   H46       1.0  0.19420  0.97670  0.71330  1.0000 0.121045596
H   H47       1.0  0.18590  0.97060  0.94250  1.0000 0.129799431
H   H48       1.0  0.35790  0.02070  0.12810  1.0000 0.129799431
H   H49       1.0  0.38700  0.08640  0.18390  1.0000 0.1120340595
H   H50       1.0  0.53840  0.13980  0.25000  1.0000 0.1120340595
H   H51       1.0  0.74940  0.17640  0.07640  1.0000 0.121045596
H   H52       1.0  0.59860  0.12330  0.01010  1.0000 0.1120340595
H   H53       1.0  0.37040  0.95240  0.16310  1.0000 0.1120340595
H   H54       1.0  0.31580  0.88160  0.21250  1.0000 0.1120340595
H   H55       1.0  0.99820  0.85490  0.05000  1.0000 0.121045596
H   H56       1.0  0.05270  0.92490  0.99960  1.0000 0.1120340595
H   H57       1.0  0.03060  0.08740  0.50500  1.0000 0.3547309542
H   H58       1.0  0.93190  0.08670  0.44160  1.0000 0.3298546503
H   H59       1.0  0.37820  0.40610  0.45440  1.0000 0.2748518491
H   H60       1.0  0.30930  0.55930  0.02760  1.0000 0.1034448555
H   H61       1.0  0.21360  0.48300  0.85860  1.0000 0.121045596
H   H62       1.0  0.44430  0.53040  0.83520  1.0000 0.129799431
H   H63       1.0  0.58430  0.58550  0.05120  1.0000 0.129799431
H   H64       1.0  0.78710  0.69800  0.97220  1.0000 0.129799431
H   H65       1.0  0.50970  0.61620  0.84240  1.0000 0.1385083364
H   H66       1.0  0.47480  0.69680  0.77860  1.0000 0.1385083364
H   H67       1.0  0.63460  0.74070  0.69820  1.0000 0.129799431
H   H68       1.0  0.92970  0.69850  0.85580  1.0000 0.121045596
H   H69       1.0  0.88100  0.71430  0.07790  1.0000 0.121045596
H   H70       1.0  0.70530  0.60230  0.15700  1.0000 0.121045596
H   H71       1.0  0.85320  0.64500  0.25090  1.0000 0.129799431
H   H72       1.0  0.16180  0.38720  0.23210  1.0000 0.1120340595
H   H73       1.0  0.23280  0.39280  0.35200  1.0000 0.1120340595
H   H74       1.0  0.25200  0.52930  0.33470  1.0000 0.1120340595
H   H75       1.0  0.19420  0.52330  0.21330  1.0000 0.121045596
H   H76       1.0  0.18590  0.52940  0.44250  1.0000 0.129799431
H   H77       1.0  0.35790  0.47930  0.62810  1.0000 0.129799431
H   H78       1.0  0.38700  0.41360  0.68390  1.0000 0.1120340595
H   H79       1.0  0.53840  0.36020  0.75000  1.0000 0.1120340595
H   H80       1.0  0.74940  0.32360  0.57640  1.0000 0.121045596
H   H81       1.0  0.59860  0.37670  0.51010  1.0000 0.1120340595
H   H82       1.0  0.37040  0.54760  0.66310  1.0000 0.1120340595
H   H83       1.0  0.31580  0.61840  0.71250  1.0000 0.1120340595
H   H84       1.0  0.99820  0.64510  0.55000  1.0000 0.121045596
H   H85       1.0  0.05270  0.57510  0.49960  1.0000 0.1120340595
H   H86       1.0  0.03060  0.41260  0.00500  1.0000 0.3547309542
H   H87       1.0  0.93190  0.41330  0.94160  1.0000 0.3298546503
H   H88       1.0  0.62180  0.90610  0.04560  1.0000 0.2748518491
H   H89       1.0  0.69070  0.05930  0.47240  1.0000 0.1034448555
H   H90       1.0  0.78640  0.98300  0.64140  1.0000 0.121045596
H   H91       1.0  0.55570  0.03040  0.66480  1.0000 0.129799431
H   H92       1.0  0.41570  0.08550  0.44880  1.0000 0.129799431
H   H93       1.0  0.21290  0.19800  0.52780  1.0000 0.129799431
H   H94       1.0  0.49030  0.11620  0.65760  1.0000 0.1385083364
H   H95       1.0  0.52520  0.19680  0.72140  1.0000 0.1385083364
H   H96       1.0  0.36540  0.24070  0.80180  1.0000 0.129799431
H   H97       1.0  0.07030  0.19850  0.64420  1.0000 0.121045596
H   H98       1.0  0.11900  0.21430  0.42210  1.0000 0.121045596
H   H99       1.0  0.29470  0.10230  0.34300  1.0000 0.121045596
H   H100      1.0  0.14680  0.14500  0.24910  1.0000 0.129799431
H   H101      1.0  0.83820  0.88720  0.26790  1.0000 0.1120340595
H   H102      1.0  0.76720  0.89280  0.14800  1.0000 0.1120340595
H   H103      1.0  0.74800  0.02930  0.16530  1.0000 0.1120340595
H   H104      1.0  0.80580  0.02330  0.28670  1.0000 0.121045596
H   H105      1.0  0.81410  0.02940  0.05750  1.0000 0.129799431
H   H106      1.0  0.64210  0.97930  0.87190  1.0000 0.129799431
H   H107      1.0  0.61300  0.91360  0.81610  1.0000 0.1120340595
H   H108      1.0  0.46160  0.86020  0.75000  1.0000 0.1120340595
H   H109      1.0  0.25060  0.82360  0.92360  1.0000 0.129799431
H   H110      1.0  0.40140  0.87670  0.98990  1.0000 0.1120340595
H   H111      1.0  0.62960  0.04760  0.83690  1.0000 0.1120340595
H   H112      1.0  0.68420  0.11840  0.78750  1.0000 0.1120340595
H   H113      1.0  0.00180  0.14510  0.95000  1.0000 0.121045596
H   H114      1.0  0.94730  0.07510  0.00040  1.0000 0.1120340595
H   H115      1.0  0.96940  0.91260  0.49500  1.0000 0.3547309542
H   H116      1.0  0.06810  0.91330  0.55840  1.0000 0.3298546503
C   C1        1.0  0.68690  0.45371  0.01750  1.0000 0.0919675863
C   C2        1.0  0.73820  0.49525  0.11030  1.0000 -0.0361522773
C   C3        1.0  0.88820  0.31680  0.32950  1.0000 0.5423354859
C   C4        1.0  0.61060  0.46948  0.12350  1.0000 -0.1090877263
C   C5        1.0  0.47030  0.40468  0.05440  1.0000 0.2123646791
C   C6        1.0  0.39960  0.39501  0.98700  1.0000 -0.2596233433
C   C7        1.0  0.30530  0.35616  0.97740  1.0000 0.2005198075
C   C8        1.0  0.27710  0.32809  0.03430  1.0000 -0.2596233433
C   C9        1.0  0.34500  0.33923  0.10030  1.0000 0.2005198075
C   C10       1.0  0.44360  0.37709  0.11240  1.0000 -0.2498332133
C   C11       1.0  0.41520  0.29753  0.21550  1.0000 -0.0919021723
C   C12       1.0  0.32550  0.27373  0.26000  1.0000 -0.0361522773
C   C13       1.0  0.16290  0.29645  0.17390  1.0000 0.1120340595
C   C14       1.0  0.14620  0.30827  0.88990  1.0000 0.1034448555
C   C15       1.0  0.24290  0.36960  0.84810  1.0000 -0.1001101082
C   C16       1.0  0.16060  0.34580  0.79650  1.0000 -0.0266656588
C   C17       1.0  0.88640  0.54848  0.86740  1.0000 0.5545897389
C   C18       1.0  0.83430  0.54528  0.79010  1.0000 -0.0266656588
C   C19       1.0  0.82000  0.58380  0.74760  1.0000 -0.1090877263
C   C20       1.0  0.77920  0.58039  0.67510  1.0000 -0.1594699021
C   C21       1.0  0.75600  0.53842  0.64230  1.0000 0.0237122679
C   C22       1.0  0.76610  0.49965  0.68560  1.0000 -0.1594699021
C   C23       1.0  0.80270  0.50319  0.75870  1.0000 -0.1090877263
C   C24       1.0  0.72400  0.53407  0.56460  1.0000 0.1761569919
C   C25       1.0  0.76570  0.49456  0.53090  1.0000 -0.2419130226
C   C26       1.0  0.73820  0.48968  0.45980  1.0000 0.1034448555
C   C27       1.0  0.66290  0.52423  0.42090  1.0000 -0.2498332133
C   C28       1.0  0.61790  0.56381  0.45310  1.0000 0.1864991987
C   C29       1.0  0.52820  0.59983  0.41060  1.0000 0.0273224169
C   C30       1.0  0.54050  0.60480  0.33850  1.0000 -0.1685908979
C   C31       1.0  0.44810  0.63640  0.29840  1.0000 -0.1090877263
C   C32       1.0  0.32340  0.65800  0.40150  1.0000 -0.1001101082
C   C33       1.0  0.41550  0.62655  0.44150  1.0000 -0.1594699021
C   C34       1.0  0.33720  0.66257  0.32990  1.0000 -0.0057440427
C   C35       1.0  0.22820  0.69465  0.28650  1.0000 0.5423354859
C   C36       1.0  0.77970  0.44585  0.42500  1.0000 0.0685619393
C   C37       1.0  0.70400  0.43272  0.36050  1.0000 -0.1773548966
C   C38       1.0  0.73810  0.39034  0.33050  1.0000 -0.1090877263
C   C39       1.0  0.84950  0.36148  0.36320  1.0000 -0.015556249
C   C40       1.0  0.92640  0.37447  0.42700  1.0000 -0.1090877263
C   C41       1.0  0.89290  0.41638  0.45750  1.0000 -0.1685908979
C   C42       1.0  0.31310  0.95371  0.48250  1.0000 0.0919675863
C   C43       1.0  0.26180  0.99525  0.38970  1.0000 -0.0361522773
C   C44       1.0  0.11180  0.81680  0.17050  1.0000 0.5423354859
C   C45       1.0  0.38940  0.96948  0.37650  1.0000 -0.1090877263
C   C46       1.0  0.52970  0.90468  0.44560  1.0000 0.2123646791
C   C47       1.0  0.60040  0.89501  0.51300  1.0000 -0.2596233433
C   C48       1.0  0.69470  0.85616  0.52260  1.0000 0.2005198075
C   C49       1.0  0.72290  0.82809  0.46570  1.0000 -0.2596233433
C   C50       1.0  0.65500  0.83923  0.39970  1.0000 0.2005198075
C   C51       1.0  0.55640  0.87709  0.38760  1.0000 -0.2498332133
C   C52       1.0  0.58480  0.79753  0.28450  1.0000 -0.0919021723
C   C53       1.0  0.67450  0.77373  0.24000  1.0000 -0.0361522773
C   C54       1.0  0.83710  0.79645  0.32610  1.0000 0.1120340595
C   C55       1.0  0.85380  0.80827  0.61010  1.0000 0.1034448555
C   C56       1.0  0.75710  0.86960  0.65190  1.0000 -0.1001101082
C   C57       1.0  0.83940  0.84580  0.70350  1.0000 -0.0266656588
C   C58       1.0  0.11360  0.04848  0.63260  1.0000 0.5545897389
C   C59       1.0  0.16570  0.04528  0.70990  1.0000 -0.0266656588
C   C60       1.0  0.18000  0.08380  0.75240  1.0000 -0.1090877263
C   C61       1.0  0.22080  0.08039  0.82490  1.0000 -0.1594699021
C   C62       1.0  0.24400  0.03842  0.85770  1.0000 0.0237122679
C   C63       1.0  0.23390  0.99965  0.81440  1.0000 -0.1594699021
C   C64       1.0  0.19730  0.00319  0.74130  1.0000 -0.1090877263
C   C65       1.0  0.27600  0.03407  0.93540  1.0000 0.1761569919
C   C66       1.0  0.23430  0.99456  0.96910  1.0000 -0.2419130226
C   C67       1.0  0.26180  0.98968  0.04020  1.0000 0.1034448555
C   C68       1.0  0.33710  0.02423  0.07910  1.0000 -0.2498332133
C   C69       1.0  0.38210  0.06381  0.04690  1.0000 0.1864991987
C   C70       1.0  0.47180  0.09983  0.08940  1.0000 0.0273224169
C   C71       1.0  0.45950  0.10480  0.16150  1.0000 -0.1685908979
C   C72       1.0  0.55190  0.13640  0.20160  1.0000 -0.1090877263
C   C73       1.0  0.67660  0.15800  0.09850  1.0000 -0.1001101082
C   C74       1.0  0.58450  0.12655  0.05850  1.0000 -0.1594699021
C   C75       1.0  0.66280  0.16257  0.17010  1.0000 -0.0057440427
C   C76       1.0  0.77180  0.19465  0.21350  1.0000 0.5423354859
C   C77       1.0  0.22030  0.94585  0.07500  1.0000 0.0685619393
C   C78       1.0  0.29600  0.93272  0.13950  1.0000 -0.1773548966
C   C79       1.0  0.26190  0.89034  0.16950  1.0000 -0.1090877263
C   C80       1.0  0.15050  0.86148  0.13680  1.0000 -0.015556249
C   C81       1.0  0.07360  0.87447  0.07300  1.0000 -0.1090877263
C   C82       1.0  0.10710  0.91638  0.04250  1.0000 -0.1685908979
C   C83       1.0  0.31310  0.54629  0.98250  1.0000 0.0919675863
C   C84       1.0  0.26180  0.50475  0.88970  1.0000 -0.0361522773
C   C85       1.0  0.11180  0.68320  0.67050  1.0000 0.5423354859
C   C86       1.0  0.38940  0.53052  0.87650  1.0000 -0.1090877263
C   C87       1.0  0.52970  0.59532  0.94560  1.0000 0.2123646791
C   C88       1.0  0.60040  0.60499  0.01300  1.0000 -0.2596233433
C   C89       1.0  0.69470  0.64384  0.02260  1.0000 0.2005198075
C   C90       1.0  0.72290  0.67191  0.96570  1.0000 -0.2596233433
C   C91       1.0  0.65500  0.66077  0.89970  1.0000 0.2005198075
C   C92       1.0  0.55640  0.62291  0.88760  1.0000 -0.2498332133
C   C93       1.0  0.58480  0.70247  0.78450  1.0000 -0.0919021723
C   C94       1.0  0.67450  0.72627  0.74000  1.0000 -0.0361522773
C   C95       1.0  0.83710  0.70355  0.82610  1.0000 0.1120340595
C   C96       1.0  0.85380  0.69173  0.11010  1.0000 0.1034448555
C   C97       1.0  0.75710  0.63040  0.15190  1.0000 -0.1001101082
C   C98       1.0  0.83940  0.65420  0.20350  1.0000 -0.0266656588
C   C99       1.0  0.11360  0.45152  0.13260  1.0000 0.5545897389
C   C100      1.0  0.16570  0.45472  0.20990  1.0000 -0.0266656588
C   C101      1.0  0.18000  0.41620  0.25240  1.0000 -0.1090877263
C   C102      1.0  0.22080  0.41961  0.32490  1.0000 -0.1594699021
C   C103      1.0  0.24400  0.46158  0.35770  1.0000 0.0237122679
C   C104      1.0  0.23390  0.50035  0.31440  1.0000 -0.1594699021
C   C105      1.0  0.19730  0.49681  0.24130  1.0000 -0.1090877263
C   C106      1.0  0.27600  0.46593  0.43540  1.0000 0.1761569919
C   C107      1.0  0.23430  0.50544  0.46910  1.0000 -0.2419130226
C   C108      1.0  0.26180  0.51032  0.54020  1.0000 0.1034448555
C   C109      1.0  0.33710  0.47577  0.57910  1.0000 -0.2498332133
C   C110      1.0  0.38210  0.43619  0.54690  1.0000 0.1864991987
C   C111      1.0  0.47180  0.40017  0.58940  1.0000 0.0273224169
C   C112      1.0  0.45950  0.39520  0.66150  1.0000 -0.1685908979
C   C113      1.0  0.55190  0.36360  0.70160  1.0000 -0.1090877263
C   C114      1.0  0.67660  0.34200  0.59850  1.0000 -0.1001101082
C   C115      1.0  0.58450  0.37345  0.55850  1.0000 -0.1594699021
C   C116      1.0  0.66280  0.33743  0.67010  1.0000 -0.0057440427
C   C117      1.0  0.77180  0.30535  0.71350  1.0000 0.5423354859
C   C118      1.0  0.22030  0.55415  0.57500  1.0000 0.0685619393
C   C119      1.0  0.29600  0.56728  0.63950  1.0000 -0.1773548966
C   C120      1.0  0.26190  0.60966  0.66950  1.0000 -0.1090877263
C   C121      1.0  0.15050  0.63852  0.63680  1.0000 -0.015556249
C   C122      1.0  0.07360  0.62553  0.57300  1.0000 -0.1090877263
C   C123      1.0  0.10710  0.58362  0.54250  1.0000 -0.1685908979
C   C124      1.0  0.68690  0.04629  0.51750  1.0000 0.0919675863
C   C125      1.0  0.73820  0.00475  0.61030  1.0000 -0.0361522773
C   C126      1.0  0.88820  0.18320  0.82950  1.0000 0.5423354859
C   C127      1.0  0.61060  0.03052  0.62350  1.0000 -0.1090877263
C   C128      1.0  0.47030  0.09532  0.55440  1.0000 0.2123646791
C   C129      1.0  0.39960  0.10499  0.48700  1.0000 -0.2596233433
C   C130      1.0  0.30530  0.14384  0.47740  1.0000 0.2005198075
C   C131      1.0  0.27710  0.17191  0.53430  1.0000 -0.2596233433
C   C132      1.0  0.34500  0.16077  0.60030  1.0000 0.2005198075
C   C133      1.0  0.44360  0.12291  0.61240  1.0000 -0.2498332133
C   C134      1.0  0.41520  0.20247  0.71550  1.0000 -0.0919021723
C   C135      1.0  0.32550  0.22627  0.76000  1.0000 -0.0361522773
C   C136      1.0  0.16290  0.20355  0.67390  1.0000 0.1120340595
C   C137      1.0  0.14620  0.19173  0.38990  1.0000 0.1034448555
C   C138      1.0  0.24290  0.13040  0.34810  1.0000 -0.1001101082
C   C139      1.0  0.16060  0.15420  0.29650  1.0000 -0.0266656588
C   C140      1.0  0.88640  0.95152  0.36740  1.0000 0.5545897389
C   C141      1.0  0.83430  0.95472  0.29010  1.0000 -0.0266656588
C   C142      1.0  0.82000  0.91620  0.24760  1.0000 -0.1090877263
C   C143      1.0  0.77920  0.91961  0.17510  1.0000 -0.1594699021
C   C144      1.0  0.75600  0.96158  0.14230  1.0000 0.0237122679
C   C145      1.0  0.76610  0.00035  0.18560  1.0000 -0.1594699021
C   C146      1.0  0.80270  0.99681  0.25870  1.0000 -0.1090877263
C   C147      1.0  0.72400  0.96593  0.06460  1.0000 0.1761569919
C   C148      1.0  0.76570  0.00544  0.03090  1.0000 -0.2419130226
C   C149      1.0  0.73820  0.01032  0.95980  1.0000 0.1034448555
C   C150      1.0  0.66290  0.97577  0.92090  1.0000 -0.2498332133
C   C151      1.0  0.61790  0.93619  0.95310  1.0000 0.1864991987
C   C152      1.0  0.52820  0.90017  0.91060  1.0000 0.0273224169
C   C153      1.0  0.54050  0.89520  0.83850  1.0000 -0.1685908979
C   C154      1.0  0.44810  0.86360  0.79840  1.0000 -0.1090877263
C   C155      1.0  0.32340  0.84200  0.90150  1.0000 -0.1001101082
C   C156      1.0  0.41550  0.87345  0.94150  1.0000 -0.1594699021
C   C157      1.0  0.33720  0.83743  0.82990  1.0000 -0.0057440427
C   C158      1.0  0.22820  0.80535  0.78650  1.0000 0.5423354859
C   C159      1.0  0.77970  0.05415  0.92500  1.0000 0.0685619393
C   C160      1.0  0.70400  0.06728  0.86050  1.0000 -0.1773548966
C   C161      1.0  0.73810  0.10966  0.83050  1.0000 -0.1090877263
C   C162      1.0  0.84950  0.13852  0.86320  1.0000 -0.015556249
C   C163      1.0  0.92640  0.12553  0.92700  1.0000 -0.1090877263
C   C164      1.0  0.89290  0.08362  0.95750  1.0000 -0.1685908979
N   N1        1.0  0.78770  0.48490  0.04381  1.0000 -0.2945475673
N   N2        1.0  0.57670  0.44263  0.06363  1.0000 0.0031476876
N   N3        1.0  0.23650  0.34555  0.90860  1.0000 0.0031476876
N   N4        1.0  0.10110  0.30705  0.82245  1.0000 -0.2726159265
N   N5        1.0  0.31130  0.31150  0.16026  1.0000 -0.0022983988
N   N6        1.0  0.16660  0.27391  0.23427  1.0000 -0.2953066027
N   N7        1.0  0.64900  0.56889  0.52500  1.0000 -0.2785481607
N   N8        1.0  0.21230  0.98490  0.45619  1.0000 -0.2953066027
N   N9        1.0  0.42330  0.94263  0.43637  1.0000 0.0031476876
N   N10       1.0  0.76350  0.84555  0.59140  1.0000 0.0031476876
N   N11       1.0  0.89890  0.80705  0.67755  1.0000 -0.2726159265
N   N12       1.0  0.68870  0.81150  0.33974  1.0000 -0.0022983988
N   N13       1.0  0.83340  0.77391  0.26573  1.0000 -0.2953066027
N   N14       1.0  0.35100  0.06889  0.97500  1.0000 -0.2785481607
N   N15       1.0  0.21230  0.51510  0.95619  1.0000 -0.2945475673
N   N16       1.0  0.42330  0.55737  0.93637  1.0000 0.0031476876
N   N17       1.0  0.76350  0.65445  0.09140  1.0000 0.0031476876
N   N18       1.0  0.89890  0.69295  0.17755  1.0000 -0.2726159265
N   N19       1.0  0.68870  0.68850  0.83974  1.0000 -0.0022983988
N   N20       1.0  0.83340  0.72609  0.76573  1.0000 -0.2953066027
N   N21       1.0  0.35100  0.43111  0.47500  1.0000 -0.2785481607
N   N22       1.0  0.78770  0.01510  0.54381  1.0000 -0.2945475673
N   N23       1.0  0.57670  0.05737  0.56363  1.0000 0.0031476876
N   N24       1.0  0.23650  0.15445  0.40860  1.0000 0.0031476876
N   N25       1.0  0.10110  0.19295  0.32245  1.0000 -0.2726159265
N   N26       1.0  0.31130  0.18850  0.66026  1.0000 -0.0022983988
N   N27       1.0  0.16660  0.22609  0.73427  1.0000 -0.2953066027
N   N28       1.0  0.64900  0.93111  0.02500  1.0000 -0.2785481607
O   O1        1.0  0.93540  0.58680  0.89120  1.0000 -0.5703438615
O   O2        1.0  0.87830  0.51212  0.90300  1.0000 -0.5776320641
O   O3        1.0  0.11010  0.71199  0.31557  1.0000 -0.5419012999
O   O4        1.0  0.24860  0.70312  0.22259  1.0000 -0.5332112407
O   O5        1.0  0.83800  0.30746  0.26565  1.0000 -0.5419012999
O   O6        1.0  0.97500  0.28748  0.36448  1.0000 -0.5473782515
O   O7        1.0  0.97340  0.56932  0.03202  1.0000 -0.7158705389
O   O8        1.0  0.06460  0.08680  0.60880  1.0000 -0.5703438615
O   O9        1.0  0.12170  0.01212  0.59700  1.0000 -0.5776320641
O   O10       1.0  0.88990  0.21199  0.18443  1.0000 -0.5419012999
O   O11       1.0  0.75140  0.20312  0.27741  1.0000 -0.5332112407
O   O12       1.0  0.16200  0.80746  0.23435  1.0000 -0.5419012999
O   O13       1.0  0.02500  0.78748  0.13552  1.0000 -0.5473782515
O   O14       1.0  0.02660  0.06932  0.46798  1.0000 -0.7145443654
O   O15       1.0  0.06460  0.41320  0.10880  1.0000 -0.5703438615
O   O16       1.0  0.12170  0.48788  0.09700  1.0000 -0.5776320641
O   O17       1.0  0.88990  0.28801  0.68443  1.0000 -0.5419012999
O   O18       1.0  0.75140  0.29688  0.77741  1.0000 -0.5332112407
O   O19       1.0  0.16200  0.69254  0.73435  1.0000 -0.5419012999
O   O20       1.0  0.02500  0.71252  0.63552  1.0000 -0.5473782515
O   O21       1.0  0.02660  0.43068  0.96798  1.0000 -0.7145443654
O   O22       1.0  0.93540  0.91320  0.39120  1.0000 -0.5703438615
O   O23       1.0  0.87830  0.98788  0.40300  1.0000 -0.5776320641
O   O24       1.0  0.11010  0.78801  0.81557  1.0000 -0.5419012999
O   O25       1.0  0.24860  0.79688  0.72259  1.0000 -0.5332112407
O   O26       1.0  0.83800  0.19254  0.76565  1.0000 -0.5419012999
O   O27       1.0  0.97500  0.21252  0.86448  1.0000 -0.5473782515
O   O28       1.0  0.97340  0.93068  0.53202  1.0000 -0.7158705389
