# DDEC6 charges by PACMAN v1.1 (https://github.com/mtap-research/PACMAN-charge/)
data_2019[Mn][sql]2[FSR]2
_chemical_formula_sum              "Mn3 H26 C24 O22"
_cell_length_a       4.6446
_cell_length_b       13.014
_cell_length_c       14.321
_cell_angle_alpha    66.416
_cell_angle_beta     84.772
_cell_angle_gamma    80.582

_symmetry_space_group_name_H-M    "P 1"
_symmetry_Int_Tables_number       1

loop_
  _symmetry_equiv_pos_as_xyz
  'x, y, z'

loop_
  _atom_site_type_symbol
  _atom_site_label
  _atom_site_symmetry_multiplicity
  _atom_site_fract_x
  _atom_site_fract_y
  _atom_site_fract_z
  _atom_site_occupancy
  _atom_site_charge
Mn  Mn1       1.0  0.31615  0.61440  0.89884  1.0000 1.0574755647
Mn  Mn2       1.0  0.68385  0.38560  0.10116  1.0000 1.0574755647
Mn  Mn3       1.0  0.00000  0.00000  0.50000  1.0000 1.0574755647
H   H1        1.0  0.40560  0.74730  0.04260  1.0000 0.1403041818
H   H2        1.0  0.48630  0.64590  0.14610  1.0000 0.1403041818
H   H3        1.0  0.83640  0.56070  0.23630  1.0000 0.1403041818
H   H4        1.0  0.85180  0.40210  0.35640  1.0000 0.1294580229
H   H5        1.0  0.09830  0.30260  0.40950  1.0000 0.1403041818
H   H6        1.0  0.38090  0.60780  0.41560  1.0000 0.1515442409
H   H7        1.0  0.96850  0.87510  0.18960  1.0000 0.1755514719
H   H8        1.0  0.55400  0.81900  0.83600  1.0000 0.3386492409
H   H9        1.0  0.26300  0.84000  0.84200  1.0000 0.3322896414
H   H10       1.0  0.82300  0.19200  0.32410  1.0000 0.3322896414
H   H11       1.0  0.62900  0.11900  0.36600  1.0000 0.3182257094
H   H12       1.0  0.66190  0.74500  0.40570  1.0000 0.1238066383
H   H13       1.0  0.37770  0.74950  0.47380  1.0000 0.1403041818
H   H14       1.0  0.59440  0.25270  0.95740  1.0000 0.1403041818
H   H15       1.0  0.51370  0.35410  0.85390  1.0000 0.1403041818
H   H16       1.0  0.16360  0.43930  0.76370  1.0000 0.1403041818
H   H17       1.0  0.14820  0.59790  0.64360  1.0000 0.1294580229
H   H18       1.0  0.90170  0.69740  0.59050  1.0000 0.1403041818
H   H19       1.0  0.61910  0.39220  0.58440  1.0000 0.1515442409
H   H20       1.0  0.03150  0.12490  0.81040  1.0000 0.1755514719
H   H21       1.0  0.44600  0.18100  0.16400  1.0000 0.3386492409
H   H22       1.0  0.73700  0.16000  0.15800  1.0000 0.3322896414
H   H23       1.0  0.17700  0.80800  0.67590  1.0000 0.3322896414
H   H24       1.0  0.37100  0.88100  0.63400  1.0000 0.3182257094
H   H25       1.0  0.33810  0.25500  0.59430  1.0000 0.1238066383
H   H26       1.0  0.62230  0.25050  0.52620  1.0000 0.1403041818
C   C1        1.0  0.77490  0.64330  0.03000  1.0000 0.6219879764
C   C2        1.0  0.56640  0.70260  0.08630  1.0000 -0.1911684297
C   C3        1.0  0.16880  0.37770  0.25440  1.0000 0.6219879764
C   C4        1.0  0.92990  0.60890  0.25300  1.0000 -0.3757632694
C   C5        1.0  0.87890  0.72450  0.19910  1.0000 0.2897901811
C   C6        1.0  0.12210  0.56590  0.33200  1.0000 0.3062827863
C   C7        1.0  0.06130  0.37900  0.35810  1.0000 -0.1815341174
C   C8        1.0  0.25550  0.63720  0.36110  1.0000 -0.3757632694
C   C9        1.0  0.19500  0.75250  0.30630  1.0000 0.282164795
C   C10       1.0  0.00750  0.79720  0.22560  1.0000 -0.3362098954
C   C11       1.0  0.56260  0.89790  0.42290  1.0000 0.6219879764
C   C12       1.0  0.48580  0.79290  0.41350  1.0000 -0.1815341174
C   C13       1.0  0.22510  0.35670  0.97000  1.0000 0.6219879764
C   C14       1.0  0.43360  0.29740  0.91370  1.0000 -0.1911684297
C   C15       1.0  0.83120  0.62230  0.74560  1.0000 0.6219879764
C   C16       1.0  0.07010  0.39110  0.74700  1.0000 -0.3757632694
C   C17       1.0  0.12110  0.27550  0.80090  1.0000 0.2897901811
C   C18       1.0  0.87790  0.43410  0.66800  1.0000 0.3062827863
C   C19       1.0  0.93870  0.62100  0.64190  1.0000 -0.1815341174
C   C20       1.0  0.74450  0.36280  0.63890  1.0000 -0.3757632694
C   C21       1.0  0.80500  0.24750  0.69370  1.0000 0.282164795
C   C22       1.0  0.99250  0.20280  0.77440  1.0000 -0.3362098954
C   C23       1.0  0.43740  0.10210  0.57710  1.0000 0.6219879764
C   C24       1.0  0.51420  0.20710  0.58650  1.0000 -0.1815341174
O   O1        1.0  0.39460  0.41720  0.21466  1.0000 -0.5291676096
O   O2        1.0  0.01570  0.32970  0.21882  1.0000 -0.6203532837
O   O3        1.0  0.01690  0.67181  0.99982  1.0000 -0.5291676096
O   O4        1.0  0.40090  0.79030  0.83770  1.0000 -0.6643465183
O   O5        1.0  0.66920  0.56678  0.01322  1.0000 -0.6203532837
O   O6        1.0  0.19490  0.45230  0.38739  1.0000 -0.1612654499
O   O7        1.0  0.69820  0.77458  0.11756  1.0000 -0.1661235414
O   O8        1.0  0.31150  0.83191  0.32547  1.0000 -0.1612654499
O   O9        1.0  0.38280  0.98776  0.39533  1.0000 -0.5836293123
O   O10       1.0  0.80050  0.88445  0.46351  1.0000 -0.5587538205
O   O11       1.0  0.76450  0.14650  0.38127  1.0000 -0.6973515771
O   O12       1.0  0.60540  0.58280  0.78534  1.0000 -0.5291676096
O   O13       1.0  0.98430  0.67030  0.78118  1.0000 -0.6203532837
O   O14       1.0  0.98310  0.32819  0.00018  1.0000 -0.5291676096
O   O15       1.0  0.59910  0.20970  0.16230  1.0000 -0.6643465183
O   O16       1.0  0.33080  0.43322  0.98678  1.0000 -0.6203532837
O   O17       1.0  0.80510  0.54770  0.61261  1.0000 -0.1612654499
O   O18       1.0  0.30180  0.22542  0.88244  1.0000 -0.1661235414
O   O19       1.0  0.68850  0.16809  0.67453  1.0000 -0.1612654499
O   O20       1.0  0.61720  0.01224  0.60467  1.0000 -0.5836293123
O   O21       1.0  0.19950  0.11555  0.53649  1.0000 -0.5587538205
O   O22       1.0  0.23550  0.85350  0.61873  1.0000 -0.6973515771
