# DDEC6 charges by PACMAN v1.1 (https://github.com/mtap-research/PACMAN-charge/)
data_2019[Ni][dia]3[FSR]3
_chemical_formula_sum              "Ni4 H96 C144 N8 O16"
_cell_length_a       17.9721
_cell_length_b       17.9721
_cell_length_c       17.9721
_cell_angle_alpha    103.818
_cell_angle_beta     103.818
_cell_angle_gamma    121.489

_symmetry_space_group_name_H-M    "P 1"
_symmetry_Int_Tables_number       1

loop_
  _symmetry_equiv_pos_as_xyz
  'x, y, z'

loop_
  _atom_site_type_symbol
  _atom_site_label
  _atom_site_symmetry_multiplicity
  _atom_site_fract_x
  _atom_site_fract_y
  _atom_site_fract_z
  _atom_site_occupancy
  _atom_site_charge
Ni  Ni1       1.0  0.28789  0.28789  0.00000  1.0000 0.6592687015
Ni  Ni2       1.0  0.03789  0.53789  0.50000  1.0000 0.6592687015
Ni  Ni3       1.0  0.53789  0.03789  0.50000  1.0000 0.6592687015
Ni  Ni4       1.0  0.78789  0.78789  0.00000  1.0000 0.6592687015
H   H1        1.0  0.98460  0.72380  0.39580  1.0000 0.1173877636
H   H2        1.0  0.02940  0.83810  0.34170  1.0000 0.1100708036
H   H3        1.0  0.19750  0.77920  0.27070  1.0000 0.1100708036
H   H4        1.0  0.15110  0.66340  0.32370  1.0000 0.1173877636
H   H5        1.0  0.28940  0.94510  0.29990  1.0000 0.1100708036
H   H6        1.0  0.33210  0.05950  0.24760  1.0000 0.1100708036
H   H7        1.0  0.06170  0.98200  0.16810  1.0000 0.1173877636
H   H8        1.0  0.01880  0.86980  0.22220  1.0000 0.1100708036
H   H9        1.0  0.31670  0.07870  0.12200  1.0000 0.1282503581
H   H10       1.0  0.34840  0.17650  0.05170  1.0000 0.1100708036
H   H11       1.0  0.18720  0.24140  0.11520  1.0000 0.1030100976
H   H12       1.0  0.14450  0.13770  0.17880  1.0000 0.1282503581
H   H13       1.0  0.32800  0.58880  0.60420  1.0000 0.1173877636
H   H14       1.0  0.49640  0.68770  0.65830  1.0000 0.1100708036
H   H15       1.0  0.50850  0.92680  0.72930  1.0000 0.1100708036
H   H16       1.0  0.33970  0.82740  0.67630  1.0000 0.1173877636
H   H17       1.0  0.64520  0.98950  0.70010  1.0000 0.1100708036
H   H18       1.0  0.81190  0.08450  0.75240  1.0000 0.1100708036
H   H19       1.0  0.81390  0.89360  0.83190  1.0000 0.1173877636
H   H20       1.0  0.64760  0.79660  0.77780  1.0000 0.1100708036
H   H21       1.0  0.95670  0.19470  0.87800  1.0000 0.1282503581
H   H22       1.0  0.12480  0.29670  0.94830  1.0000 0.1100708036
H   H23       1.0  0.12620  0.07200  0.88480  1.0000 0.1030100976
H   H24       1.0  0.95890  0.96570  0.82120  1.0000 0.1282503581
H   H25       1.0  0.47380  0.23460  0.89580  1.0000 0.1173877636
H   H26       1.0  0.58810  0.27940  0.84170  1.0000 0.1100708036
H   H27       1.0  0.52920  0.44750  0.77070  1.0000 0.1100708036
H   H28       1.0  0.41340  0.40110  0.82370  1.0000 0.1173877636
H   H29       1.0  0.69510  0.53940  0.79990  1.0000 0.1100708036
H   H30       1.0  0.80950  0.58210  0.74760  1.0000 0.1100708036
H   H31       1.0  0.73200  0.31170  0.66810  1.0000 0.1173877636
H   H32       1.0  0.61980  0.26880  0.72220  1.0000 0.1100708036
H   H33       1.0  0.82870  0.56670  0.62200  1.0000 0.1282503581
H   H34       1.0  0.92650  0.59840  0.55170  1.0000 0.1100708036
H   H35       1.0  0.99140  0.43720  0.61520  1.0000 0.1030100976
H   H36       1.0  0.88770  0.39450  0.67880  1.0000 0.1282503581
H   H37       1.0  0.33880  0.57800  0.10420  1.0000 0.1173877636
H   H38       1.0  0.43770  0.74640  0.15830  1.0000 0.1100708036
H   H39       1.0  0.67680  0.75850  0.22930  1.0000 0.1100708036
H   H40       1.0  0.57740  0.58970  0.17630  1.0000 0.1173877636
H   H41       1.0  0.73950  0.89520  0.20010  1.0000 0.1100708036
H   H42       1.0  0.83450  0.06190  0.25240  1.0000 0.1100708036
H   H43       1.0  0.64360  0.06390  0.33190  1.0000 0.1173877636
H   H44       1.0  0.54660  0.89760  0.27780  1.0000 0.1100708036
H   H45       1.0  0.94470  0.20670  0.37800  1.0000 0.1282503581
H   H46       1.0  0.04670  0.37480  0.44830  1.0000 0.1100708036
H   H47       1.0  0.82200  0.37620  0.38480  1.0000 0.1030100976
H   H48       1.0  0.71570  0.20890  0.32120  1.0000 0.1282503581
H   H49       1.0  0.97380  0.07800  0.23920  1.0000 0.1173877636
H   H50       1.0  0.08810  0.24640  0.30870  1.0000 0.1100708036
H   H51       1.0  0.02920  0.25850  0.08170  1.0000 0.1100708036
H   H52       1.0  0.91340  0.08970  0.01230  1.0000 0.1173877636
H   H53       1.0  0.19510  0.39520  0.15570  1.0000 0.1100708036
H   H54       1.0  0.30950  0.56190  0.22740  1.0000 0.1100708036
H   H55       1.0  0.23200  0.56390  0.42030  1.0000 0.1173877636
H   H56       1.0  0.11980  0.39760  0.35100  1.0000 0.1100708036
H   H57       1.0  0.32870  0.70670  0.26200  1.0000 0.1282503581
H   H58       1.0  0.42650  0.87480  0.32810  1.0000 0.1100708036
H   H59       1.0  0.49140  0.87620  0.55420  1.0000 0.1030100976
H   H60       1.0  0.38770  0.70890  0.49320  1.0000 0.1282503581
H   H61       1.0  0.83880  0.73460  0.76080  1.0000 0.1173877636
H   H62       1.0  0.93770  0.77940  0.69130  1.0000 0.1100708036
H   H63       1.0  0.17680  0.94750  0.91830  1.0000 0.1100708036
H   H64       1.0  0.07740  0.90110  0.98770  1.0000 0.1173877636
H   H65       1.0  0.23950  0.03940  0.84430  1.0000 0.1100708036
H   H66       1.0  0.33450  0.08210  0.77260  1.0000 0.1100708036
H   H67       1.0  0.14360  0.81170  0.57970  1.0000 0.1173877636
H   H68       1.0  0.04660  0.76880  0.64900  1.0000 0.1100708036
H   H69       1.0  0.44470  0.06670  0.73800  1.0000 0.1282503581
H   H70       1.0  0.54670  0.09840  0.67190  1.0000 0.1100708036
H   H71       1.0  0.32200  0.93720  0.44580  1.0000 0.1030100976
H   H72       1.0  0.21570  0.89450  0.50680  1.0000 0.1282503581
H   H73       1.0  0.48460  0.08880  0.26080  1.0000 0.1173877636
H   H74       1.0  0.52940  0.18770  0.19130  1.0000 0.1100708036
H   H75       1.0  0.69750  0.42680  0.41830  1.0000 0.1100708036
H   H76       1.0  0.65110  0.32740  0.48770  1.0000 0.1173877636
H   H77       1.0  0.78940  0.48950  0.34430  1.0000 0.1100708036
H   H78       1.0  0.83210  0.58450  0.27260  1.0000 0.1100708036
H   H79       1.0  0.56170  0.39360  0.07970  1.0000 0.1173877636
H   H80       1.0  0.51880  0.29660  0.14900  1.0000 0.1100708036
H   H81       1.0  0.81670  0.69470  0.23800  1.0000 0.1282503581
H   H82       1.0  0.84840  0.79670  0.17190  1.0000 0.1100708036
H   H83       1.0  0.68720  0.57200  0.94580  1.0000 0.1030100976
H   H84       1.0  0.64450  0.46570  0.00680  1.0000 0.1282503581
H   H85       1.0  0.82800  0.22380  0.73920  1.0000 0.1173877636
H   H86       1.0  0.99640  0.33810  0.80870  1.0000 0.1100708036
H   H87       1.0  0.00850  0.27920  0.58170  1.0000 0.1100708036
H   H88       1.0  0.83970  0.16340  0.51230  1.0000 0.1173877636
H   H89       1.0  0.14520  0.44510  0.65570  1.0000 0.1100708036
H   H90       1.0  0.31190  0.55950  0.72740  1.0000 0.1100708036
H   H91       1.0  0.31390  0.48200  0.92030  1.0000 0.1173877636
H   H92       1.0  0.14760  0.36980  0.85100  1.0000 0.1100708036
H   H93       1.0  0.45670  0.57870  0.76200  1.0000 0.1282503581
H   H94       1.0  0.62480  0.67650  0.82810  1.0000 0.1100708036
H   H95       1.0  0.62620  0.74140  0.05420  1.0000 0.1030100976
H   H96       1.0  0.45890  0.63770  0.99320  1.0000 0.1282503581
C   C1        1.0  0.04140  0.61330  0.40610  1.0000 0.5282504801
C   C2        1.0  0.06650  0.68370  0.36700  1.0000 -0.0148346275
C   C3        1.0  0.02850  0.73560  0.37110  1.0000 -0.1296395938
C   C4        1.0  0.05550  0.80370  0.33920  1.0000 -0.1582940667
C   C5        1.0  0.12000  0.82240  0.30380  1.0000 0.0682514068
C   C6        1.0  0.15500  0.76860  0.29680  1.0000 -0.1582940667
C   C7        1.0  0.12730  0.69990  0.32860  1.0000 -0.103441311
C   C8        1.0  0.14930  0.89450  0.26840  1.0000 0.0682514068
C   C9        1.0  0.24260  0.95230  0.27350  1.0000 -0.1426643337
C   C10       1.0  0.26740  0.01920  0.24100  1.0000 -0.1296395938
C   C11       1.0  0.20160  0.02960  0.19940  1.0000 0.0607803688
C   C12       1.0  0.10780  0.97380  0.19440  1.0000 -0.1118019064
C   C13       1.0  0.08290  0.90790  0.22720  1.0000 -0.1296395938
C   C14       1.0  0.22670  0.09690  0.15840  1.0000 0.1282503581
C   C15       1.0  0.28780  0.11030  0.12010  1.0000 -0.2046401519
C   C16       1.0  0.30740  0.16960  0.07880  1.0000 0.0910692103
C   C17       1.0  0.21220  0.20610  0.11490  1.0000 0.0764613282
C   C18       1.0  0.18790  0.14580  0.15430  1.0000 -0.180845892
C   C19       1.0  0.20720  0.63530  0.59390  1.0000 0.5282504801
C   C20       1.0  0.31670  0.69950  0.63300  1.0000 -0.0148346275
C   C21       1.0  0.36450  0.65740  0.62890  1.0000 -0.1296395938
C   C22       1.0  0.46450  0.71630  0.66080  1.0000 -0.1582940667
C   C23       1.0  0.51860  0.81620  0.69620  1.0000 0.0682514068
C   C24       1.0  0.47180  0.85820  0.70320  1.0000 -0.1582940667
C   C25       1.0  0.37130  0.79870  0.67140  1.0000 -0.103441311
C   C26       1.0  0.62610  0.88090  0.73160  1.0000 0.0682514068
C   C27       1.0  0.67880  0.96910  0.72650  1.0000 -0.1426643337
C   C28       1.0  0.77820  0.02640  0.75900  1.0000 -0.1296395938
C   C29       1.0  0.83020  0.00220  0.80060  1.0000 0.0607803688
C   C30       1.0  0.77940  0.91340  0.80560  1.0000 -0.1118019064
C   C31       1.0  0.68070  0.85570  0.77280  1.0000 -0.1296395938
C   C32       1.0  0.93850  0.06830  0.84160  1.0000 0.1282503581
C   C33       1.0  0.99020  0.16770  0.87990  1.0000 -0.2046401519
C   C34       1.0  0.09080  0.22860  0.92120  1.0000 0.0910692103
C   C35       1.0  0.09120  0.09730  0.88510  1.0000 0.0764613282
C   C36       1.0  0.99150  0.03360  0.84570  1.0000 -0.180845892
C   C37       1.0  0.36330  0.29140  0.90610  1.0000 0.5282504801
C   C38       1.0  0.43370  0.31650  0.86700  1.0000 -0.0148346275
C   C39       1.0  0.48560  0.27850  0.87110  1.0000 -0.1296395938
C   C40       1.0  0.55370  0.30550  0.83920  1.0000 -0.1582940667
C   C41       1.0  0.57240  0.37000  0.80380  1.0000 0.0682514068
C   C42       1.0  0.51860  0.40500  0.79680  1.0000 -0.1582940667
C   C43       1.0  0.44990  0.37730  0.82860  1.0000 -0.103441311
C   C44       1.0  0.64450  0.39930  0.76840  1.0000 0.0682514068
C   C45       1.0  0.70230  0.49260  0.77350  1.0000 -0.1426643337
C   C46       1.0  0.76920  0.51740  0.74100  1.0000 -0.1296395938
C   C47       1.0  0.77960  0.45160  0.69940  1.0000 0.0607803688
C   C48       1.0  0.72380  0.35780  0.69440  1.0000 -0.1118019064
C   C49       1.0  0.65790  0.33290  0.72720  1.0000 -0.1296395938
C   C50       1.0  0.84690  0.47670  0.65840  1.0000 0.1282503581
C   C51       1.0  0.86030  0.53780  0.62010  1.0000 -0.2046401519
C   C52       1.0  0.91960  0.55740  0.57880  1.0000 0.0910692103
C   C53       1.0  0.95610  0.46220  0.61490  1.0000 0.0764613282
C   C54       1.0  0.89580  0.43790  0.65430  1.0000 -0.180845892
C   C55       1.0  0.38530  0.45720  0.09390  1.0000 0.5282504801
C   C56       1.0  0.44950  0.56670  0.13300  1.0000 -0.0148346275
C   C57       1.0  0.40740  0.61450  0.12890  1.0000 -0.1296395938
C   C58       1.0  0.46630  0.71450  0.16080  1.0000 -0.1582940667
C   C59       1.0  0.56620  0.76860  0.19620  1.0000 0.0682514068
C   C60       1.0  0.60820  0.72180  0.20320  1.0000 -0.1582940667
C   C61       1.0  0.54870  0.62130  0.17140  1.0000 -0.103441311
C   C62       1.0  0.63090  0.87610  0.23160  1.0000 0.0682514068
C   C63       1.0  0.71910  0.92880  0.22650  1.0000 -0.1426643337
C   C64       1.0  0.77640  0.02820  0.25900  1.0000 -0.1296395938
C   C65       1.0  0.75220  0.08020  0.30060  1.0000 0.0607803688
C   C66       1.0  0.66340  0.02940  0.30560  1.0000 -0.1118019064
C   C67       1.0  0.60570  0.93070  0.27280  1.0000 -0.1296395938
C   C68       1.0  0.81830  0.18850  0.34160  1.0000 0.1282503581
C   C69       1.0  0.91770  0.24020  0.37990  1.0000 -0.2046401519
C   C70       1.0  0.97860  0.34080  0.42120  1.0000 0.0910692103
C   C71       1.0  0.84730  0.34120  0.38510  1.0000 0.0764613282
C   C72       1.0  0.78360  0.24150  0.34570  1.0000 -0.180845892
C   C73       1.0  0.86330  0.95720  0.07190  1.0000 0.5282504801
C   C74       1.0  0.93370  0.06670  0.11720  1.0000 -0.0148346275
C   C75       1.0  0.98560  0.11450  0.20710  1.0000 -0.1296395938
C   C76       1.0  0.05370  0.21450  0.24820  1.0000 -0.1582940667
C   C77       1.0  0.07240  0.26860  0.20240  1.0000 0.0682514068
C   C78       1.0  0.01860  0.22180  0.11360  1.0000 -0.1582940667
C   C79       1.0  0.94990  0.12130  0.07260  1.0000 -0.103441311
C   C80       1.0  0.14450  0.37610  0.24520  1.0000 0.0682514068
C   C81       1.0  0.20230  0.42880  0.20970  1.0000 -0.1426643337
C   C82       1.0  0.26920  0.52820  0.25180  1.0000 -0.1296395938
C   C83       1.0  0.27960  0.58020  0.32800  1.0000 0.0607803688
C   C84       1.0  0.22380  0.52940  0.36600  1.0000 -0.1118019064
C   C85       1.0  0.15790  0.43070  0.32500  1.0000 -0.1296395938
C   C86       1.0  0.34690  0.68850  0.37020  1.0000 0.1282503581
C   C87       1.0  0.36030  0.74020  0.32250  1.0000 -0.2046401519
C   C88       1.0  0.41960  0.84080  0.36220  1.0000 0.0910692103
C   C89       1.0  0.45610  0.84120  0.49390  1.0000 0.0764613282
C   C90       1.0  0.39580  0.74150  0.45790  1.0000 -0.180845892
C   C91       1.0  0.88530  0.79140  0.92810  1.0000 0.5282504801
C   C92       1.0  0.94950  0.81650  0.88280  1.0000 -0.0148346275
C   C93       1.0  0.90740  0.77850  0.79290  1.0000 -0.1296395938
C   C94       1.0  0.96630  0.80550  0.75180  1.0000 -0.1582940667
C   C95       1.0  0.06620  0.87000  0.79760  1.0000 0.0682514068
C   C96       1.0  0.10820  0.90500  0.88640  1.0000 -0.1582940667
C   C97       1.0  0.04870  0.87730  0.92740  1.0000 -0.103441311
C   C98       1.0  0.13090  0.89930  0.75480  1.0000 0.0682514068
C   C99       1.0  0.21910  0.99260  0.79030  1.0000 -0.1426643337
C   C100      1.0  0.27640  0.01740  0.74820  1.0000 -0.1296395938
C   C101      1.0  0.25220  0.95160  0.67200  1.0000 0.0607803688
C   C102      1.0  0.16340  0.85780  0.63400  1.0000 -0.1118019064
C   C103      1.0  0.10570  0.83290  0.67500  1.0000 -0.1296395938
C   C104      1.0  0.31830  0.97670  0.62980  1.0000 0.1282503581
C   C105      1.0  0.41770  0.03780  0.67750  1.0000 -0.2046401519
C   C106      1.0  0.47860  0.05740  0.63780  1.0000 0.0910692103
C   C107      1.0  0.34730  0.96220  0.50610  1.0000 0.0764613282
C   C108      1.0  0.28360  0.93790  0.54210  1.0000 -0.180845892
C   C109      1.0  0.54140  0.13530  0.42810  1.0000 0.5282504801
C   C110      1.0  0.56650  0.19950  0.38280  1.0000 -0.0148346275
C   C111      1.0  0.52850  0.15740  0.29290  1.0000 -0.1296395938
C   C112      1.0  0.55550  0.21630  0.25180  1.0000 -0.1582940667
C   C113      1.0  0.62000  0.31620  0.29760  1.0000 0.0682514068
C   C114      1.0  0.65500  0.35820  0.38640  1.0000 -0.1582940667
C   C115      1.0  0.62730  0.29870  0.42740  1.0000 -0.103441311
C   C116      1.0  0.64930  0.38090  0.25480  1.0000 0.0682514068
C   C117      1.0  0.74260  0.46910  0.29030  1.0000 -0.1426643337
C   C118      1.0  0.76740  0.52640  0.24820  1.0000 -0.1296395938
C   C119      1.0  0.70160  0.50220  0.17200  1.0000 0.0607803688
C   C120      1.0  0.60780  0.41340  0.13400  1.0000 -0.1118019064
C   C121      1.0  0.58290  0.35570  0.17500  1.0000 -0.1296395938
C   C122      1.0  0.72670  0.56830  0.12980  1.0000 0.1282503581
C   C123      1.0  0.78780  0.66770  0.17750  1.0000 -0.2046401519
C   C124      1.0  0.80740  0.72860  0.13780  1.0000 0.0910692103
C   C125      1.0  0.71220  0.59730  0.00610  1.0000 0.0764613282
C   C126      1.0  0.68790  0.53360  0.04210  1.0000 -0.180845892
C   C127      1.0  0.70720  0.11330  0.57190  1.0000 0.5282504801
C   C128      1.0  0.81670  0.18370  0.61720  1.0000 -0.0148346275
C   C129      1.0  0.86450  0.23560  0.70710  1.0000 -0.1296395938
C   C130      1.0  0.96450  0.30370  0.74820  1.0000 -0.1582940667
C   C131      1.0  0.01860  0.32240  0.70240  1.0000 0.0682514068
C   C132      1.0  0.97180  0.26860  0.61360  1.0000 -0.1582940667
C   C133      1.0  0.87130  0.19990  0.57260  1.0000 -0.103441311
C   C134      1.0  0.12610  0.39450  0.74520  1.0000 0.0682514068
C   C135      1.0  0.17880  0.45230  0.70970  1.0000 -0.1426643337
C   C136      1.0  0.27820  0.51920  0.75180  1.0000 -0.1296395938
C   C137      1.0  0.33020  0.52960  0.82800  1.0000 0.0607803688
C   C138      1.0  0.27940  0.47380  0.86600  1.0000 -0.1118019064
C   C139      1.0  0.18070  0.40790  0.82500  1.0000 -0.1296395938
C   C140      1.0  0.43850  0.59690  0.87020  1.0000 0.1282503581
C   C141      1.0  0.49020  0.61030  0.82250  1.0000 -0.2046401519
C   C142      1.0  0.59080  0.66960  0.86220  1.0000 0.0910692103
C   C143      1.0  0.59120  0.70610  0.99390  1.0000 0.0764613282
C   C144      1.0  0.49150  0.64580  0.95790  1.0000 -0.180845892
N   N1        1.0  0.27070  0.21710  0.07580  1.0000 -0.2240035887
N   N2        1.0  0.14130  0.19490  0.92420  1.0000 -0.2240035887
N   N3        1.0  0.96710  0.52070  0.57580  1.0000 -0.2240035887
N   N4        1.0  0.94490  0.39130  0.42420  1.0000 -0.2240035887
N   N5        1.0  0.46710  0.89130  0.44640  1.0000 -0.2240035887
N   N6        1.0  0.44490  0.02070  0.55360  1.0000 -0.2240035887
N   N7        1.0  0.77070  0.69490  0.05360  1.0000 -0.2240035887
N   N8        1.0  0.64130  0.71710  0.94640  1.0000 -0.2240035887
O   O1        1.0  0.08450  0.57670  0.40960  1.0000 -0.4998652692
O   O2        1.0  0.98310  0.59670  0.43860  1.0000 -0.5354438405
O   O3        1.0  0.16710  0.67490  0.59040  1.0000 -0.4998652692
O   O4        1.0  0.15810  0.54450  0.56140  1.0000 -0.5354438405
O   O5        1.0  0.32670  0.33450  0.90960  1.0000 -0.4998652692
O   O6        1.0  0.34670  0.23310  0.93860  1.0000 -0.5354438405
O   O7        1.0  0.42490  0.41710  0.09040  1.0000 -0.4998652692
O   O8        1.0  0.29450  0.40810  0.06140  1.0000 -0.5354438405
O   O9        1.0  0.82670  0.91710  0.99220  1.0000 -0.4998652692
O   O10       1.0  0.84670  0.90810  0.11360  1.0000 -0.5354438405
O   O11       1.0  0.92490  0.83450  0.00780  1.0000 -0.4998652692
O   O12       1.0  0.79450  0.73310  0.88640  1.0000 -0.5354438405
O   O13       1.0  0.58450  0.17490  0.50780  1.0000 -0.4998652692
O   O14       1.0  0.48310  0.04450  0.38640  1.0000 -0.5354438405
O   O15       1.0  0.66710  0.07670  0.49220  1.0000 -0.4998652692
O   O16       1.0  0.65810  0.09670  0.61360  1.0000 -0.5354438405
