# DDEC6 charges by PACMAN v1.1 (https://github.com/mtap-research/PACMAN-charge/)
data_2019[Ni][dia]3[FSR]1
_chemical_formula_sum              "Ni2 H40 C56 N4 O8"
_cell_length_a       13.2265
_cell_length_b       13.2265
_cell_length_c       8.2161
_cell_angle_alpha    85.6364
_cell_angle_beta     94.3636
_cell_angle_gamma    56.4009

_symmetry_space_group_name_H-M    "P 1"
_symmetry_Int_Tables_number       1

loop_
  _symmetry_equiv_pos_as_xyz
  'x, y, z'

loop_
  _atom_site_type_symbol
  _atom_site_label
  _atom_site_symmetry_multiplicity
  _atom_site_fract_x
  _atom_site_fract_y
  _atom_site_fract_z
  _atom_site_occupancy
  _atom_site_charge
Ni  Ni1       1.0  0.25081  0.95475  0.79912  1.0000 0.5766052906
Ni  Ni2       1.0  0.04525  0.74919  0.29912  1.0000 0.5766052906
H   H1        1.0  0.91790  0.84950  0.77650  1.0000 0.1184299307
H   H2        1.0  0.73140  0.39300  0.01740  1.0000 0.1184299307
H   H3        1.0  0.89700  0.01400  0.01320  1.0000 0.1401839931
H   H4        1.0  0.41800  0.65640  0.25960  1.0000 0.1104968343
H   H5        1.0  0.26310  0.86070  0.14290  1.0000 0.1010196045
H   H6        1.0  0.04370  0.20930  0.75960  1.0000 0.1010196045
H   H7        1.0  0.85800  0.32080  0.84310  1.0000 0.1303531857
H   H8        1.0  0.08520  0.90920  0.93630  1.0000 0.1104968343
H   H9        1.0  0.59860  0.54800  0.15980  1.0000 0.1303531857
H   H10       1.0  0.79740  0.88160  0.54000  1.0000 0.1104968343
H   H11       1.0  0.53240  0.30060  0.06600  1.0000 0.1184299307
H   H12       1.0  0.63780  0.90120  0.39440  1.0000 0.1184299307
H   H13       1.0  0.71530  0.78430  0.03260  1.0000 0.1303531857
H   H14       1.0  0.35230  0.40970  0.16530  1.0000 0.1303531857
H   H15       1.0  0.70830  0.20070  0.02040  1.0000 0.1184299307
H   H16       1.0  0.51980  0.98180  0.18070  1.0000 0.1303531857
H   H17       1.0  0.36550  0.83330  0.39180  1.0000 0.14567183
H   H18       1.0  0.48760  0.86840  0.56370  1.0000 0.1401839931
H   H19       1.0  0.58980  0.82560  0.79560  1.0000 0.1303531857
H   H20       1.0  0.40940  0.00820  0.93670  1.0000 0.1184299307
H   H21       1.0  0.15050  0.08210  0.27650  1.0000 0.1184299307
H   H22       1.0  0.60700  0.26860  0.51740  1.0000 0.1184299307
H   H23       1.0  0.98600  0.10300  0.51320  1.0000 0.1401839931
H   H24       1.0  0.34360  0.58200  0.75960  1.0000 0.1104968343
H   H25       1.0  0.13930  0.73690  0.64290  1.0000 0.1010196045
H   H26       1.0  0.79070  0.95630  0.25960  1.0000 0.1010196045
H   H27       1.0  0.67920  0.14200  0.34310  1.0000 0.1303531857
H   H28       1.0  0.09080  0.91480  0.43630  1.0000 0.1104968343
H   H29       1.0  0.45200  0.40140  0.65980  1.0000 0.1303531857
H   H30       1.0  0.11840  0.20260  0.04000  1.0000 0.1104968343
H   H31       1.0  0.69940  0.46760  0.56600  1.0000 0.1184299307
H   H32       1.0  0.09880  0.36220  0.89440  1.0000 0.1184299307
H   H33       1.0  0.21570  0.28470  0.53260  1.0000 0.1303531857
H   H34       1.0  0.59030  0.64770  0.66530  1.0000 0.1303531857
H   H35       1.0  0.79930  0.29170  0.52040  1.0000 0.1184299307
H   H36       1.0  0.01820  0.48020  0.68070  1.0000 0.1303531857
H   H37       1.0  0.16670  0.63450  0.89180  1.0000 0.14567183
H   H38       1.0  0.13160  0.51240  0.06370  1.0000 0.1401839931
H   H39       1.0  0.17440  0.41020  0.29560  1.0000 0.1303531857
H   H40       1.0  0.99180  0.59060  0.43670  1.0000 0.1184299307
C   C1        1.0  0.85068  0.84208  0.78070  1.0000 -0.1083375957
C   C2        1.0  0.36788  0.54488  0.21690  1.0000 -0.0579675134
C   C3        1.0  0.82850  0.81150  0.92340  1.0000 -0.0531070079
C   C4        1.0  0.69321  0.35081  0.03730  1.0000 -0.1319619736
C   C5        1.0  0.92760  0.05740  0.96390  1.0000 -0.2172796176
C   C6        1.0  0.44120  0.58260  0.21740  1.0000 -0.1017398681
C   C7        1.0  0.31706  0.88686  0.15130  1.0000 0.0429210741
C   C8        1.0  0.58230  0.41410  0.10150  1.0000 0.1010196045
C   C9        1.0  0.01420  0.16800  0.81750  1.0000 0.0505480063
C   C10       1.0  0.90473  0.23373  0.86480  1.0000 -0.2172796176
C   C11       1.0  0.85993  0.17853  0.94240  1.0000 0.1303531857
C   C12       1.0  0.03739  0.99639  0.91730  1.0000 0.0505480063
C   C13       1.0  0.54705  0.51885  0.15980  1.0000 -0.1579078898
C   C14       1.0  0.91033  0.78693  0.06820  1.0000 0.4725320939
C   C15       1.0  0.77899  0.86239  0.64260  1.0000 -0.1579078898
C   C16       1.0  0.50869  0.37549  0.10530  1.0000 -0.1579078898
C   C17       1.0  0.61160  0.88260  0.48980  1.0000 -0.1319619736
C   C18       1.0  0.73226  0.80526  0.92980  1.0000 -0.1083375957
C   C19       1.0  0.40327  0.43927  0.16270  1.0000 -0.1161336597
C   C20       1.0  0.74727  0.24227  0.00330  1.0000 -0.147200435
C   C21       1.0  0.68330  0.85670  0.64480  1.0000 0.1010196045
C   C22       1.0  0.24851  0.61911  0.26290  1.0000 0.4751752023
C   C23       1.0  0.46544  0.95604  0.17510  1.0000 -0.2172796176
C   C24       1.0  0.37710  0.86990  0.29740  1.0000 -0.1969884816
C   C25       1.0  0.51745  0.88285  0.46920  1.0000 -0.1319619736
C   C26       1.0  0.45190  0.90370  0.31070  1.0000 0.1303531857
C   C27       1.0  0.65952  0.82872  0.79110  1.0000 -0.1579078898
C   C28       1.0  0.40075  0.97075  0.03310  1.0000 0.0694561232
C   C29       1.0  0.15792  0.14932  0.28070  1.0000 -0.1083375957
C   C30       1.0  0.45512  0.63212  0.71690  1.0000 -0.0579675134
C   C31       1.0  0.18850  0.17150  0.42340  1.0000 -0.0531070079
C   C32       1.0  0.64919  0.30679  0.53730  1.0000 -0.1319619736
C   C33       1.0  0.94260  0.07240  0.46390  1.0000 -0.2172796176
C   C34       1.0  0.41740  0.55880  0.71740  1.0000 -0.1017398681
C   C35       1.0  0.11314  0.68294  0.65130  1.0000 0.0429210741
C   C36       1.0  0.58590  0.41770  0.60150  1.0000 0.1010196045
C   C37       1.0  0.83200  0.98580  0.31750  1.0000 0.0505480063
C   C38       1.0  0.76627  0.09527  0.36480  1.0000 -0.2172796176
C   C39       1.0  0.82147  0.14007  0.44240  1.0000 0.1303531857
C   C40       1.0  0.00361  0.96261  0.41730  1.0000 0.0505480063
C   C41       1.0  0.48115  0.45295  0.65980  1.0000 -0.1579078898
C   C42       1.0  0.21307  0.08967  0.56820  1.0000 0.4725320939
C   C43       1.0  0.13761  0.22101  0.14260  1.0000 -0.1579078898
C   C44       1.0  0.62451  0.49131  0.60530  1.0000 -0.1579078898
C   C45       1.0  0.11740  0.38840  0.98980  1.0000 -0.1319619736
C   C46       1.0  0.19474  0.26774  0.42980  1.0000 -0.1083375957
C   C47       1.0  0.56073  0.59673  0.66270  1.0000 -0.1161336597
C   C48       1.0  0.75773  0.25273  0.50330  1.0000 -0.147200435
C   C49       1.0  0.14330  0.31670  0.14480  1.0000 0.1010196045
C   C50       1.0  0.38089  0.75149  0.76290  1.0000 0.4751752023
C   C51       1.0  0.04396  0.53456  0.67510  1.0000 -0.2172796176
C   C52       1.0  0.13010  0.62290  0.79740  1.0000 -0.1969884816
C   C53       1.0  0.11715  0.48255  0.96920  1.0000 -0.1319619736
C   C54       1.0  0.09630  0.54810  0.81070  1.0000 0.1303531857
C   C55       1.0  0.17128  0.34048  0.29110  1.0000 -0.1579078898
C   C56       1.0  0.02925  0.59925  0.53310  1.0000 0.0694561232
N   N1        1.0  0.08189  0.05069  0.84700  1.0000 -0.2126369472
N   N2        1.0  0.32781  0.93681  0.02060  1.0000 -0.1969884816
N   N3        1.0  0.94931  0.91811  0.34700  1.0000 -0.2126369472
N   N4        1.0  0.06319  0.67219  0.52060  1.0000 -0.1969884816
O   O1        1.0  0.89820  0.75102  0.20070  1.0000 -0.4295785423
O   O2        1.0  0.99069  0.80289  0.05670  1.0000 -0.4089270826
O   O3        1.0  0.21244  0.71750  0.30590  1.0000 -0.4177500303
O   O4        1.0  0.18098  0.58392  0.25230  1.0000 -0.4177500303
O   O5        1.0  0.24898  0.10180  0.70070  1.0000 -0.4295785423
O   O6        1.0  0.19711  0.00931  0.55670  1.0000 -0.4089270826
O   O7        1.0  0.28250  0.78756  0.80590  1.0000 -0.4177500303
O   O8        1.0  0.41608  0.81902  0.75230  1.0000 -0.4177500303
