# DDEC6 charges by PACMAN v1.1 (https://github.com/mtap-research/PACMAN-charge/)
data_2019[Cu][bto]3[FSR]13
_chemical_formula_sum              "Cu6 H36 C42 N18 O18"
_cell_length_a       10.7877
_cell_length_b       10.7877
_cell_length_c       17.088
_cell_angle_alpha    90
_cell_angle_beta     90
_cell_angle_gamma    120

_symmetry_space_group_name_H-M    "P 1"
_symmetry_Int_Tables_number       1

loop_
  _symmetry_equiv_pos_as_xyz
  'x, y, z'

loop_
  _atom_site_type_symbol
  _atom_site_label
  _atom_site_symmetry_multiplicity
  _atom_site_fract_x
  _atom_site_fract_y
  _atom_site_fract_z
  _atom_site_occupancy
  _atom_site_charge
Cu  Cu1       1.0  0.29146  0.42648  0.86362  1.0000 0.7478748022
Cu  Cu2       1.0  0.13502  0.70854  0.53029  1.0000 0.7478748022
Cu  Cu3       1.0  0.57352  0.86498  0.19696  1.0000 0.7478748022
Cu  Cu4       1.0  0.86498  0.57352  0.80304  1.0000 0.7478748022
Cu  Cu5       1.0  0.42648  0.29146  0.13637  1.0000 0.7478748022
Cu  Cu6       1.0  0.70854  0.13502  0.46971  1.0000 0.7478748022
H   H1        1.0  0.32350  0.55550  0.69173  1.0000 0.1229874252
H   H2        1.0  0.42450  0.15830  0.89224  1.0000 0.0984148255
H   H3        1.0  0.39280  0.46820  0.58144  1.0000 0.3067081033
H   H4        1.0  0.42190  0.26400  0.61904  1.0000 0.1405304778
H   H5        1.0  0.37790  0.12100  0.75553  1.0000 0.1303635757
H   H6        1.0  0.24870  0.12070  0.79744  1.0000 0.1303635757
H   H7        1.0  0.23200  0.67650  0.35840  1.0000 0.1229874252
H   H8        1.0  0.73380  0.57550  0.55890  1.0000 0.0984148255
H   H9        1.0  0.07540  0.60720  0.24810  1.0000 0.3067081033
H   H10       1.0  0.84210  0.57810  0.28570  1.0000 0.1405304778
H   H11       1.0  0.74310  0.62210  0.42220  1.0000 0.1303635757
H   H12       1.0  0.87200  0.75130  0.46410  1.0000 0.1303635757
H   H13       1.0  0.44450  0.76800  0.02507  1.0000 0.1229874252
H   H14       1.0  0.84170  0.26620  0.22557  1.0000 0.0984148255
H   H15       1.0  0.53180  0.92460  0.91477  1.0000 0.3067081033
H   H16       1.0  0.73600  0.15790  0.95237  1.0000 0.1405304778
H   H17       1.0  0.87900  0.25690  0.08887  1.0000 0.1303635757
H   H18       1.0  0.87930  0.12800  0.13077  1.0000 0.1303635757
H   H19       1.0  0.76800  0.44450  0.97493  1.0000 0.1229874252
H   H20       1.0  0.26620  0.84170  0.77443  1.0000 0.0984148255
H   H21       1.0  0.92460  0.53180  0.08523  1.0000 0.3067081033
H   H22       1.0  0.15790  0.73600  0.04763  1.0000 0.1405304778
H   H23       1.0  0.25690  0.87900  0.91113  1.0000 0.1303635757
H   H24       1.0  0.12800  0.87930  0.86923  1.0000 0.1303635757
H   H25       1.0  0.55550  0.32350  0.30827  1.0000 0.1229874252
H   H26       1.0  0.15830  0.42450  0.10776  1.0000 0.0984148255
H   H27       1.0  0.46820  0.39280  0.41857  1.0000 0.3067081033
H   H28       1.0  0.26400  0.42190  0.38096  1.0000 0.1405304778
H   H29       1.0  0.12100  0.37790  0.24446  1.0000 0.1303635757
H   H30       1.0  0.12070  0.24870  0.20256  1.0000 0.1303635757
H   H31       1.0  0.67650  0.23200  0.64160  1.0000 0.1229874252
H   H32       1.0  0.57550  0.73380  0.44110  1.0000 0.0984148255
H   H33       1.0  0.60720  0.07540  0.75190  1.0000 0.3067081033
H   H34       1.0  0.57810  0.84210  0.71430  1.0000 0.1405304778
H   H35       1.0  0.62210  0.74310  0.57780  1.0000 0.1303635757
H   H36       1.0  0.75130  0.87200  0.53590  1.0000 0.1303635757
C   C1        1.0  0.34030  0.47890  0.69114  1.0000 0.179605388
C   C2        1.0  0.36060  0.29570  0.72774  1.0000 0.179605388
C   C3        1.0  0.40200  0.33250  0.98074  1.0000 0.3241214959
C   C4        1.0  0.44020  0.23970  0.85964  1.0000 0.0304252185
C   C5        1.0  0.39440  0.31650  0.65053  1.0000 -0.1196205732
C   C6        1.0  0.34830  0.18070  0.78294  1.0000 -0.2813405138
C   C7        1.0  0.60140  0.32600  0.83683  1.0000 0.5648709594
C   C8        1.0  0.13860  0.65970  0.35780  1.0000 0.179605388
C   C9        1.0  0.93510  0.63940  0.39440  1.0000 0.179605388
C   C10       1.0  0.93050  0.59800  0.64740  1.0000 0.3241214959
C   C11       1.0  0.79950  0.55980  0.52630  1.0000 0.0304252185
C   C12       1.0  0.92210  0.60560  0.31720  1.0000 -0.1196205732
C   C13       1.0  0.83240  0.65170  0.44960  1.0000 -0.2813405138
C   C14       1.0  0.72460  0.39860  0.50350  1.0000 0.5648709594
C   C15       1.0  0.52110  0.86140  0.02447  1.0000 0.179605388
C   C16       1.0  0.70430  0.06490  0.06107  1.0000 0.179605388
C   C17       1.0  0.66750  0.06950  0.31407  1.0000 0.3241214959
C   C18       1.0  0.76030  0.20050  0.19297  1.0000 0.0304252185
C   C19       1.0  0.68350  0.07790  0.98387  1.0000 -0.1196205732
C   C20       1.0  0.81930  0.16760  0.11627  1.0000 -0.2813405138
C   C21       1.0  0.67400  0.27540  0.17017  1.0000 0.5648709594
C   C22       1.0  0.86140  0.52110  0.97553  1.0000 0.179605388
C   C23       1.0  0.06490  0.70430  0.93893  1.0000 0.179605388
C   C24       1.0  0.06950  0.66750  0.68593  1.0000 0.3241214959
C   C25       1.0  0.20050  0.76030  0.80703  1.0000 0.0304252185
C   C26       1.0  0.07790  0.68350  0.01613  1.0000 -0.1196205732
C   C27       1.0  0.16760  0.81930  0.88373  1.0000 -0.2813405138
C   C28       1.0  0.27540  0.67400  0.82983  1.0000 0.5648709594
C   C29       1.0  0.47890  0.34030  0.30887  1.0000 0.179605388
C   C30       1.0  0.29570  0.36060  0.27226  1.0000 0.179605388
C   C31       1.0  0.33250  0.40200  0.01927  1.0000 0.3241214959
C   C32       1.0  0.23970  0.44020  0.14036  1.0000 0.0304252185
C   C33       1.0  0.31650  0.39440  0.34947  1.0000 -0.1196205732
C   C34       1.0  0.18070  0.34830  0.21707  1.0000 -0.2813405138
C   C35       1.0  0.32600  0.60140  0.16317  1.0000 0.5648709594
C   C36       1.0  0.65970  0.13860  0.64220  1.0000 0.179605388
C   C37       1.0  0.63940  0.93510  0.60560  1.0000 0.179605388
C   C38       1.0  0.59800  0.93050  0.35260  1.0000 0.3241214959
C   C39       1.0  0.55980  0.79950  0.47370  1.0000 0.0304252185
C   C40       1.0  0.60560  0.92210  0.68280  1.0000 -0.1196205732
C   C41       1.0  0.65170  0.83240  0.55040  1.0000 -0.2813405138
C   C42       1.0  0.39860  0.72460  0.49650  1.0000 0.5648709594
N   N1        1.0  0.32920  0.39970  0.75194  1.0000 -0.3558233869
N   N2        1.0  0.39100  0.32480  0.90294  1.0000 -0.4187301538
N   N3        1.0  0.37940  0.43260  0.62774  1.0000 -0.1885237338
N   N4        1.0  0.07050  0.67080  0.41860  1.0000 -0.3558233869
N   N5        1.0  0.93380  0.60900  0.56960  1.0000 -0.4187301538
N   N6        1.0  0.05320  0.62060  0.29440  1.0000 -0.1885237338
N   N7        1.0  0.60030  0.92950  0.08527  1.0000 -0.3558233869
N   N8        1.0  0.67520  0.06620  0.23627  1.0000 -0.4187301538
N   N9        1.0  0.56740  0.94680  0.96107  1.0000 -0.1885237338
N   N10       1.0  0.92950  0.60030  0.91473  1.0000 -0.3558233869
N   N11       1.0  0.06620  0.67520  0.76373  1.0000 -0.4187301538
N   N12       1.0  0.94680  0.56740  0.03893  1.0000 -0.1885237338
N   N13       1.0  0.39970  0.32920  0.24807  1.0000 -0.3558233869
N   N14       1.0  0.32480  0.39100  0.09706  1.0000 -0.4187301538
N   N15       1.0  0.43260  0.37940  0.37227  1.0000 -0.1885237338
N   N16       1.0  0.67080  0.07050  0.58140  1.0000 -0.3558233869
N   N17       1.0  0.60900  0.93380  0.43040  1.0000 -0.4187301538
N   N18       1.0  0.62060  0.05320  0.70560  1.0000 -0.1885237338
O   O1        1.0  0.27750  0.46170  0.97734  1.0000 -0.4699421318
O   O2        1.0  0.19840  0.53670  0.83213  1.0000 -0.5188925209
O   O3        1.0  0.66210  0.25490  0.82193  1.0000 -0.6029982211
O   O4        1.0  0.18420  0.72250  0.64400  1.0000 -0.4699421318
O   O5        1.0  0.33830  0.80160  0.49880  1.0000 -0.5188925209
O   O6        1.0  0.59280  0.33790  0.48860  1.0000 -0.6029982211
O   O7        1.0  0.53830  0.81580  0.31067  1.0000 -0.4699421318
O   O8        1.0  0.46330  0.66170  0.16547  1.0000 -0.5188925209
O   O9        1.0  0.74510  0.40720  0.15527  1.0000 -0.6029982211
O   O10       1.0  0.81580  0.53830  0.68933  1.0000 -0.4699421318
O   O11       1.0  0.66170  0.46330  0.83453  1.0000 -0.5188925209
O   O12       1.0  0.40720  0.74510  0.84473  1.0000 -0.6029982211
O   O13       1.0  0.46170  0.27750  0.02267  1.0000 -0.4699421318
O   O14       1.0  0.53670  0.19840  0.16786  1.0000 -0.5188925209
O   O15       1.0  0.25490  0.66210  0.17807  1.0000 -0.6029982211
O   O16       1.0  0.72250  0.18420  0.35600  1.0000 -0.4699421318
O   O17       1.0  0.80160  0.33830  0.50120  1.0000 -0.5188925209
O   O18       1.0  0.33790  0.59280  0.51140  1.0000 -0.6029982211
