# DDEC6 charges by PACMAN v1.1 (https://github.com/mtap-research/PACMAN-charge/)
data_2019[Co][hex]3[FSR]3
_chemical_formula_sum              "Co6 H64 C68 N12 O28"
_cell_length_a       16.3934
_cell_length_b       16.3934
_cell_length_c       18.028
_cell_angle_alpha    62.6837
_cell_angle_beta     117.316
_cell_angle_gamma    145.963

_symmetry_space_group_name_H-M    "P 1"
_symmetry_Int_Tables_number       1

loop_
  _symmetry_equiv_pos_as_xyz
  'x, y, z'

loop_
  _atom_site_type_symbol
  _atom_site_label
  _atom_site_symmetry_multiplicity
  _atom_site_fract_x
  _atom_site_fract_y
  _atom_site_fract_z
  _atom_site_occupancy
  _atom_site_charge
Co  Co1       1.0  0.44540  0.19534  0.39745  1.0000 0.8830333357
Co  Co2       1.0  0.19534  0.44540  0.10255  1.0000 0.8830333357
Co  Co3       1.0  0.55460  0.80466  0.60255  1.0000 0.8830333357
Co  Co4       1.0  0.80466  0.55460  0.89745  1.0000 0.8830333357
Co  Co5       1.0  0.50000  0.00000  0.50000  1.0000 1.0731653427
Co  Co6       1.0  0.00000  0.50000  0.00000  1.0000 1.0731653427
H   H1        1.0  0.21860  0.10380  0.43510  1.0000 0.3096830105
H   H2        1.0  0.20220  0.18520  0.43010  1.0000 0.2979131197
H   H3        1.0  0.35610  0.24330  0.20830  1.0000 0.1198772585
H   H4        1.0  0.17330  0.96670  0.18200  1.0000 0.1105190744
H   H5        1.0  0.04980  0.85080  0.06660  1.0000 0.1105190744
H   H6        1.0  0.26880  0.78680  0.15010  1.0000 0.1198772585
H   H7        1.0  0.38420  0.89300  0.26800  1.0000 0.1198772585
H   H8        1.0  0.52360  0.21640  0.57280  1.0000 0.1105190744
H   H9        1.0  0.59630  0.25130  0.71070  1.0000 0.1298809007
H   H10       1.0  0.70170  0.41250  0.71980  1.0000 0.1484816527
H   H11       1.0  0.52680  0.28260  0.71190  1.0000 0.1484816527
H   H12       1.0  0.69230  0.56370  0.52700  1.0000 0.1484816527
H   H13       1.0  0.53190  0.45430  0.54050  1.0000 0.1298809007
H   H14       1.0  0.67010  0.54390  0.61400  1.0000 0.1298809007
H   H15       1.0  0.18170  0.70530  0.41320  1.0000 0.1198772585
H   H16       1.0  0.93870  0.56670  0.36120  1.0000 0.1198772585
H   H17       1.0  0.10380  0.21860  0.06490  1.0000 0.3096830105
H   H18       1.0  0.18520  0.20220  0.06990  1.0000 0.2979131197
H   H19       1.0  0.24330  0.35610  0.29170  1.0000 0.1198772585
H   H20       1.0  0.96670  0.17330  0.31800  1.0000 0.1105190744
H   H21       1.0  0.85080  0.04980  0.43340  1.0000 0.1105190744
H   H22       1.0  0.78680  0.26880  0.34990  1.0000 0.1198772585
H   H23       1.0  0.89300  0.38420  0.23200  1.0000 0.1198772585
H   H24       1.0  0.21640  0.52360  0.92720  1.0000 0.1105190744
H   H25       1.0  0.25130  0.59630  0.78930  1.0000 0.1298809007
H   H26       1.0  0.41250  0.70170  0.78020  1.0000 0.1484816527
H   H27       1.0  0.28260  0.52680  0.78810  1.0000 0.1484816527
H   H28       1.0  0.56370  0.69230  0.97300  1.0000 0.1484816527
H   H29       1.0  0.45430  0.53190  0.95950  1.0000 0.1298809007
H   H30       1.0  0.54390  0.67010  0.88600  1.0000 0.1298809007
H   H31       1.0  0.70530  0.18170  0.08680  1.0000 0.1198772585
H   H32       1.0  0.56670  0.93870  0.13880  1.0000 0.1198772585
H   H33       1.0  0.78140  0.89620  0.56490  1.0000 0.3096830105
H   H34       1.0  0.79780  0.81480  0.56990  1.0000 0.2979131197
H   H35       1.0  0.64390  0.75670  0.79170  1.0000 0.1198772585
H   H36       1.0  0.82670  0.03330  0.81800  1.0000 0.1105190744
H   H37       1.0  0.95020  0.14920  0.93340  1.0000 0.1105190744
H   H38       1.0  0.73120  0.21320  0.84990  1.0000 0.1198772585
H   H39       1.0  0.61580  0.10700  0.73200  1.0000 0.1198772585
H   H40       1.0  0.47640  0.78360  0.42720  1.0000 0.1105190744
H   H41       1.0  0.40370  0.74870  0.28930  1.0000 0.1298809007
H   H42       1.0  0.29830  0.58750  0.28020  1.0000 0.1484816527
H   H43       1.0  0.47320  0.71740  0.28810  1.0000 0.1484816527
H   H44       1.0  0.30770  0.43630  0.47300  1.0000 0.1484816527
H   H45       1.0  0.46810  0.54570  0.45950  1.0000 0.1298809007
H   H46       1.0  0.32990  0.45610  0.38600  1.0000 0.1298809007
H   H47       1.0  0.81830  0.29470  0.58680  1.0000 0.1198772585
H   H48       1.0  0.06130  0.43330  0.63880  1.0000 0.1198772585
H   H49       1.0  0.89620  0.78140  0.93510  1.0000 0.3096830105
H   H50       1.0  0.81480  0.79780  0.93010  1.0000 0.2979131197
H   H51       1.0  0.75670  0.64390  0.70830  1.0000 0.1198772585
H   H52       1.0  0.03330  0.82670  0.68200  1.0000 0.1105190744
H   H53       1.0  0.14920  0.95020  0.56660  1.0000 0.1105190744
H   H54       1.0  0.21320  0.73120  0.65010  1.0000 0.1198772585
H   H55       1.0  0.10700  0.61580  0.76800  1.0000 0.1198772585
H   H56       1.0  0.78360  0.47640  0.07280  1.0000 0.1105190744
H   H57       1.0  0.74870  0.40370  0.21070  1.0000 0.1298809007
H   H58       1.0  0.58750  0.29830  0.21980  1.0000 0.1484816527
H   H59       1.0  0.71740  0.47320  0.21190  1.0000 0.1484816527
H   H60       1.0  0.43630  0.30770  0.02700  1.0000 0.1484816527
H   H61       1.0  0.54570  0.46810  0.04050  1.0000 0.1298809007
H   H62       1.0  0.45610  0.32990  0.11400  1.0000 0.1298809007
H   H63       1.0  0.29470  0.81830  0.91320  1.0000 0.1198772585
H   H64       1.0  0.43330  0.06130  0.86120  1.0000 0.1198772585
C   C1        1.0  0.33660  0.26980  0.22840  1.0000 -0.0472326981
C   C2        1.0  0.31780  0.28680  0.33050  1.0000 0.2979131197
C   C3        1.0  0.36684  0.00956  0.31430  1.0000 0.5794556145
C   C4        1.0  0.29251  0.94289  0.23610  1.0000 -0.0112784295
C   C5        1.0  0.19280  0.92940  0.17600  1.0000 -0.123940512
C   C6        1.0  0.12060  0.86200  0.10670  1.0000 -0.1280497755
C   C7        1.0  0.15030  0.81130  0.09550  1.0000 -0.0161803881
C   C8        1.0  0.24850  0.82310  0.15620  1.0000 -0.1005879412
C   C9        1.0  0.31780  0.88720  0.22610  1.0000 -0.1129247709
C   C10       1.0  0.06958  0.73302  0.02260  1.0000 0.5875938391
C   C11       1.0  0.55220  0.30140  0.55090  1.0000 0.2945382451
C   C12       1.0  0.60560  0.32460  0.69360  1.0000 -0.3213348831
C   C13       1.0  0.62500  0.49360  0.56830  1.0000 -0.3726460035
C   C14       1.0  0.29985  0.66995  0.56390  1.0000 0.5586038684
C   C15       1.0  0.14384  0.58196  0.53100  1.0000 0.0031709769
C   C16       1.0  0.10767  0.62193  0.44830  1.0000 -0.0932687739
C   C17       1.0  0.96390  0.53990  0.41760  1.0000 -0.1129247709
C   C18       1.0  0.26980  0.33660  0.27160  1.0000 -0.0472326981
C   C19       1.0  0.28680  0.31780  0.16950  1.0000 0.2979131197
C   C20       1.0  0.00956  0.36684  0.18570  1.0000 0.5794556145
C   C21       1.0  0.94289  0.29251  0.26390  1.0000 -0.0112784295
C   C22       1.0  0.92940  0.19280  0.32400  1.0000 -0.123940512
C   C23       1.0  0.86200  0.12060  0.39330  1.0000 -0.1280497755
C   C24       1.0  0.81130  0.15030  0.40450  1.0000 -0.0161803881
C   C25       1.0  0.82310  0.24850  0.34380  1.0000 -0.1005879412
C   C26       1.0  0.88720  0.31780  0.27390  1.0000 -0.1129247709
C   C27       1.0  0.73302  0.06958  0.47740  1.0000 0.5875938391
C   C28       1.0  0.30140  0.55220  0.94910  1.0000 0.2945382451
C   C29       1.0  0.32460  0.60560  0.80640  1.0000 -0.3213348831
C   C30       1.0  0.49360  0.62500  0.93170  1.0000 -0.3726460035
C   C31       1.0  0.66995  0.29985  0.93610  1.0000 0.5586038684
C   C32       1.0  0.58196  0.14384  0.96900  1.0000 0.0031709769
C   C33       1.0  0.62193  0.10767  0.05170  1.0000 -0.0932687739
C   C34       1.0  0.53990  0.96390  0.08240  1.0000 -0.1129247709
C   C35       1.0  0.66340  0.73020  0.77160  1.0000 -0.0472326981
C   C36       1.0  0.68220  0.71320  0.66950  1.0000 0.2979131197
C   C37       1.0  0.63316  0.99044  0.68570  1.0000 0.5794556145
C   C38       1.0  0.70749  0.05711  0.76390  1.0000 -0.0112784295
C   C39       1.0  0.80720  0.07060  0.82400  1.0000 -0.123940512
C   C40       1.0  0.87940  0.13800  0.89330  1.0000 -0.1280497755
C   C41       1.0  0.84970  0.18870  0.90450  1.0000 -0.0161803881
C   C42       1.0  0.75150  0.17690  0.84380  1.0000 -0.1005879412
C   C43       1.0  0.68220  0.11280  0.77390  1.0000 -0.1129247709
C   C44       1.0  0.93042  0.26698  0.97740  1.0000 0.5875938391
C   C45       1.0  0.44780  0.69860  0.44910  1.0000 0.2945382451
C   C46       1.0  0.39440  0.67540  0.30640  1.0000 -0.3213348831
C   C47       1.0  0.37500  0.50640  0.43170  1.0000 -0.3726460035
C   C48       1.0  0.70015  0.33005  0.43610  1.0000 0.5586038684
C   C49       1.0  0.85616  0.41804  0.46900  1.0000 0.0031709769
C   C50       1.0  0.89233  0.37807  0.55170  1.0000 -0.0932687739
C   C51       1.0  0.03610  0.46010  0.58240  1.0000 -0.1129247709
C   C52       1.0  0.73020  0.66340  0.72840  1.0000 -0.0472326981
C   C53       1.0  0.71320  0.68220  0.83050  1.0000 0.2979131197
C   C54       1.0  0.99044  0.63316  0.81430  1.0000 0.5794556145
C   C55       1.0  0.05711  0.70749  0.73610  1.0000 -0.0112784295
C   C56       1.0  0.07060  0.80720  0.67600  1.0000 -0.123940512
C   C57       1.0  0.13800  0.87940  0.60670  1.0000 -0.1280497755
C   C58       1.0  0.18870  0.84970  0.59550  1.0000 -0.0161803881
C   C59       1.0  0.17690  0.75150  0.65620  1.0000 -0.1005879412
C   C60       1.0  0.11280  0.68220  0.72610  1.0000 -0.1129247709
C   C61       1.0  0.26698  0.93042  0.52260  1.0000 0.5875938391
C   C62       1.0  0.69860  0.44780  0.05090  1.0000 0.2945382451
C   C63       1.0  0.67540  0.39440  0.19360  1.0000 -0.3213348831
C   C64       1.0  0.50640  0.37500  0.06830  1.0000 -0.3726460035
C   C65       1.0  0.33005  0.70015  0.06390  1.0000 0.5586038684
C   C66       1.0  0.41804  0.85616  0.03100  1.0000 0.0031709769
C   C67       1.0  0.37807  0.89233  0.94830  1.0000 -0.0932687739
C   C68       1.0  0.46010  0.03610  0.91760  1.0000 -0.1129247709
N   N1        1.0  0.35792  0.25888  0.30850  1.0000 -0.2398240264
N   N2        1.0  0.23360  0.17520  0.41050  1.0000 -0.6614898885
N   N3        1.0  0.59400  0.36340  0.60590  1.0000 0.0458433335
N   N4        1.0  0.25888  0.35792  0.19150  1.0000 -0.2398240264
N   N5        1.0  0.17520  0.23360  0.08950  1.0000 -0.6614898885
N   N6        1.0  0.36340  0.59400  0.89410  1.0000 0.0458433335
N   N7        1.0  0.64208  0.74112  0.69150  1.0000 -0.2398240264
N   N8        1.0  0.76640  0.82480  0.58950  1.0000 -0.6614898885
N   N9        1.0  0.40600  0.63660  0.39410  1.0000 0.0458433335
N   N10       1.0  0.74112  0.64208  0.80850  1.0000 -0.2398240264
N   N11       1.0  0.82480  0.76640  0.91050  1.0000 -0.6614898885
N   N12       1.0  0.63660  0.40600  0.10590  1.0000 0.0458433335
O   O1        1.0  0.35783  0.07977  0.31290  1.0000 -0.5716796363
O   O2        1.0  0.43079  0.99001  0.37300  1.0000 -0.5567826091
O   O3        1.0  0.97175  0.71565  0.97170  1.0000 -0.5798374111
O   O4        1.0  0.10164  0.68816  0.01780  1.0000 -0.5567826091
O   O5        1.0  0.54371  0.33569  0.47460  1.0000 -0.4201890672
O   O6        1.0  0.40185  0.79495  0.52110  1.0000 -0.6117929364
O   O7        1.0  0.33032  0.62088  0.63040  1.0000 -0.5221888418
O   O8        1.0  0.07977  0.35783  0.18710  1.0000 -0.5716796363
O   O9        1.0  0.99001  0.43079  0.12700  1.0000 -0.5567826091
O   O10       1.0  0.71565  0.97175  0.52830  1.0000 -0.5798374111
O   O11       1.0  0.68816  0.10164  0.48220  1.0000 -0.5567826091
O   O12       1.0  0.33569  0.54371  0.02540  1.0000 -0.4201890672
O   O13       1.0  0.79495  0.40185  0.97890  1.0000 -0.6117929364
O   O14       1.0  0.62088  0.33032  0.86960  1.0000 -0.5221888418
O   O15       1.0  0.64217  0.92023  0.68710  1.0000 -0.5716796363
O   O16       1.0  0.56921  0.00999  0.62700  1.0000 -0.5567826091
O   O17       1.0  0.02825  0.28435  0.02830  1.0000 -0.5798374111
O   O18       1.0  0.89836  0.31184  0.98220  1.0000 -0.5567826091
O   O19       1.0  0.45629  0.66431  0.52540  1.0000 -0.4201890672
O   O20       1.0  0.59815  0.20505  0.47890  1.0000 -0.6117929364
O   O21       1.0  0.66968  0.37912  0.36960  1.0000 -0.5221888418
O   O22       1.0  0.92023  0.64217  0.81290  1.0000 -0.5716796363
O   O23       1.0  0.00999  0.56921  0.87300  1.0000 -0.554487958
O   O24       1.0  0.28435  0.02825  0.47170  1.0000 -0.5798374111
O   O25       1.0  0.31184  0.89836  0.51780  1.0000 -0.5567826091
O   O26       1.0  0.66431  0.45629  0.97460  1.0000 -0.4201890672
O   O27       1.0  0.20505  0.59815  0.02110  1.0000 -0.6117929364
O   O28       1.0  0.37912  0.66968  0.13040  1.0000 -0.5221888418
