# DDEC6 charges by PACMAN v1.1 (https://github.com/mtap-research/PACMAN-charge/)
data_2019[Cu][nan]2[FSR]4
_chemical_formula_sum              "Cu4 H64 C96 N16"
_cell_length_a       16.753
_cell_length_b       16.753
_cell_length_c       19.918
_cell_angle_alpha    54.0805
_cell_angle_beta     125.92
_cell_angle_gamma    118.291

_symmetry_space_group_name_H-M    "P 1"
_symmetry_Int_Tables_number       1

loop_
  _symmetry_equiv_pos_as_xyz
  'x, y, z'

loop_
  _atom_site_type_symbol
  _atom_site_label
  _atom_site_symmetry_multiplicity
  _atom_site_fract_x
  _atom_site_fract_y
  _atom_site_fract_z
  _atom_site_occupancy
  _atom_site_charge
Cu  Cu1       1.0  0.80597  0.19439  0.93152  1.0000 0.2163014428
Cu  Cu2       1.0  0.80561  0.19403  0.43152  1.0000 0.2163014428
Cu  Cu3       1.0  0.19439  0.80597  0.56848  1.0000 0.2143474287
Cu  Cu4       1.0  0.19403  0.80561  0.06848  1.0000 0.2163014428
H   H1        1.0  0.88616  0.04510  0.96564  1.0000 0.0984984215
H   H2        1.0  0.89891  0.87657  0.06013  1.0000 0.1224242831
H   H3        1.0  0.72837  0.84867  0.15852  1.0000 0.1224242831
H   H4        1.0  0.71994  0.01758  0.06156  1.0000 0.0984984215
H   H5        1.0  0.93741  0.55063  0.25605  1.0000 0.1224242831
H   H6        1.0  0.92793  0.37795  0.33499  1.0000 0.0984984215
H   H7        1.0  0.73657  0.34197  0.40919  1.0000 0.0984984215
H   H8        1.0  0.74075  0.51247  0.33436  1.0000 0.1387859524
H   H9        1.0  0.70698  0.32332  0.73505  1.0000 0.0984984215
H   H10       1.0  0.69777  0.49147  0.63547  1.0000 0.1387859524
H   H11       1.0  0.90649  0.56071  0.85016  1.0000 0.1294950722
H   H12       1.0  0.91037  0.39215  0.94475  1.0000 0.0984984215
H   H13       1.0  0.87447  0.86397  0.69310  1.0000 0.1224242831
H   H14       1.0  0.87015  0.03091  0.62021  1.0000 0.0984984215
H   H15       1.0  0.69560  0.02266  0.37921  1.0000 0.0937231491
H   H16       1.0  0.68651  0.85093  0.44777  1.0000 0.1294950722
H   H17       1.0  0.95490  0.11384  0.46564  1.0000 0.0984984215
H   H18       1.0  0.12343  0.10109  0.56013  1.0000 0.1224242831
H   H19       1.0  0.15133  0.27163  0.65852  1.0000 0.1224242831
H   H20       1.0  0.98242  0.28006  0.56156  1.0000 0.0984984215
H   H21       1.0  0.44937  0.06259  0.75605  1.0000 0.1224242831
H   H22       1.0  0.62205  0.07207  0.83499  1.0000 0.0984984215
H   H23       1.0  0.65803  0.26343  0.90919  1.0000 0.0984984215
H   H24       1.0  0.48753  0.25925  0.83436  1.0000 0.1387859524
H   H25       1.0  0.67668  0.29302  0.23505  1.0000 0.0984984215
H   H26       1.0  0.50853  0.30223  0.13547  1.0000 0.1387859524
H   H27       1.0  0.43929  0.09351  0.35016  1.0000 0.1294950722
H   H28       1.0  0.60785  0.08963  0.44475  1.0000 0.0984984215
H   H29       1.0  0.13603  0.12552  0.19310  1.0000 0.1224242831
H   H30       1.0  0.96909  0.12985  0.12021  1.0000 0.0984984215
H   H31       1.0  0.97734  0.30440  0.87921  1.0000 0.0937231491
H   H32       1.0  0.14907  0.31349  0.94777  1.0000 0.1294950722
H   H33       1.0  0.04510  0.88616  0.53436  1.0000 0.0984984215
H   H34       1.0  0.87657  0.89891  0.43987  1.0000 0.1224242831
H   H35       1.0  0.84867  0.72837  0.34148  1.0000 0.1224242831
H   H36       1.0  0.01758  0.71994  0.43844  1.0000 0.0984984215
H   H37       1.0  0.55063  0.93741  0.24395  1.0000 0.1224242831
H   H38       1.0  0.37795  0.92793  0.16501  1.0000 0.0984984215
H   H39       1.0  0.34197  0.73657  0.09081  1.0000 0.0984984215
H   H40       1.0  0.51247  0.74075  0.16564  1.0000 0.1387859524
H   H41       1.0  0.32332  0.70698  0.76495  1.0000 0.0984984215
H   H42       1.0  0.49147  0.69777  0.86453  1.0000 0.1387859524
H   H43       1.0  0.56071  0.90649  0.64984  1.0000 0.1294950722
H   H44       1.0  0.39215  0.91037  0.55525  1.0000 0.0984984215
H   H45       1.0  0.86397  0.87448  0.80690  1.0000 0.1224242831
H   H46       1.0  0.03091  0.87015  0.87979  1.0000 0.0984984215
H   H47       1.0  0.02266  0.69560  0.12079  1.0000 0.0937231491
H   H48       1.0  0.85093  0.68651  0.05223  1.0000 0.1294950722
H   H49       1.0  0.11384  0.95490  0.03436  1.0000 0.0984984215
H   H50       1.0  0.10109  0.12343  0.93987  1.0000 0.1224242831
H   H51       1.0  0.27163  0.15133  0.84148  1.0000 0.1224242831
H   H52       1.0  0.28006  0.98242  0.93844  1.0000 0.0984984215
H   H53       1.0  0.06259  0.44937  0.74395  1.0000 0.1224242831
H   H54       1.0  0.07207  0.62205  0.66501  1.0000 0.0984984215
H   H55       1.0  0.26343  0.65803  0.59081  1.0000 0.0984984215
H   H56       1.0  0.25925  0.48753  0.66564  1.0000 0.1387859524
H   H57       1.0  0.29302  0.67668  0.26495  1.0000 0.0984984215
H   H58       1.0  0.30223  0.50853  0.36453  1.0000 0.1387859524
H   H59       1.0  0.09351  0.43929  0.14984  1.0000 0.1294950722
H   H60       1.0  0.08963  0.60785  0.05525  1.0000 0.0984984215
H   H61       1.0  0.12552  0.13602  0.30690  1.0000 0.1224242831
H   H62       1.0  0.12985  0.96909  0.37979  1.0000 0.0984984215
H   H63       1.0  0.30440  0.97734  0.62079  1.0000 0.0937231491
H   H64       1.0  0.31349  0.14907  0.55223  1.0000 0.1294950722
C   C1        1.0  0.85410  0.00430  0.00560  1.0000 0.04866787
C   C2        1.0  0.86180  0.90380  0.06170  1.0000 -0.2084268918
C   C3        1.0  0.81540  0.84340  0.11990  1.0000 0.147702585
C   C4        1.0  0.76140  0.88760  0.11950  1.0000 -0.2084268918
C   C5        1.0  0.75670  0.98830  0.06180  1.0000 0.04866787
C   C6        1.0  0.82530  0.74070  0.17940  1.0000 -0.1014206549
C   C7        1.0  0.83200  0.65520  0.22690  1.0000 -0.1014206549
C   C8        1.0  0.83600  0.55080  0.28160  1.0000 0.147702585
C   C9        1.0  0.89420  0.50880  0.28580  1.0000 -0.2176850987
C   C10       1.0  0.88870  0.40590  0.33340  1.0000 0.04866787
C   C11       1.0  0.77690  0.38570  0.37660  1.0000 0.0363483108
C   C12       1.0  0.77800  0.48660  0.33180  1.0000 -0.2084268918
C   C13       1.0  0.74710  0.37210  0.75870  1.0000 0.04866787
C   C14       1.0  0.74170  0.47250  0.69910  1.0000 -0.2084268918
C   C15       1.0  0.79940  0.54480  0.73160  1.0000 0.1387859524
C   C16       1.0  0.86410  0.51310  0.82520  1.0000 -0.2084268918
C   C17       1.0  0.86620  0.41280  0.88110  1.0000 0.0214671036
C   C18       1.0  0.79190  0.64790  0.67330  1.0000 -0.0862136958
C   C19       1.0  0.78500  0.73360  0.62610  1.0000 -0.1014206549
C   C20       1.0  0.78070  0.83710  0.57960  1.0000 0.147702585
C   C21       1.0  0.83550  0.89450  0.62850  1.0000 -0.2084268918
C   C22       1.0  0.83390  0.99410  0.58470  1.0000 0.0363483108
C   C23       1.0  0.73090  0.98910  0.44410  1.0000 0.032618057
C   C24       1.0  0.72620  0.88680  0.48430  1.0000 -0.2084268918
C   C25       1.0  0.99570  0.14590  0.50560  1.0000 0.04866787
C   C26       1.0  0.09620  0.13820  0.56170  1.0000 -0.2084268918
C   C27       1.0  0.15660  0.18460  0.61990  1.0000 0.147702585
C   C28       1.0  0.11240  0.23860  0.61950  1.0000 -0.2084268918
C   C29       1.0  0.01170  0.24330  0.56180  1.0000 0.04866787
C   C30       1.0  0.25930  0.17470  0.67940  1.0000 -0.1014206549
C   C31       1.0  0.34480  0.16800  0.72690  1.0000 -0.1014206549
C   C32       1.0  0.44920  0.16400  0.78160  1.0000 0.147702585
C   C33       1.0  0.49120  0.10580  0.78580  1.0000 -0.2176850987
C   C34       1.0  0.59410  0.11130  0.83340  1.0000 0.04866787
C   C35       1.0  0.61430  0.22310  0.87660  1.0000 0.0363483108
C   C36       1.0  0.51340  0.22200  0.83180  1.0000 -0.2084268918
C   C37       1.0  0.62790  0.25290  0.25870  1.0000 0.04866787
C   C38       1.0  0.52750  0.25830  0.19910  1.0000 -0.2084268918
C   C39       1.0  0.45520  0.20060  0.23160  1.0000 0.1387859524
C   C40       1.0  0.48690  0.13590  0.32520  1.0000 -0.2084268918
C   C41       1.0  0.58720  0.13380  0.38110  1.0000 0.0214671036
C   C42       1.0  0.35210  0.20810  0.17330  1.0000 -0.0862136958
C   C43       1.0  0.26640  0.21500  0.12610  1.0000 -0.1014206549
C   C44       1.0  0.16290  0.21930  0.07960  1.0000 0.147702585
C   C45       1.0  0.10550  0.16450  0.12850  1.0000 -0.2084268918
C   C46       1.0  0.00590  0.16610  0.08470  1.0000 0.0363483108
C   C47       1.0  0.01090  0.26910  0.94410  1.0000 0.032618057
C   C48       1.0  0.11320  0.27380  0.98430  1.0000 -0.2084268918
C   C49       1.0  0.00430  0.85410  0.49440  1.0000 0.04866787
C   C50       1.0  0.90380  0.86180  0.43830  1.0000 -0.2084268918
C   C51       1.0  0.84340  0.81540  0.38010  1.0000 0.147702585
C   C52       1.0  0.88760  0.76140  0.38050  1.0000 -0.2084268918
C   C53       1.0  0.98830  0.75670  0.43820  1.0000 0.04866787
C   C54       1.0  0.74070  0.82530  0.32060  1.0000 -0.1014206549
C   C55       1.0  0.65520  0.83200  0.27310  1.0000 -0.1014206549
C   C56       1.0  0.55080  0.83600  0.21840  1.0000 0.147702585
C   C57       1.0  0.50880  0.89420  0.21420  1.0000 -0.2176850987
C   C58       1.0  0.40590  0.88870  0.16660  1.0000 0.04866787
C   C59       1.0  0.38570  0.77690  0.12340  1.0000 0.0363483108
C   C60       1.0  0.48660  0.77800  0.16820  1.0000 -0.2084268918
C   C61       1.0  0.37210  0.74710  0.74130  1.0000 0.04866787
C   C62       1.0  0.47250  0.74170  0.80090  1.0000 -0.2084268918
C   C63       1.0  0.54480  0.79940  0.76840  1.0000 0.1387859524
C   C64       1.0  0.51310  0.86410  0.67480  1.0000 -0.2084268918
C   C65       1.0  0.41280  0.86620  0.61890  1.0000 0.0214671036
C   C66       1.0  0.64790  0.79190  0.82670  1.0000 -0.0862136958
C   C67       1.0  0.73360  0.78500  0.87390  1.0000 -0.1014206549
C   C68       1.0  0.83710  0.78070  0.92040  1.0000 0.147702585
C   C69       1.0  0.89450  0.83550  0.87150  1.0000 -0.2084268918
C   C70       1.0  0.99410  0.83390  0.91530  1.0000 0.0363483108
C   C71       1.0  0.98910  0.73090  0.05590  1.0000 0.032618057
C   C72       1.0  0.88680  0.72620  0.01570  1.0000 -0.2084268918
C   C73       1.0  0.14590  0.99570  0.99440  1.0000 0.04866787
C   C74       1.0  0.13820  0.09620  0.93830  1.0000 -0.2084268918
C   C75       1.0  0.18460  0.15660  0.88010  1.0000 0.147702585
C   C76       1.0  0.23860  0.11240  0.88050  1.0000 -0.2084268918
C   C77       1.0  0.24330  0.01170  0.93820  1.0000 0.04866787
C   C78       1.0  0.17470  0.25930  0.82060  1.0000 -0.1014206549
C   C79       1.0  0.16800  0.34480  0.77310  1.0000 -0.1014206549
C   C80       1.0  0.16400  0.44920  0.71840  1.0000 0.147702585
C   C81       1.0  0.10580  0.49120  0.71420  1.0000 -0.2176850987
C   C82       1.0  0.11130  0.59410  0.66667  1.0000 0.04866787
C   C83       1.0  0.22310  0.61430  0.62340  1.0000 0.0363483108
C   C84       1.0  0.22200  0.51340  0.66820  1.0000 -0.2084268918
C   C85       1.0  0.25290  0.62790  0.24130  1.0000 0.04866787
C   C86       1.0  0.25830  0.52750  0.30090  1.0000 -0.2084268918
C   C87       1.0  0.20060  0.45520  0.26840  1.0000 0.1387859524
C   C88       1.0  0.13590  0.48690  0.17480  1.0000 -0.2084268918
C   C89       1.0  0.13380  0.58720  0.11890  1.0000 0.0214671036
C   C90       1.0  0.20810  0.35210  0.32670  1.0000 -0.0862136958
C   C91       1.0  0.21500  0.26640  0.37390  1.0000 -0.1014206549
C   C92       1.0  0.21930  0.16290  0.42040  1.0000 0.147702585
C   C93       1.0  0.16450  0.10550  0.37150  1.0000 -0.2084268918
C   C94       1.0  0.16610  0.00590  0.41530  1.0000 0.0363483108
C   C95       1.0  0.26910  0.01090  0.55590  1.0000 0.032618057
C   C96       1.0  0.27380  0.11320  0.51570  1.0000 -0.2084268918
N   N1        1.0  0.80271  0.04529  0.00620  1.0000 -0.2176850987
N   N2        1.0  0.83016  0.34504  0.37710  1.0000 -0.2084268918
N   N3        1.0  0.80749  0.34231  0.84850  1.0000 -0.2176850987
N   N4        1.0  0.78285  0.04255  0.49290  1.0000 -0.2176850987
N   N5        1.0  0.95471  0.19729  0.50620  1.0000 -0.2176850987
N   N6        1.0  0.65496  0.16984  0.87710  1.0000 -0.2084268918
N   N7        1.0  0.65769  0.19251  0.34850  1.0000 -0.2176850987
N   N8        1.0  0.95745  0.21715  0.99290  1.0000 -0.2176850987
N   N9        1.0  0.04529  0.80271  0.49380  1.0000 -0.2176850987
N   N10       1.0  0.34504  0.83016  0.12290  1.0000 -0.2176850987
N   N11       1.0  0.34231  0.80749  0.65150  1.0000 -0.2084268918
N   N12       1.0  0.04255  0.78285  0.00710  1.0000 -0.2176850987
N   N13       1.0  0.19729  0.95471  0.99380  1.0000 -0.2176850987
N   N14       1.0  0.16984  0.65496  0.62290  1.0000 -0.2084268918
N   N15       1.0  0.19251  0.65769  0.15150  1.0000 -0.2176850987
N   N16       1.0  0.21715  0.95745  0.50710  1.0000 -0.2176850987
