# DDEC6 charges by PACMAN v1.1 (https://github.com/mtap-research/PACMAN-charge/)
data_2019[In][bpq]3[FSR]5
_chemical_formula_sum              "In8 H40 C64 O56"
_cell_length_a       21.996
_cell_length_b       21.996
_cell_length_c       7.17
_cell_angle_alpha    90
_cell_angle_beta     90
_cell_angle_gamma    92.6765

_symmetry_space_group_name_H-M    "P 1"
_symmetry_Int_Tables_number       1

loop_
  _symmetry_equiv_pos_as_xyz
  'x, y, z'

loop_
  _atom_site_type_symbol
  _atom_site_label
  _atom_site_symmetry_multiplicity
  _atom_site_fract_x
  _atom_site_fract_y
  _atom_site_fract_z
  _atom_site_occupancy
  _atom_site_charge
In  In1       1.0  0.24582  0.24582  0.94767  1.0000 1.5180099194
In  In2       1.0  0.25418  0.25418  0.44767  1.0000 1.5180099194
In  In3       1.0  0.74582  0.74582  0.55233  1.0000 1.5180099194
In  In4       1.0  0.75418  0.75418  0.05233  1.0000 1.5180099194
In  In5       1.0  0.25409  0.74591  0.00000  1.0000 1.5180099194
In  In6       1.0  0.24591  0.75409  0.50000  1.0000 1.5180099194
In  In7       1.0  0.74591  0.25409  0.00000  1.0000 1.5180099194
In  In8       1.0  0.75409  0.24591  0.50000  1.0000 1.5180099194
H   H1        1.0  0.23090  0.39950  0.03620  1.0000 0.3540282266
H   H2        1.0  0.24610  0.59930  0.40440  1.0000 0.3540282266
H   H3        1.0  0.24500  0.55020  0.01020  1.0000 0.1424025695
H   H4        1.0  0.25030  0.45050  0.43640  1.0000 0.1424025695
H   H5        1.0  0.26910  0.10050  0.53620  1.0000 0.3540282266
H   H6        1.0  0.25390  0.90070  0.90440  1.0000 0.3540282266
H   H7        1.0  0.25500  0.94980  0.51020  1.0000 0.1424025695
H   H8        1.0  0.24970  0.04950  0.93640  1.0000 0.1424025695
H   H9        1.0  0.89950  0.73090  0.46380  1.0000 0.3540282266
H   H10       1.0  0.09930  0.74610  0.09560  1.0000 0.3540282266
H   H11       1.0  0.05020  0.74500  0.48980  1.0000 0.1424025695
H   H12       1.0  0.95050  0.75030  0.06360  1.0000 0.1424025695
H   H13       1.0  0.60050  0.76910  0.96380  1.0000 0.3540282266
H   H14       1.0  0.40070  0.75390  0.59560  1.0000 0.3540282266
H   H15       1.0  0.44980  0.75500  0.98980  1.0000 0.1424025695
H   H16       1.0  0.54950  0.74970  0.56360  1.0000 0.1424025695
H   H17       1.0  0.76910  0.60050  0.96380  1.0000 0.3540282266
H   H18       1.0  0.75390  0.40070  0.59560  1.0000 0.3540282266
H   H19       1.0  0.75500  0.44980  0.98980  1.0000 0.1424025695
H   H20       1.0  0.74970  0.54950  0.56360  1.0000 0.1424025695
H   H21       1.0  0.73090  0.89950  0.46380  1.0000 0.3540282266
H   H22       1.0  0.74610  0.09930  0.09560  1.0000 0.3540282266
H   H23       1.0  0.74500  0.05020  0.48980  1.0000 0.1424025695
H   H24       1.0  0.75030  0.95050  0.06360  1.0000 0.1424025695
H   H25       1.0  0.10050  0.26910  0.53620  1.0000 0.3540282266
H   H26       1.0  0.90070  0.25390  0.90440  1.0000 0.3540282266
H   H27       1.0  0.94980  0.25500  0.51020  1.0000 0.1424025695
H   H28       1.0  0.04950  0.24970  0.93640  1.0000 0.1424025695
H   H29       1.0  0.39950  0.23090  0.03620  1.0000 0.3540282266
H   H30       1.0  0.59930  0.24610  0.40440  1.0000 0.3540282266
H   H31       1.0  0.55020  0.24500  0.01020  1.0000 0.1424025695
H   H32       1.0  0.45050  0.25030  0.43640  1.0000 0.1424025695
H   H33       1.0  0.18960  0.18960  0.71400  1.0000 0.3956922178
H   H34       1.0  0.31040  0.31040  0.21400  1.0000 0.3956922178
H   H35       1.0  0.68960  0.68960  0.78600  1.0000 0.3956922178
H   H36       1.0  0.81040  0.81040  0.28600  1.0000 0.3956922178
H   H37       1.0  0.18840  0.68840  0.25000  1.0000 0.3941261803
H   H38       1.0  0.31160  0.81160  0.75000  1.0000 0.3941261803
H   H39       1.0  0.81160  0.31160  0.75000  1.0000 0.3941261803
H   H40       1.0  0.68840  0.18840  0.25000  1.0000 0.3941261803
C   C1        1.0  0.24700  0.43620  0.71720  1.0000 -0.1566010772
C   C2        1.0  0.24370  0.46630  0.88900  1.0000 0.2735886534
C   C3        1.0  0.24600  0.52960  0.89380  1.0000 -0.1940470336
C   C4        1.0  0.24970  0.56270  0.72950  1.0000 -0.1414487719
C   C5        1.0  0.25110  0.53390  0.55860  1.0000 0.2626814281
C   C6        1.0  0.24960  0.47060  0.55350  1.0000 -0.1940470336
C   C7        1.0  0.24570  0.36890  0.70240  1.0000 0.6320020144
C   C8        1.0  0.25220  0.63120  0.74390  1.0000 0.6357557361
C   C9        1.0  0.25300  0.06380  0.21720  1.0000 -0.1566010772
C   C10       1.0  0.25630  0.03370  0.38900  1.0000 0.2735886534
C   C11       1.0  0.25400  0.97040  0.39380  1.0000 -0.1958801712
C   C12       1.0  0.25030  0.93730  0.22950  1.0000 -0.1414487719
C   C13       1.0  0.24890  0.96610  0.05860  1.0000 0.2626814281
C   C14       1.0  0.25040  0.02940  0.05350  1.0000 -0.1940470336
C   C15       1.0  0.25430  0.13110  0.20240  1.0000 0.6320020144
C   C16       1.0  0.24780  0.86880  0.24390  1.0000 0.6357557361
C   C17       1.0  0.93620  0.74700  0.78280  1.0000 -0.1566010772
C   C18       1.0  0.96630  0.74370  0.61100  1.0000 0.2735886534
C   C19       1.0  0.02960  0.74600  0.60620  1.0000 -0.1958801712
C   C20       1.0  0.06270  0.74970  0.77050  1.0000 -0.1414487719
C   C21       1.0  0.03390  0.75110  0.94140  1.0000 0.2626814281
C   C22       1.0  0.97060  0.74960  0.94650  1.0000 -0.1940470336
C   C23       1.0  0.86890  0.74570  0.79760  1.0000 0.6320020144
C   C24       1.0  0.13120  0.75220  0.75610  1.0000 0.6357557361
C   C25       1.0  0.56380  0.75300  0.28280  1.0000 -0.1566010772
C   C26       1.0  0.53370  0.75630  0.11100  1.0000 0.2735886534
C   C27       1.0  0.47040  0.75400  0.10620  1.0000 -0.1958801712
C   C28       1.0  0.43730  0.75030  0.27050  1.0000 -0.1414487719
C   C29       1.0  0.46610  0.74890  0.44140  1.0000 0.2626814281
C   C30       1.0  0.52940  0.75040  0.44650  1.0000 -0.1940470336
C   C31       1.0  0.63110  0.75430  0.29760  1.0000 0.6320020144
C   C32       1.0  0.36880  0.74780  0.25610  1.0000 0.6357557361
C   C33       1.0  0.75300  0.56380  0.28280  1.0000 -0.1566010772
C   C34       1.0  0.75630  0.53370  0.11100  1.0000 0.2735886534
C   C35       1.0  0.75400  0.47040  0.10620  1.0000 -0.1958801712
C   C36       1.0  0.75030  0.43730  0.27050  1.0000 -0.1414487719
C   C37       1.0  0.74890  0.46610  0.44140  1.0000 0.2626814281
C   C38       1.0  0.75040  0.52940  0.44650  1.0000 -0.1940470336
C   C39       1.0  0.75430  0.63110  0.29760  1.0000 0.6320020144
C   C40       1.0  0.74780  0.36880  0.25610  1.0000 0.6357557361
C   C41       1.0  0.74700  0.93620  0.78280  1.0000 -0.1566010772
C   C42       1.0  0.74370  0.96630  0.61100  1.0000 0.2735886534
C   C43       1.0  0.74600  0.02960  0.60620  1.0000 -0.1958801712
C   C44       1.0  0.74970  0.06270  0.77050  1.0000 -0.1414487719
C   C45       1.0  0.75110  0.03390  0.94140  1.0000 0.2626814281
C   C46       1.0  0.74960  0.97060  0.94650  1.0000 -0.1940470336
C   C47       1.0  0.74570  0.86890  0.79760  1.0000 0.6320020144
C   C48       1.0  0.75220  0.13120  0.75610  1.0000 0.6357557361
C   C49       1.0  0.06380  0.25300  0.21720  1.0000 -0.1566010772
C   C50       1.0  0.03370  0.25630  0.38900  1.0000 0.2735886534
C   C51       1.0  0.97040  0.25400  0.39380  1.0000 -0.1958801712
C   C52       1.0  0.93730  0.25030  0.22950  1.0000 -0.1414487719
C   C53       1.0  0.96610  0.24890  0.05860  1.0000 0.2626814281
C   C54       1.0  0.02940  0.25040  0.05350  1.0000 -0.1940470336
C   C55       1.0  0.13110  0.25430  0.20240  1.0000 0.6320020144
C   C56       1.0  0.86880  0.24780  0.24390  1.0000 0.6357557361
C   C57       1.0  0.43620  0.24700  0.71720  1.0000 -0.1566010772
C   C58       1.0  0.46630  0.24370  0.88900  1.0000 0.2735886534
C   C59       1.0  0.52960  0.24600  0.89380  1.0000 -0.1958801712
C   C60       1.0  0.56270  0.24970  0.72950  1.0000 -0.1414487719
C   C61       1.0  0.53390  0.25110  0.55860  1.0000 0.2626814281
C   C62       1.0  0.47060  0.24960  0.55350  1.0000 -0.1940470336
C   C63       1.0  0.36890  0.24570  0.70240  1.0000 0.6320020144
C   C64       1.0  0.63120  0.25220  0.74390  1.0000 0.6357557361
O   O1        1.0  0.24990  0.34538  0.54460  1.0000 -0.5521557318
O   O2        1.0  0.24103  0.33881  0.85410  1.0000 -0.5921777676
O   O3        1.0  0.23851  0.43673  0.05510  1.0000 -0.437301975
O   O4        1.0  0.25645  0.65413  0.90330  1.0000 -0.5521557318
O   O5        1.0  0.24980  0.66004  0.59250  1.0000 -0.5921777676
O   O6        1.0  0.25560  0.56300  0.39130  1.0000 -0.433461767
O   O7        1.0  0.25010  0.15462  0.04460  1.0000 -0.5521557318
O   O8        1.0  0.25897  0.16119  0.35410  1.0000 -0.5921777676
O   O9        1.0  0.26149  0.06327  0.55510  1.0000 -0.437301975
O   O10       1.0  0.24355  0.84587  0.40330  1.0000 -0.5521557318
O   O11       1.0  0.25020  0.83996  0.09250  1.0000 -0.5921777676
O   O12       1.0  0.24440  0.93700  0.89130  1.0000 -0.433461767
O   O13       1.0  0.84538  0.74990  0.95540  1.0000 -0.5552983696
O   O14       1.0  0.83881  0.74103  0.64590  1.0000 -0.5921777676
O   O15       1.0  0.93673  0.73851  0.44490  1.0000 -0.437301975
O   O16       1.0  0.15413  0.75645  0.59670  1.0000 -0.5521557318
O   O17       1.0  0.16004  0.74980  0.90750  1.0000 -0.5921777676
O   O18       1.0  0.06300  0.75560  0.10870  1.0000 -0.433461767
O   O19       1.0  0.65462  0.75010  0.45540  1.0000 -0.5521557318
O   O20       1.0  0.66119  0.75897  0.14590  1.0000 -0.5921777676
O   O21       1.0  0.56327  0.76149  0.94490  1.0000 -0.437301975
O   O22       1.0  0.34587  0.74355  0.09670  1.0000 -0.5521557318
O   O23       1.0  0.33996  0.75020  0.40750  1.0000 -0.5921777676
O   O24       1.0  0.43700  0.74440  0.60870  1.0000 -0.433461767
O   O25       1.0  0.75010  0.65462  0.45540  1.0000 -0.5521557318
O   O26       1.0  0.75897  0.66119  0.14590  1.0000 -0.5921777676
O   O27       1.0  0.76149  0.56327  0.94490  1.0000 -0.437301975
O   O28       1.0  0.74355  0.34587  0.09670  1.0000 -0.5521557318
O   O29       1.0  0.75020  0.33996  0.40750  1.0000 -0.5921777676
O   O30       1.0  0.74440  0.43700  0.60870  1.0000 -0.433461767
O   O31       1.0  0.74990  0.84538  0.95540  1.0000 -0.5552983696
O   O32       1.0  0.74103  0.83881  0.64590  1.0000 -0.5921777676
O   O33       1.0  0.73851  0.93673  0.44490  1.0000 -0.437301975
O   O34       1.0  0.75645  0.15413  0.59670  1.0000 -0.5521557318
O   O35       1.0  0.74980  0.16004  0.90750  1.0000 -0.5921777676
O   O36       1.0  0.75560  0.06300  0.10870  1.0000 -0.433461767
O   O37       1.0  0.15462  0.25010  0.04460  1.0000 -0.5521557318
O   O38       1.0  0.16119  0.25897  0.35410  1.0000 -0.5921777676
O   O39       1.0  0.06327  0.26149  0.55510  1.0000 -0.437301975
O   O40       1.0  0.84587  0.24355  0.40330  1.0000 -0.5521557318
O   O41       1.0  0.83996  0.25020  0.09250  1.0000 -0.5921777676
O   O42       1.0  0.93700  0.24440  0.89130  1.0000 -0.433461767
O   O43       1.0  0.34538  0.24990  0.54460  1.0000 -0.5521557318
O   O44       1.0  0.33881  0.24103  0.85410  1.0000 -0.5921777676
O   O45       1.0  0.43673  0.23851  0.05510  1.0000 -0.437301975
O   O46       1.0  0.65413  0.25645  0.90330  1.0000 -0.5521557318
O   O47       1.0  0.66004  0.24980  0.59250  1.0000 -0.5921777676
O   O48       1.0  0.56300  0.25560  0.39130  1.0000 -0.433461767
O   O49       1.0  0.21623  0.21623  0.68880  1.0000 -0.8544228489
O   O50       1.0  0.28377  0.28377  0.18880  1.0000 -0.8544228489
O   O51       1.0  0.71623  0.71623  0.81120  1.0000 -0.8558027561
O   O52       1.0  0.78377  0.78377  0.31120  1.0000 -0.8558027561
O   O53       1.0  0.21605  0.71605  0.25000  1.0000 -0.8685756589
O   O54       1.0  0.28395  0.78395  0.75000  1.0000 -0.8685756589
O   O55       1.0  0.78395  0.28395  0.75000  1.0000 -0.8685756589
O   O56       1.0  0.71605  0.21605  0.25000  1.0000 -0.8685756589
