# DDEC6 charges by PACMAN v1.1 (https://github.com/mtap-research/PACMAN-charge/)
data_2019[Eu][nan]3[FSR]6
_chemical_formula_sum              "Eu4 H46 C66 O32"
_cell_length_a       10.8203
_cell_length_b       13.0737
_cell_length_c       17.7314
_cell_angle_alpha    73.823
_cell_angle_beta     78.505
_cell_angle_gamma    83.11

_symmetry_space_group_name_H-M    "P 1"
_symmetry_Int_Tables_number       1

loop_
  _symmetry_equiv_pos_as_xyz
  'x, y, z'

loop_
  _atom_site_type_symbol
  _atom_site_label
  _atom_site_symmetry_multiplicity
  _atom_site_fract_x
  _atom_site_fract_y
  _atom_site_fract_z
  _atom_site_occupancy
  _atom_site_charge
Eu  Eu1       1.0  0.90830  0.94050  0.75574  1.0000 2.0606757858
Eu  Eu2       1.0  0.66062  0.63282  0.90941  1.0000 2.0895483949
Eu  Eu3       1.0  0.09170  0.05950  0.24426  1.0000 2.0606757858
Eu  Eu4       1.0  0.33938  0.36718  0.09059  1.0000 2.0895483949
H   H1        1.0  0.35037  0.88051  0.80018  1.0000 0.1285219052
H   H2        1.0  0.30658  0.08284  0.58872  1.0000 0.1170069025
H   H3        1.0  0.64991  0.01657  0.64950  1.0000 0.1170069025
H   H4        1.0  0.39168  0.15532  0.47137  1.0000 0.1107189632
H   H5        1.0  0.48598  0.24880  0.34720  1.0000 0.1170069025
H   H6        1.0  0.90477  0.25837  0.30563  1.0000 0.1107189632
H   H7        1.0  0.88110  0.43741  0.08350  1.0000 0.1419598022
H   H8        1.0  0.79644  0.29828  0.80754  1.0000 0.1285219052
H   H9        1.0  0.69297  0.26717  0.60928  1.0000 0.1107189632
H   H10       1.0  0.60986  0.54291  0.67350  1.0000 0.1107189632
H   H11       1.0  0.62176  0.60829  0.53341  1.0000 0.1107189632
H   H12       1.0  0.51318  0.67660  0.43004  1.0000 0.1107189632
H   H13       1.0  0.56513  0.34957  0.23966  1.0000 0.1285219052
H   H14       1.0  0.81533  0.21285  0.42342  1.0000 0.1107189632
H   H15       1.0  0.72371  0.11511  0.54589  1.0000 0.1170069025
H   H16       1.0  0.93507  0.85980  0.93652  1.0000 0.4190553957
H   H17       1.0  0.85259  0.95984  0.91741  1.0000 0.4190553957
H   H18       1.0  0.93342  0.91153  0.59105  1.0000 0.3399210059
H   H19       1.0  0.86944  0.83069  0.63718  1.0000 0.3399210059
H   H20       1.0  0.43111  0.64819  0.04670  1.0000 0.4190553957
H   H21       1.0  0.47305  0.75592  0.99967  1.0000 0.4053217032
H   H22       1.0  0.74452  0.73027  0.03074  1.0000 0.4190553957
H   H23       1.0  0.75428  0.80346  0.94955  1.0000 0.387893007
H   H24       1.0  0.64963  0.11949  0.19982  1.0000 0.1285219052
H   H25       1.0  0.69342  0.91716  0.41128  1.0000 0.1170069025
H   H26       1.0  0.35009  0.98343  0.35050  1.0000 0.1170069025
H   H27       1.0  0.60832  0.84468  0.52863  1.0000 0.1107189632
H   H28       1.0  0.51402  0.75120  0.65280  1.0000 0.1170069025
H   H29       1.0  0.09523  0.74163  0.69437  1.0000 0.1107189632
H   H30       1.0  0.11890  0.56259  0.91650  1.0000 0.1419598022
H   H31       1.0  0.20356  0.70172  0.19246  1.0000 0.1285219052
H   H32       1.0  0.30703  0.73283  0.39072  1.0000 0.1107189632
H   H33       1.0  0.39014  0.45709  0.32650  1.0000 0.1107189632
H   H34       1.0  0.37824  0.39171  0.46659  1.0000 0.1107189632
H   H35       1.0  0.48682  0.32340  0.56996  1.0000 0.1107189632
H   H36       1.0  0.43487  0.65043  0.76034  1.0000 0.1285219052
H   H37       1.0  0.18467  0.78715  0.57658  1.0000 0.1107189632
H   H38       1.0  0.27629  0.88489  0.45411  1.0000 0.1170069025
H   H39       1.0  0.06493  0.14020  0.06348  1.0000 0.4190553957
H   H40       1.0  0.14741  0.04016  0.08259  1.0000 0.4190553957
H   H41       1.0  0.06658  0.08847  0.40895  1.0000 0.3399210059
H   H42       1.0  0.13056  0.16931  0.36282  1.0000 0.3399210059
H   H43       1.0  0.56889  0.35181  0.95330  1.0000 0.4190553957
H   H44       1.0  0.52695  0.24408  0.00033  1.0000 0.4053217032
H   H45       1.0  0.25548  0.26973  0.96926  1.0000 0.4190553957
H   H46       1.0  0.24572  0.19654  0.05045  1.0000 0.387893007
C   C1        1.0  0.59850  0.88220  0.79070  1.0000 0.6589159228
C   C2        1.0  0.51250  0.94000  0.73360  1.0000 -0.0276024045
C   C3        1.0  0.38470  0.92630  0.75220  1.0000 -0.1223179466
C   C4        1.0  0.30750  0.98260  0.69760  1.0000 -0.0095735901
C   C5        1.0  0.16800  0.96780  0.71850  1.0000 0.5665954807
C   C6        1.0  0.35920  0.04710  0.62470  1.0000 -0.1488711428
C   C7        1.0  0.48900  0.05940  0.60410  1.0000 0.0687986447
C   C8        1.0  0.56380  0.00690  0.66060  1.0000 -0.1488711428
C   C9        1.0  0.54720  0.12350  0.52350  1.0000 0.0626646997
C   C10       1.0  0.47760  0.16550  0.46200  1.0000 -0.1488711428
C   C11       1.0  0.53470  0.22240  0.38700  1.0000 -0.1400762818
C   C12       1.0  0.66100  0.24070  0.37000  1.0000 0.0687986447
C   C13       1.0  0.72380  0.29670  0.28820  1.0000 0.0836094328
C   C14       1.0  0.85580  0.29440  0.26750  1.0000 -0.1666904456
C   C15       1.0  0.91510  0.34480  0.19120  1.0000 -0.0276024045
C   C16       1.0  0.05430  0.33333  0.16680  1.0000 0.6183051326
C   C17       1.0  0.84240  0.40030  0.13380  1.0000 -0.1128072749
C   C18       1.0  0.71250  0.39940  0.15270  1.0000 -0.0191774341
C   C19       1.0  0.63660  0.45220  0.08810  1.0000 0.6415197113
C   C20       1.0  0.70500  0.49630  0.80470  1.0000 0.5784703352
C   C21       1.0  0.70440  0.43000  0.74790  1.0000 -0.0095735901
C   C22       1.0  0.75900  0.32710  0.76260  1.0000 -0.1128072749
C   C23       1.0  0.75730  0.26670  0.70910  1.0000 -0.0095735901
C   C24       1.0  0.82210  0.15730  0.71980  1.0000 0.5784703352
C   C25       1.0  0.69550  0.30860  0.64380  1.0000 -0.1488711428
C   C26       1.0  0.63760  0.41190  0.62990  1.0000 0.0626646997
C   C27       1.0  0.64510  0.47300  0.68260  1.0000 -0.1488711428
C   C28       1.0  0.57010  0.45550  0.56300  1.0000 0.0687986447
C   C29       1.0  0.57350  0.56390  0.52000  1.0000 -0.1488711428
C   C30       1.0  0.50650  0.60540  0.45830  1.0000 -0.1400762818
C   C31       1.0  0.65290  0.34890  0.22830  1.0000 -0.1400762818
C   C32       1.0  0.73020  0.20030  0.43230  1.0000 -0.1400762818
C   C33       1.0  0.67460  0.14230  0.50640  1.0000 -0.1400762818
C   C34       1.0  0.40150  0.11780  0.20930  1.0000 0.6589159228
C   C35       1.0  0.48750  0.06000  0.26640  1.0000 -0.0276024045
C   C36       1.0  0.61530  0.07370  0.24780  1.0000 -0.1223179466
C   C37       1.0  0.69250  0.01740  0.30240  1.0000 -0.0095735901
C   C38       1.0  0.83200  0.03220  0.28150  1.0000 0.5665954807
C   C39       1.0  0.64080  0.95290  0.37530  1.0000 -0.1488711428
C   C40       1.0  0.51100  0.94060  0.39590  1.0000 0.0687986447
C   C41       1.0  0.43620  0.99310  0.33940  1.0000 -0.1488711428
C   C42       1.0  0.45280  0.87650  0.47650  1.0000 0.0626646997
C   C43       1.0  0.52240  0.83450  0.53800  1.0000 -0.1488711428
C   C44       1.0  0.46530  0.77760  0.61300  1.0000 -0.1400762818
C   C45       1.0  0.33900  0.75930  0.63000  1.0000 0.0687986447
C   C46       1.0  0.27620  0.70330  0.71180  1.0000 0.0836094328
C   C47       1.0  0.14420  0.70560  0.73250  1.0000 -0.1666904456
C   C48       1.0  0.08490  0.65520  0.80880  1.0000 -0.0276024045
C   C49       1.0  0.94570  0.66667  0.83320  1.0000 0.6183051326
C   C50       1.0  0.15760  0.59970  0.86620  1.0000 -0.1128072749
C   C51       1.0  0.28750  0.60060  0.84730  1.0000 -0.0191774341
C   C52       1.0  0.36340  0.54780  0.91190  1.0000 0.6415197113
C   C53       1.0  0.29500  0.50370  0.19530  1.0000 0.5784703352
C   C54       1.0  0.29560  0.57000  0.25210  1.0000 -0.0095735901
C   C55       1.0  0.24100  0.67290  0.23740  1.0000 -0.1128072749
C   C56       1.0  0.24270  0.73330  0.29090  1.0000 -0.0095735901
C   C57       1.0  0.17790  0.84270  0.28020  1.0000 0.5784703352
C   C58       1.0  0.30450  0.69140  0.35620  1.0000 -0.1488711428
C   C59       1.0  0.36240  0.58810  0.37010  1.0000 0.0626646997
C   C60       1.0  0.35490  0.52700  0.31740  1.0000 -0.1488711428
C   C61       1.0  0.42990  0.54450  0.43700  1.0000 0.0687986447
C   C62       1.0  0.42650  0.43610  0.48000  1.0000 -0.1488711428
C   C63       1.0  0.49350  0.39460  0.54170  1.0000 -0.1400762818
C   C64       1.0  0.34710  0.65110  0.77170  1.0000 -0.1400762818
C   C65       1.0  0.26980  0.79970  0.56770  1.0000 -0.1400762818
C   C66       1.0  0.32540  0.85770  0.49360  1.0000 -0.1400762818
O   O1        1.0  0.69520  0.92720  0.78910  1.0000 -0.6910702131
O   O2        1.0  0.56900  0.79420  0.83720  1.0000 -0.6702099285
O   O3        1.0  0.12110  0.91610  0.78640  1.0000 -0.6219806961
O   O4        1.0  0.10000  0.00850  0.66620  1.0000 -0.6329129777
O   O5        1.0  0.11500  0.24730  0.19680  1.0000 -0.7298240802
O   O6        1.0  0.10970  0.40820  0.11570  1.0000 -0.598818495
O   O7        1.0  0.52470  0.43510  0.09850  1.0000 -0.6427279255
O   O8        1.0  0.69240  0.51150  0.02700  1.0000 -0.6329129777
O   O9        1.0  0.69860  0.59730  0.77800  1.0000 -0.6427279255
O   O10       1.0  0.70640  0.45150  0.87670  1.0000 -0.6096397183
O   O11       1.0  0.86360  0.11390  0.78400  1.0000 -0.6523027859
O   O12       1.0  0.83190  0.10910  0.66667  1.0000 -0.6219806961
O   O13       1.0  0.89260  0.90550  0.90030  1.0000 -0.7940023682
O   O14       1.0  0.89930  0.88550  0.63970  1.0000 -0.767696037
O   O15       1.0  0.48730  0.68680  0.01200  1.0000 -0.7940023682
O   O16       1.0  0.74570  0.73900  0.97940  1.0000 -0.8135566256
O   O17       1.0  0.30480  0.07280  0.21090  1.0000 -0.6910702131
O   O18       1.0  0.43100  0.20580  0.16280  1.0000 -0.6702099285
O   O19       1.0  0.87890  0.08390  0.21360  1.0000 -0.6219806961
O   O20       1.0  0.90000  0.99150  0.33380  1.0000 -0.6329129777
O   O21       1.0  0.88500  0.75270  0.80320  1.0000 -0.7298240802
O   O22       1.0  0.89030  0.59180  0.88430  1.0000 -0.598818495
O   O23       1.0  0.47530  0.56490  0.90150  1.0000 -0.6427279255
O   O24       1.0  0.30760  0.48850  0.97300  1.0000 -0.6329129777
O   O25       1.0  0.30140  0.40270  0.22200  1.0000 -0.6427279255
O   O26       1.0  0.29360  0.54850  0.12330  1.0000 -0.6096397183
O   O27       1.0  0.13640  0.88610  0.21600  1.0000 -0.6523027859
O   O28       1.0  0.16810  0.89090  0.33333  1.0000 -0.6219806961
O   O29       1.0  0.10740  0.09450  0.09970  1.0000 -0.7940023682
O   O30       1.0  0.10070  0.11450  0.36030  1.0000 -0.767696037
O   O31       1.0  0.51270  0.31320  0.98800  1.0000 -0.7940023682
O   O32       1.0  0.25430  0.26100  0.02060  1.0000 -0.8135566256
