# DDEC6 charges by PACMAN v1.1 (https://github.com/mtap-research/PACMAN-charge/)
data_2019[Cu][bto]3[FSR]2
_chemical_formula_sum              "Cu6 H36 C42 N18 O18"
_cell_length_a       10.5958
_cell_length_b       10.5958
_cell_length_c       16.8456
_cell_angle_alpha    90
_cell_angle_beta     90
_cell_angle_gamma    120

_symmetry_space_group_name_H-M    "P 1"
_symmetry_Int_Tables_number       1

loop_
  _symmetry_equiv_pos_as_xyz
  'x, y, z'

loop_
  _atom_site_type_symbol
  _atom_site_label
  _atom_site_symmetry_multiplicity
  _atom_site_fract_x
  _atom_site_fract_y
  _atom_site_fract_z
  _atom_site_occupancy
  _atom_site_charge
Cu  Cu1       1.0  0.28723  0.86505  0.47001  1.0000 0.7298746382
Cu  Cu2       1.0  0.13495  0.42218  0.80334  1.0000 0.7298746382
Cu  Cu3       1.0  0.57782  0.71277  0.13668  1.0000 0.7298746382
Cu  Cu4       1.0  0.86505  0.28723  0.52999  1.0000 0.7298746382
Cu  Cu5       1.0  0.42218  0.13495  0.19666  1.0000 0.7298746382
Cu  Cu6       1.0  0.71277  0.57782  0.86332  1.0000 0.7298746382
H   H1        1.0  0.39400  0.92530  0.75440  1.0000 0.302811039
H   H2        1.0  0.32340  0.76330  0.64260  1.0000 0.1195092102
H   H3        1.0  0.41760  0.16000  0.71770  1.0000 0.1370093997
H   H4        1.0  0.37920  0.26210  0.57980  1.0000 0.1281751084
H   H5        1.0  0.24360  0.12890  0.53670  1.0000 0.1281751084
H   H6        1.0  0.42290  0.26970  0.44100  1.0000 0.0954923171
H   H7        1.0  0.07470  0.46870  0.08773  1.0000 0.302811039
H   H8        1.0  0.23670  0.56010  0.97593  1.0000 0.1195092102
H   H9        1.0  0.84000  0.25760  0.05103  1.0000 0.1370093997
H   H10       1.0  0.73790  0.11710  0.91313  1.0000 0.1281751084
H   H11       1.0  0.87110  0.11470  0.87003  1.0000 0.1281751084
H   H12       1.0  0.73030  0.15320  0.77433  1.0000 0.0954923171
H   H13       1.0  0.53130  0.60600  0.42107  1.0000 0.302811039
H   H14       1.0  0.43990  0.67660  0.30927  1.0000 0.1195092102
H   H15       1.0  0.74240  0.58240  0.38437  1.0000 0.1370093997
H   H16       1.0  0.88290  0.62080  0.24647  1.0000 0.1281751084
H   H17       1.0  0.88530  0.75640  0.20337  1.0000 0.1281751084
H   H18       1.0  0.84680  0.57710  0.10767  1.0000 0.0954923171
H   H19       1.0  0.92530  0.39400  0.24560  1.0000 0.302811039
H   H20       1.0  0.76330  0.32340  0.35740  1.0000 0.1195092102
H   H21       1.0  0.16000  0.41760  0.28230  1.0000 0.1370093997
H   H22       1.0  0.26210  0.37920  0.42020  1.0000 0.1281751084
H   H23       1.0  0.12890  0.24360  0.46330  1.0000 0.1281751084
H   H24       1.0  0.26970  0.42290  0.55900  1.0000 0.0954923171
H   H25       1.0  0.46870  0.07470  0.91227  1.0000 0.302811039
H   H26       1.0  0.56010  0.23670  0.02407  1.0000 0.1195092102
H   H27       1.0  0.25760  0.84000  0.94897  1.0000 0.1370093997
H   H28       1.0  0.11710  0.73790  0.08687  1.0000 0.1281751084
H   H29       1.0  0.11470  0.87110  0.12997  1.0000 0.1281751084
H   H30       1.0  0.15320  0.73030  0.22567  1.0000 0.0954923171
H   H31       1.0  0.60600  0.53130  0.57893  1.0000 0.302811039
H   H32       1.0  0.67660  0.43990  0.69073  1.0000 0.1195092102
H   H33       1.0  0.58240  0.74240  0.61563  1.0000 0.1370093997
H   H34       1.0  0.62080  0.88290  0.75353  1.0000 0.1281751084
H   H35       1.0  0.75640  0.88530  0.79663  1.0000 0.1281751084
H   H36       1.0  0.57710  0.84680  0.89233  1.0000 0.0954923171
C   C1        1.0  0.60040  0.27450  0.49595  1.0000 0.5576431429
C   C2        1.0  0.34000  0.86010  0.64288  1.0000 0.1718247223
C   C3        1.0  0.39170  0.07800  0.68468  1.0000 -0.1056731827
C   C4        1.0  0.35950  0.06550  0.60562  1.0000 0.1718247223
C   C5        1.0  0.34720  0.16920  0.55133  1.0000 -0.2923202092
C   C6        1.0  0.43870  0.20080  0.47449  1.0000 0.024431603
C   C7        1.0  0.39920  0.07280  0.35339  1.0000 0.3477242118
C   C8        1.0  0.72550  0.32590  0.82928  1.0000 0.5576431429
C   C9        1.0  0.13990  0.47990  0.97621  1.0000 0.1718247223
C   C10       1.0  0.92200  0.31370  0.01801  1.0000 -0.1056731827
C   C11       1.0  0.93450  0.29400  0.93895  1.0000 0.1718247223
C   C12       1.0  0.83080  0.17800  0.88466  1.0000 -0.2923202092
C   C13       1.0  0.79920  0.23790  0.80782  1.0000 0.024431603
C   C14       1.0  0.92720  0.32640  0.68672  1.0000 0.3477242118
C   C15       1.0  0.67410  0.39960  0.16262  1.0000 0.5576431429
C   C16       1.0  0.52010  0.66000  0.30955  1.0000 0.1718247223
C   C17       1.0  0.68630  0.60830  0.35135  1.0000 -0.1056731827
C   C18       1.0  0.70600  0.64050  0.27229  1.0000 0.1718247223
C   C19       1.0  0.82200  0.65280  0.21800  1.0000 -0.2923202092
C   C20       1.0  0.76210  0.56130  0.14116  1.0000 0.024431603
C   C21       1.0  0.67360  0.60080  0.02006  1.0000 0.3477242118
C   C22       1.0  0.27450  0.60040  0.50405  1.0000 0.5576431429
C   C23       1.0  0.86010  0.34000  0.35712  1.0000 0.1718247223
C   C24       1.0  0.07800  0.39170  0.31532  1.0000 -0.1056731827
C   C25       1.0  0.06550  0.35950  0.39438  1.0000 0.1718247223
C   C26       1.0  0.16920  0.34720  0.44867  1.0000 -0.2923202092
C   C27       1.0  0.20080  0.43870  0.52551  1.0000 0.024431603
C   C28       1.0  0.07280  0.39920  0.64661  1.0000 0.3477242118
C   C29       1.0  0.32590  0.72550  0.17072  1.0000 0.5576431429
C   C30       1.0  0.47990  0.13990  0.02379  1.0000 0.1718247223
C   C31       1.0  0.31370  0.92200  0.98199  1.0000 -0.1056731827
C   C32       1.0  0.29400  0.93450  0.06105  1.0000 0.1718247223
C   C33       1.0  0.17800  0.83080  0.11534  1.0000 -0.2923202092
C   C34       1.0  0.23790  0.79920  0.19218  1.0000 0.024431603
C   C35       1.0  0.32640  0.92720  0.31328  1.0000 0.3477242118
C   C36       1.0  0.39960  0.67410  0.83738  1.0000 0.5576431429
C   C37       1.0  0.66000  0.52010  0.69045  1.0000 0.1718247223
C   C38       1.0  0.60830  0.68630  0.64865  1.0000 -0.1056731827
C   C39       1.0  0.64050  0.70600  0.72771  1.0000 0.1718247223
C   C40       1.0  0.65280  0.82200  0.78200  1.0000 -0.2923202092
C   C41       1.0  0.56130  0.76210  0.85884  1.0000 0.024431603
C   C42       1.0  0.60080  0.67360  0.97994  1.0000 0.3477242118
N   N1        1.0  0.32820  0.93000  0.58050  1.0000 -0.3505482499
N   N2        1.0  0.38730  0.06580  0.43054  1.0000 -0.4115769391
N   N3        1.0  0.37900  0.94790  0.70640  1.0000 -0.1808003783
N   N4        1.0  0.07000  0.39820  0.91383  1.0000 -0.3505482499
N   N5        1.0  0.93420  0.32150  0.76387  1.0000 -0.4115769391
N   N6        1.0  0.05210  0.43110  0.03973  1.0000 -0.1808003783
N   N7        1.0  0.60180  0.67180  0.24717  1.0000 -0.3505482499
N   N8        1.0  0.67850  0.61270  0.09721  1.0000 -0.4115769391
N   N9        1.0  0.56890  0.62100  0.37307  1.0000 -0.1808003783
N   N10       1.0  0.93000  0.32820  0.41950  1.0000 -0.3505482499
N   N11       1.0  0.06580  0.38730  0.56946  1.0000 -0.4115769391
N   N12       1.0  0.94790  0.37900  0.29360  1.0000 -0.1808003783
N   N13       1.0  0.39820  0.07000  0.08617  1.0000 -0.3505482499
N   N14       1.0  0.32150  0.93420  0.23613  1.0000 -0.4115769391
N   N15       1.0  0.43110  0.05210  0.96027  1.0000 -0.1808003783
N   N16       1.0  0.67180  0.60180  0.75283  1.0000 -0.3505482499
N   N17       1.0  0.61270  0.67850  0.90279  1.0000 -0.4115769391
N   N18       1.0  0.62100  0.56890  0.62693  1.0000 -0.1808003783
O   O1        1.0  0.65970  0.19670  0.49845  1.0000 -0.4974342659
O   O2        1.0  0.66310  0.40870  0.51109  1.0000 -0.5993389512
O   O3        1.0  0.45950  0.18750  0.31029  1.0000 -0.4768030469
O   O4        1.0  0.80330  0.46300  0.83178  1.0000 -0.4974342659
O   O5        1.0  0.59130  0.25440  0.84442  1.0000 -0.5993389512
O   O6        1.0  0.81250  0.27200  0.64362  1.0000 -0.4768030469
O   O7        1.0  0.53700  0.34030  0.16512  1.0000 -0.4974342659
O   O8        1.0  0.74560  0.33690  0.17776  1.0000 -0.5993389512
O   O9        1.0  0.72800  0.54050  0.97696  1.0000 -0.4768030469
O   O10       1.0  0.19670  0.65970  0.50155  1.0000 -0.4974342659
O   O11       1.0  0.40870  0.66310  0.48891  1.0000 -0.5993389512
O   O12       1.0  0.18750  0.45950  0.68971  1.0000 -0.4768030469
O   O13       1.0  0.46300  0.80330  0.16822  1.0000 -0.4974342659
O   O14       1.0  0.25440  0.59130  0.15558  1.0000 -0.5993389512
O   O15       1.0  0.27200  0.81250  0.35638  1.0000 -0.4768030469
O   O16       1.0  0.34030  0.53700  0.83488  1.0000 -0.4974342659
O   O17       1.0  0.33690  0.74560  0.82224  1.0000 -0.5993389512
O   O18       1.0  0.54050  0.72800  0.02304  1.0000 -0.4768030469
