# DDEC6 charges by PACMAN v1.1 (https://github.com/mtap-research/PACMAN-charge/)
data_2019[Er][kgd]2[FSR]1
_chemical_formula_sum              "Er2 H38 C54 O16"
_cell_length_a       9.177
_cell_length_b       13.7332
_cell_length_c       15.2857
_cell_angle_alpha    106.385
_cell_angle_beta     95.812
_cell_angle_gamma    95.528

_symmetry_space_group_name_H-M    "P 1"
_symmetry_Int_Tables_number       1

loop_
  _symmetry_equiv_pos_as_xyz
  'x, y, z'

loop_
  _atom_site_type_symbol
  _atom_site_label
  _atom_site_symmetry_multiplicity
  _atom_site_fract_x
  _atom_site_fract_y
  _atom_site_fract_z
  _atom_site_occupancy
  _atom_site_charge
Er  Er1       1.0  0.92291  0.83921  0.45679  1.0000 2.0035815584
Er  Er2       1.0  0.07709  0.16079  0.54321  1.0000 2.0035815584
H   H1        1.0  0.70800  0.73780  0.53160  1.0000 0.3456478018
H   H2        1.0  0.72160  0.66780  0.44940  1.0000 0.3679185259
H   H3        1.0  0.21860  0.81820  0.45550  1.0000 0.3558444428
H   H4        1.0  0.20780  0.86410  0.54470  1.0000 0.3439087915
H   H5        1.0  0.05770  0.87250  0.77250  1.0000 0.1170890701
H   H6        1.0  0.13610  0.93750  0.92920  1.0000 0.1124873283
H   H7        1.0  0.08680  0.22020  0.91620  1.0000 0.1170890701
H   H8        1.0  0.01130  0.15560  0.76040  1.0000 0.1378161433
H   H9        1.0  0.28980  0.01280  0.05360  1.0000 0.1124873283
H   H10       1.0  0.07670  0.25680  0.06250  1.0000 0.1124873283
H   H11       1.0  0.30610  0.23550  0.29210  1.0000 0.1124873283
H   H12       1.0  0.14470  0.33760  0.36230  1.0000 0.1170890701
H   H13       1.0  0.08090  0.49420  0.44120  1.0000 0.1296353338
H   H14       1.0  0.05940  0.57780  0.20990  1.0000 0.1296353338
H   H15       1.0  0.13010  0.42420  0.13150  1.0000 0.1170890701
H   H16       1.0  0.64980  0.89850  0.19580  1.0000 0.1170890701
H   H17       1.0  0.50740  0.98850  0.12190  1.0000 0.1124873283
H   H18       1.0  0.33450  0.10700  0.35340  1.0000 0.1170890701
H   H19       1.0  0.48730  0.02430  0.42990  1.0000 0.1296353338
H   H20       1.0  0.29200  0.26220  0.46840  1.0000 0.3456478018
H   H21       1.0  0.27840  0.33220  0.55060  1.0000 0.3679185259
H   H22       1.0  0.78140  0.18180  0.54450  1.0000 0.3558444428
H   H23       1.0  0.79220  0.13590  0.45530  1.0000 0.3439087915
H   H24       1.0  0.94230  0.12750  0.22750  1.0000 0.1170890701
H   H25       1.0  0.86390  0.06250  0.07080  1.0000 0.1124873283
H   H26       1.0  0.91320  0.77980  0.08380  1.0000 0.1170890701
H   H27       1.0  0.98870  0.84440  0.23960  1.0000 0.1378161433
H   H28       1.0  0.71020  0.98720  0.94640  1.0000 0.1124873283
H   H29       1.0  0.92330  0.74320  0.93750  1.0000 0.1124873283
H   H30       1.0  0.69390  0.76450  0.70790  1.0000 0.1124873283
H   H31       1.0  0.85530  0.66240  0.63770  1.0000 0.1170890701
H   H32       1.0  0.91910  0.50580  0.55880  1.0000 0.1296353338
H   H33       1.0  0.94060  0.42220  0.79010  1.0000 0.1296353338
H   H34       1.0  0.86990  0.57580  0.86850  1.0000 0.1170890701
H   H35       1.0  0.35020  0.10150  0.80420  1.0000 0.1170890701
H   H36       1.0  0.49260  0.01150  0.87810  1.0000 0.1124873283
H   H37       1.0  0.66550  0.89300  0.64660  1.0000 0.1170890701
H   H38       1.0  0.51270  0.97570  0.57010  1.0000 0.1296353338
C   C1        1.0  0.06470  0.94250  0.80120  1.0000 -0.0903004957
C   C2        1.0  0.11180  0.98190  0.89560  1.0000 -0.1509002802
C   C3        1.0  0.12300  0.08570  0.94020  1.0000 0.071392978
C   C4        1.0  0.08260  0.15030  0.88760  1.0000 -0.1509002802
C   C5        1.0  0.03670  0.11140  0.79400  1.0000 -0.0793176916
C   C6        1.0  0.17560  0.12840  0.04080  1.0000 0.0823301199
C   C7        1.0  0.26310  0.07500  0.08640  1.0000 -0.2012485851
C   C8        1.0  0.13670  0.22140  0.09180  1.0000 -0.2012485851
C   C9        1.0  0.18520  0.26240  0.18520  1.0000 0.0823301199
C   C10       1.0  0.27280  0.20830  0.22960  1.0000 -0.1860726503
C   C11       1.0  0.14510  0.36260  0.23770  1.0000 0.071392978
C   C12       1.0  0.12880  0.38590  0.33140  1.0000 -0.1509002802
C   C13       1.0  0.08930  0.47960  0.37880  1.0000 -0.0793176916
C   C14       1.0  0.06250  0.55150  0.33300  1.0000 -0.0204013348
C   C15       1.0  0.07750  0.52970  0.24070  1.0000 -0.0903004957
C   C16       1.0  0.11920  0.43720  0.19340  1.0000 -0.1509002802
C   C17       1.0  0.01420  0.65210  0.38150  1.0000 0.5456927168
C   C18       1.0  0.98560  0.96480  0.64820  1.0000 0.609124397
C   C19       1.0  0.02800  0.00840  0.74980  1.0000 -0.0364927192
C   C20       1.0  0.68370  0.89980  0.36980  1.0000 0.5622522282
C   C21       1.0  0.58310  0.95290  0.32110  1.0000 -0.0204013348
C   C22       1.0  0.58820  0.94150  0.22780  1.0000 -0.0903004957
C   C23       1.0  0.50110  0.99440  0.18350  1.0000 -0.1509002802
C   C24       1.0  0.40360  0.05690  0.22930  1.0000 0.071392978
C   C25       1.0  0.39900  0.06640  0.32170  1.0000 -0.1351211322
C   C26       1.0  0.48960  0.01570  0.36750  1.0000 -0.0903004957
C   C27       1.0  0.31080  0.11440  0.18140  1.0000 0.0907944451
C   C28       1.0  0.93530  0.05750  0.19880  1.0000 -0.0903004957
C   C29       1.0  0.88820  0.01810  0.10440  1.0000 -0.1509002802
C   C30       1.0  0.87700  0.91430  0.05980  1.0000 0.071392978
C   C31       1.0  0.91740  0.84970  0.11240  1.0000 -0.1509002802
C   C32       1.0  0.96330  0.88860  0.20600  1.0000 -0.0793176916
C   C33       1.0  0.82440  0.87160  0.95920  1.0000 0.0823301199
C   C34       1.0  0.73690  0.92500  0.91360  1.0000 -0.2012485851
C   C35       1.0  0.86330  0.77860  0.90820  1.0000 -0.2012485851
C   C36       1.0  0.81480  0.73760  0.81480  1.0000 0.0823301199
C   C37       1.0  0.72720  0.79170  0.77040  1.0000 -0.1860726503
C   C38       1.0  0.85490  0.63740  0.76230  1.0000 0.071392978
C   C39       1.0  0.87120  0.61410  0.66860  1.0000 -0.1509002802
C   C40       1.0  0.91070  0.52040  0.62120  1.0000 -0.0793176916
C   C41       1.0  0.93750  0.44850  0.66700  1.0000 -0.0204013348
C   C42       1.0  0.92250  0.47030  0.75930  1.0000 -0.0903004957
C   C43       1.0  0.88080  0.56280  0.80660  1.0000 -0.1509002802
C   C44       1.0  0.98580  0.34790  0.61850  1.0000 0.5456927168
C   C45       1.0  0.01440  0.03520  0.35180  1.0000 0.609124397
C   C46       1.0  0.97200  0.99160  0.25020  1.0000 -0.0364927192
C   C47       1.0  0.31630  0.10020  0.63020  1.0000 0.5622522282
C   C48       1.0  0.41690  0.04710  0.67890  1.0000 -0.0204013348
C   C49       1.0  0.41180  0.05850  0.77220  1.0000 -0.0903004957
C   C50       1.0  0.49890  0.00560  0.81650  1.0000 -0.1509002802
C   C51       1.0  0.59640  0.94310  0.77070  1.0000 0.071392978
C   C52       1.0  0.60100  0.93360  0.67830  1.0000 -0.1351211322
C   C53       1.0  0.51040  0.98430  0.63250  1.0000 -0.0903004957
C   C54       1.0  0.68920  0.88560  0.81860  1.0000 0.0907944451
O   O1        1.0  0.99180  0.02240  0.59620  1.0000 -0.6927116168
O   O2        1.0  0.74180  0.82610  0.32520  1.0000 -0.5981859816
O   O3        1.0  0.71540  0.93400  0.45800  1.0000 -0.6328291845
O   O4        1.0  0.71270  0.73260  0.47340  1.0000 -0.7431260002
O   O5        1.0  0.94430  0.87070  0.61540  1.0000 -0.6552914632
O   O6        1.0  0.99780  0.67440  0.46480  1.0000 -0.6328291845
O   O7        1.0  0.98780  0.71360  0.33500  1.0000 -0.6479221833
O   O8        1.0  0.18210  0.86740  0.49040  1.0000 -0.7170765651
O   O9        1.0  0.00820  0.97760  0.40380  1.0000 -0.6927116168
O   O10       1.0  0.25820  0.17390  0.67480  1.0000 -0.5981859816
O   O11       1.0  0.28460  0.06600  0.54200  1.0000 -0.6328291845
O   O12       1.0  0.28730  0.26740  0.52660  1.0000 -0.7431260002
O   O13       1.0  0.05570  0.12930  0.38460  1.0000 -0.6552914632
O   O14       1.0  0.00220  0.32560  0.53520  1.0000 -0.6328291845
O   O15       1.0  0.01220  0.28640  0.66500  1.0000 -0.6479221833
O   O16       1.0  0.81790  0.13260  0.50960  1.0000 -0.7170765651
