# DDEC6 charges by PACMAN v1.1 (https://github.com/mtap-research/PACMAN-charge/)
data_2019[Gd][sql]2[FSR]3
_chemical_formula_sum              "Gd8 H128 C72 O64"
_cell_length_a       8.7062
_cell_length_b       14.247
_cell_length_c       23.366
_cell_angle_alpha    90
_cell_angle_beta     90
_cell_angle_gamma    90

_symmetry_space_group_name_H-M    "P 1"
_symmetry_Int_Tables_number       1

loop_
  _symmetry_equiv_pos_as_xyz
  'x, y, z'

loop_
  _atom_site_type_symbol
  _atom_site_label
  _atom_site_symmetry_multiplicity
  _atom_site_fract_x
  _atom_site_fract_y
  _atom_site_fract_z
  _atom_site_occupancy
  _atom_site_charge
Gd  Gd1       1.0  0.72428  0.53554  0.19198  1.0000 1.9481507882
Gd  Gd2       1.0  0.77185  0.32395  0.31205  1.0000 1.9379801795
Gd  Gd3       1.0  0.77572  0.46446  0.69198  1.0000 1.9481507882
Gd  Gd4       1.0  0.72815  0.67605  0.81205  1.0000 1.9379801795
Gd  Gd5       1.0  0.27572  0.03554  0.30802  1.0000 1.9481507882
Gd  Gd6       1.0  0.22815  0.82395  0.18795  1.0000 1.9379801795
Gd  Gd7       1.0  0.22428  0.96446  0.80802  1.0000 1.9481507882
Gd  Gd8       1.0  0.27185  0.17605  0.68795  1.0000 1.9379801795
H   H1        1.0  0.89708  0.55922  0.29071  1.0000 0.3591713098
H   H2        1.0  0.87057  0.64762  0.27226  1.0000 0.3501705989
H   H3        1.0  0.69427  0.70475  0.12932  1.0000 0.379769516
H   H4        1.0  0.80332  0.72458  0.17120  1.0000 0.379769516
H   H5        1.0  0.73582  0.15371  0.36896  1.0000 0.3501705989
H   H6        1.0  0.87776  0.14821  0.34485  1.0000 0.366327618
H   H7        1.0  0.52892  0.23371  0.25698  1.0000 0.4216511294
H   H8        1.0  0.65913  0.26332  0.21417  1.0000 0.3935686394
H   H9        1.0  0.25030  0.46120  0.10148  1.0000 0.0990659142
H   H10       1.0  0.16486  0.44519  0.18958  1.0000 0.11841912
H   H11       1.0  0.25953  0.35335  0.20010  1.0000 0.1102767706
H   H12       1.0  0.00497  0.35459  0.12167  1.0000 0.1468946531
H   H13       1.0  0.08806  0.26369  0.14427  1.0000 0.1304302136
H   H14       1.0  0.44794  0.34292  0.07483  1.0000 0.1304302136
H   H15       1.0  0.28098  0.34666  0.04980  1.0000 0.1102767706
H   H16       1.0  0.31876  0.27943  0.10101  1.0000 0.11841912
H   H17       1.0  0.08425  0.71032  0.96398  1.0000 0.0908779006
H   H18       1.0  0.94940  0.72258  0.05608  1.0000 0.0990659142
H   H19       1.0  0.80217  0.68831  0.02359  1.0000 0.0990659142
H   H20       1.0  0.07519  0.57836  0.03323  1.0000 0.1304302136
H   H21       1.0  0.92537  0.54379  0.00159  1.0000 0.1468946531
H   H22       1.0  0.00873  0.86247  0.93684  1.0000 0.1304302136
H   H23       1.0  0.03721  0.85520  0.00294  1.0000 0.1377170764
H   H24       1.0  0.86903  0.85572  0.97897  1.0000 0.11841912
H   H25       1.0  0.49528  0.48520  0.37799  1.0000 0.1102767706
H   H26       1.0  0.24205  0.51727  0.30345  1.0000 0.11841912
H   H27       1.0  0.32579  0.42005  0.30712  1.0000 0.11841912
H   H28       1.0  0.24685  0.40388  0.40357  1.0000 0.1377170764
H   H29       1.0  0.16418  0.50181  0.40037  1.0000 0.1304302136
H   H30       1.0  0.50178  0.65403  0.38032  1.0000 0.1304302136
H   H31       1.0  0.36593  0.60730  0.41389  1.0000 0.11841912
H   H32       1.0  0.33698  0.65126  0.35334  1.0000 0.11841912
H   H33       1.0  0.60292  0.44078  0.79071  1.0000 0.3591713098
H   H34       1.0  0.62943  0.35238  0.77226  1.0000 0.3501705989
H   H35       1.0  0.80573  0.29525  0.62932  1.0000 0.379769516
H   H36       1.0  0.69668  0.27542  0.67120  1.0000 0.379769516
H   H37       1.0  0.76418  0.84629  0.86896  1.0000 0.3591713098
H   H38       1.0  0.62224  0.85179  0.84485  1.0000 0.366327618
H   H39       1.0  0.97108  0.76629  0.75698  1.0000 0.4216511294
H   H40       1.0  0.84087  0.73668  0.71417  1.0000 0.3935686394
H   H41       1.0  0.24970  0.53880  0.60148  1.0000 0.0990659142
H   H42       1.0  0.33514  0.55481  0.68958  1.0000 0.11841912
H   H43       1.0  0.24047  0.64665  0.70010  1.0000 0.1102767706
H   H44       1.0  0.49503  0.64541  0.62167  1.0000 0.1468946531
H   H45       1.0  0.41194  0.73631  0.64427  1.0000 0.1304302136
H   H46       1.0  0.05206  0.65708  0.57483  1.0000 0.1304302136
H   H47       1.0  0.21902  0.65334  0.54980  1.0000 0.1102767706
H   H48       1.0  0.18124  0.72057  0.60101  1.0000 0.11841912
H   H49       1.0  0.41575  0.28968  0.46398  1.0000 0.0908779006
H   H50       1.0  0.55060  0.27742  0.55608  1.0000 0.0990659142
H   H51       1.0  0.69783  0.31169  0.52359  1.0000 0.0990659142
H   H52       1.0  0.42481  0.42164  0.53323  1.0000 0.1304302136
H   H53       1.0  0.57463  0.45621  0.50159  1.0000 0.1468946531
H   H54       1.0  0.49127  0.13753  0.43684  1.0000 0.1304302136
H   H55       1.0  0.46279  0.14480  0.50294  1.0000 0.1377170764
H   H56       1.0  0.63097  0.14428  0.47897  1.0000 0.11841912
H   H57       1.0  0.00472  0.51480  0.87799  1.0000 0.1102767706
H   H58       1.0  0.25795  0.48273  0.80345  1.0000 0.11841912
H   H59       1.0  0.17421  0.57995  0.80712  1.0000 0.11841912
H   H60       1.0  0.25315  0.59612  0.90357  1.0000 0.1377170764
H   H61       1.0  0.33582  0.49819  0.90037  1.0000 0.1304302136
H   H62       1.0  0.99822  0.34597  0.88032  1.0000 0.1304302136
H   H63       1.0  0.13407  0.39270  0.91389  1.0000 0.11841912
H   H64       1.0  0.16302  0.34874  0.85334  1.0000 0.11841912
H   H65       1.0  0.10292  0.05922  0.20929  1.0000 0.3591713098
H   H66       1.0  0.12943  0.14762  0.22774  1.0000 0.3501705989
H   H67       1.0  0.30573  0.20475  0.37068  1.0000 0.379769516
H   H68       1.0  0.19668  0.22458  0.32880  1.0000 0.379769516
H   H69       1.0  0.26418  0.65371  0.13104  1.0000 0.3591713098
H   H70       1.0  0.12224  0.64821  0.15515  1.0000 0.366327618
H   H71       1.0  0.47108  0.73371  0.24302  1.0000 0.4216511294
H   H72       1.0  0.34087  0.76332  0.28583  1.0000 0.3935686394
H   H73       1.0  0.74970  0.96120  0.39852  1.0000 0.0990659142
H   H74       1.0  0.83514  0.94519  0.31042  1.0000 0.11841912
H   H75       1.0  0.74047  0.85335  0.29990  1.0000 0.1102767706
H   H76       1.0  0.99503  0.85459  0.37833  1.0000 0.1468946531
H   H77       1.0  0.91194  0.76369  0.35573  1.0000 0.1304302136
H   H78       1.0  0.55206  0.84292  0.42517  1.0000 0.1304302136
H   H79       1.0  0.71902  0.84666  0.45020  1.0000 0.1102767706
H   H80       1.0  0.68124  0.77943  0.39899  1.0000 0.11841912
H   H81       1.0  0.91575  0.21032  0.53602  1.0000 0.0908779006
H   H82       1.0  0.05060  0.22258  0.44392  1.0000 0.0990659142
H   H83       1.0  0.19783  0.18831  0.47641  1.0000 0.0990659142
H   H84       1.0  0.92481  0.07836  0.46677  1.0000 0.1304302136
H   H85       1.0  0.07463  0.04379  0.49841  1.0000 0.1468946531
H   H86       1.0  0.99127  0.36247  0.56316  1.0000 0.1304302136
H   H87       1.0  0.96279  0.35520  0.49706  1.0000 0.1377170764
H   H88       1.0  0.13097  0.35572  0.52103  1.0000 0.11841912
H   H89       1.0  0.50472  0.98520  0.12201  1.0000 0.1102767706
H   H90       1.0  0.75795  0.01727  0.19655  1.0000 0.11841912
H   H91       1.0  0.67421  0.92005  0.19288  1.0000 0.11841912
H   H92       1.0  0.75315  0.90388  0.09643  1.0000 0.1377170764
H   H93       1.0  0.83582  0.00181  0.09963  1.0000 0.1304302136
H   H94       1.0  0.49822  0.15403  0.11968  1.0000 0.1304302136
H   H95       1.0  0.63407  0.10730  0.08611  1.0000 0.11841912
H   H96       1.0  0.66302  0.15126  0.14666  1.0000 0.11841912
H   H97       1.0  0.39708  0.94078  0.70929  1.0000 0.3591713098
H   H98       1.0  0.37057  0.85238  0.72774  1.0000 0.3501705989
H   H99       1.0  0.19427  0.79525  0.87068  1.0000 0.379769516
H   H100      1.0  0.30332  0.77542  0.82880  1.0000 0.379769516
H   H101      1.0  0.23582  0.34629  0.63104  1.0000 0.3591713098
H   H102      1.0  0.37776  0.35179  0.65515  1.0000 0.366327618
H   H103      1.0  0.02892  0.26629  0.74302  1.0000 0.4216511294
H   H104      1.0  0.15913  0.23668  0.78583  1.0000 0.3935686394
H   H105      1.0  0.75030  0.03880  0.89852  1.0000 0.0990659142
H   H106      1.0  0.66486  0.05481  0.81042  1.0000 0.11841912
H   H107      1.0  0.75953  0.14665  0.79990  1.0000 0.1102767706
H   H108      1.0  0.50497  0.14541  0.87833  1.0000 0.1468946531
H   H109      1.0  0.58806  0.23631  0.85573  1.0000 0.1304302136
H   H110      1.0  0.94794  0.15708  0.92517  1.0000 0.1304302136
H   H111      1.0  0.78098  0.15334  0.95020  1.0000 0.1102767706
H   H112      1.0  0.81876  0.22057  0.89899  1.0000 0.11841912
H   H113      1.0  0.58425  0.78968  0.03602  1.0000 0.0908779006
H   H114      1.0  0.44940  0.77742  0.94392  1.0000 0.0990659142
H   H115      1.0  0.30217  0.81169  0.97641  1.0000 0.0990659142
H   H116      1.0  0.57519  0.92164  0.96677  1.0000 0.1304302136
H   H117      1.0  0.42537  0.95621  0.99841  1.0000 0.1468946531
H   H118      1.0  0.50873  0.63753  0.06316  1.0000 0.1304302136
H   H119      1.0  0.53721  0.64480  0.99706  1.0000 0.1377170764
H   H120      1.0  0.36903  0.64428  0.02103  1.0000 0.11841912
H   H121      1.0  0.99528  0.01480  0.62201  1.0000 0.1102767706
H   H122      1.0  0.74205  0.98273  0.69655  1.0000 0.11841912
H   H123      1.0  0.82579  0.07995  0.69288  1.0000 0.11841912
H   H124      1.0  0.74685  0.09612  0.59643  1.0000 0.1377170764
H   H125      1.0  0.66418  0.99819  0.59963  1.0000 0.1304302136
H   H126      1.0  0.00178  0.84597  0.61968  1.0000 0.1304302136
H   H127      1.0  0.86593  0.89270  0.58611  1.0000 0.11841912
H   H128      1.0  0.83698  0.84874  0.64666  1.0000 0.11841912
C   C1        1.0  0.44590  0.45550  0.14800  1.0000 0.586746101
C   C2        1.0  0.30250  0.41200  0.12340  1.0000 -0.0634688206
C   C3        1.0  0.20040  0.38760  0.17180  1.0000 -0.142294179
C   C4        1.0  0.05640  0.32680  0.15440  1.0000 -0.3172582828
C   C5        1.0  0.94960  0.32440  0.20530  1.0000 0.6587646201
C   C6        1.0  0.34100  0.33900  0.08410  1.0000 -0.3899802596
C   C7        1.0  0.89600  0.69550  0.91500  1.0000 0.5511538431
C   C8        1.0  0.97630  0.72900  0.96740  1.0000 -0.067309953
C   C9        1.0  0.91350  0.68550  0.02390  1.0000 -0.1488280699
C   C10       1.0  0.96410  0.58310  0.03230  1.0000 -0.3264802352
C   C11       1.0  0.89360  0.55380  0.09050  1.0000 0.6076736494
C   C12       1.0  0.97200  0.83540  0.97200  1.0000 -0.4096456126
C   C13       1.0  0.54950  0.53120  0.29850  1.0000 0.6187110587
C   C14       1.0  0.44590  0.52520  0.34930  1.0000 -0.067309953
C   C15       1.0  0.29790  0.47550  0.32880  1.0000 -0.142294179
C   C16       1.0  0.19290  0.44680  0.37840  1.0000 -0.3172582828
C   C17       1.0  0.04960  0.39950  0.35480  1.0000 0.6299230203
C   C18       1.0  0.40900  0.61780  0.37670  1.0000 -0.3983553008
C   C19       1.0  0.05410  0.54450  0.64800  1.0000 0.586746101
C   C20       1.0  0.19750  0.58800  0.62340  1.0000 -0.0634688206
C   C21       1.0  0.29960  0.61240  0.67180  1.0000 -0.142294179
C   C22       1.0  0.44360  0.67320  0.65440  1.0000 -0.3172582828
C   C23       1.0  0.55040  0.67560  0.70530  1.0000 0.6587646201
C   C24       1.0  0.15900  0.66100  0.58410  1.0000 -0.3899802596
C   C25       1.0  0.60400  0.30450  0.41500  1.0000 0.5511538431
C   C26       1.0  0.52370  0.27100  0.46740  1.0000 -0.067309953
C   C27       1.0  0.58650  0.31450  0.52390  1.0000 -0.1488280699
C   C28       1.0  0.53590  0.41690  0.53230  1.0000 -0.3264802352
C   C29       1.0  0.60640  0.44620  0.59050  1.0000 0.6076736494
C   C30       1.0  0.52800  0.16460  0.47200  1.0000 -0.4096456126
C   C31       1.0  0.95050  0.46880  0.79850  1.0000 0.6187110587
C   C32       1.0  0.05410  0.47480  0.84930  1.0000 -0.067309953
C   C33       1.0  0.20210  0.52450  0.82880  1.0000 -0.142294179
C   C34       1.0  0.30710  0.55320  0.87840  1.0000 -0.3172582828
C   C35       1.0  0.45040  0.60050  0.85480  1.0000 0.6299230203
C   C36       1.0  0.09100  0.38220  0.87670  1.0000 -0.3983553008
C   C37       1.0  0.55410  0.95550  0.35200  1.0000 0.586746101
C   C38       1.0  0.69750  0.91200  0.37660  1.0000 -0.0634688206
C   C39       1.0  0.79960  0.88760  0.32820  1.0000 -0.142294179
C   C40       1.0  0.94360  0.82680  0.34560  1.0000 -0.3172582828
C   C41       1.0  0.05040  0.82440  0.29470  1.0000 0.6587646201
C   C42       1.0  0.65900  0.83900  0.41590  1.0000 -0.3899802596
C   C43       1.0  0.10400  0.19550  0.58500  1.0000 0.5511538431
C   C44       1.0  0.02370  0.22900  0.53260  1.0000 -0.067309953
C   C45       1.0  0.08650  0.18550  0.47610  1.0000 -0.1488280699
C   C46       1.0  0.03590  0.08310  0.46770  1.0000 -0.3264802352
C   C47       1.0  0.10640  0.05380  0.40950  1.0000 0.6076736494
C   C48       1.0  0.02800  0.33540  0.52800  1.0000 -0.4096456126
C   C49       1.0  0.45050  0.03120  0.20150  1.0000 0.6187110587
C   C50       1.0  0.55410  0.02520  0.15070  1.0000 -0.067309953
C   C51       1.0  0.70210  0.97550  0.17120  1.0000 -0.142294179
C   C52       1.0  0.80710  0.94680  0.12160  1.0000 -0.3172582828
C   C53       1.0  0.95040  0.89950  0.14520  1.0000 0.6299230203
C   C54       1.0  0.59100  0.11780  0.12330  1.0000 -0.3983553008
C   C55       1.0  0.94590  0.04450  0.85200  1.0000 0.586746101
C   C56       1.0  0.80250  0.08800  0.87660  1.0000 -0.0634688206
C   C57       1.0  0.70040  0.11240  0.82820  1.0000 -0.142294179
C   C58       1.0  0.55640  0.17320  0.84560  1.0000 -0.3172582828
C   C59       1.0  0.44960  0.17560  0.79470  1.0000 0.6587646201
C   C60       1.0  0.84100  0.16100  0.91590  1.0000 -0.3899802596
C   C61       1.0  0.39600  0.80450  0.08500  1.0000 0.5511538431
C   C62       1.0  0.47630  0.77100  0.03260  1.0000 -0.067309953
C   C63       1.0  0.41350  0.81450  0.97610  1.0000 -0.1488280699
C   C64       1.0  0.46410  0.91690  0.96770  1.0000 -0.3264802352
C   C65       1.0  0.39360  0.94620  0.90950  1.0000 0.6076736494
C   C66       1.0  0.47200  0.66460  0.02800  1.0000 -0.4096456126
C   C67       1.0  0.04950  0.96880  0.70150  1.0000 0.6187110587
C   C68       1.0  0.94590  0.97480  0.65070  1.0000 -0.067309953
C   C69       1.0  0.79790  0.02450  0.67120  1.0000 -0.142294179
C   C70       1.0  0.69290  0.05320  0.62160  1.0000 -0.3172582828
C   C71       1.0  0.54960  0.10050  0.64520  1.0000 0.6299230203
C   C72       1.0  0.90900  0.88220  0.62330  1.0000 -0.3983553008
O   O1        1.0  0.55360  0.40540  0.16600  1.0000 -0.5917360192
O   O2        1.0  0.90040  0.59360  0.26060  1.0000 -0.7498051554
O   O3        1.0  0.45880  0.54460  0.15170  1.0000 -0.6288873708
O   O4        1.0  0.71220  0.69670  0.16680  1.0000 -0.7791151956
O   O5        1.0  0.94640  0.25700  0.23900  1.0000 -0.5917360192
O   O6        1.0  0.78400  0.16360  0.33710  1.0000 -0.755838509
O   O7        1.0  0.86290  0.39630  0.21600  1.0000 -0.7498051554
O   O8        1.0  0.59570  0.26980  0.24150  1.0000 -0.7791151956
O   O9        1.0  0.96100  0.70720  0.86630  1.0000 -0.6288873708
O   O10       1.0  0.76370  0.66050  0.91560  1.0000 -0.6064351753
O   O11       1.0  0.95860  0.57100  0.13710  1.0000 -0.617145966
O   O12       1.0  0.76180  0.51670  0.08960  1.0000 -0.6288873708
O   O13       1.0  0.54950  0.60270  0.26630  1.0000 -0.5978956178
O   O14       1.0  0.63600  0.46330  0.28640  1.0000 -0.7132616744
O   O15       1.0  0.93810  0.45330  0.33790  1.0000 -0.6453263119
O   O16       1.0  0.03630  0.31420  0.35110  1.0000 -0.5917360192
O   O17       1.0  0.94640  0.59460  0.66600  1.0000 -0.5917360192
O   O18       1.0  0.59960  0.40640  0.76060  1.0000 -0.7498051554
O   O19       1.0  0.04120  0.45540  0.65170  1.0000 -0.6288873708
O   O20       1.0  0.78780  0.30330  0.66680  1.0000 -0.7791151956
O   O21       1.0  0.55360  0.74300  0.73900  1.0000 -0.5917360192
O   O22       1.0  0.71600  0.83640  0.83710  1.0000 -0.755838509
O   O23       1.0  0.63710  0.60370  0.71600  1.0000 -0.7498051554
O   O24       1.0  0.90430  0.73020  0.74150  1.0000 -0.7791151956
O   O25       1.0  0.53900  0.29280  0.36630  1.0000 -0.6288873708
O   O26       1.0  0.73630  0.33950  0.41560  1.0000 -0.6064351753
O   O27       1.0  0.54140  0.42900  0.63710  1.0000 -0.617145966
O   O28       1.0  0.73820  0.48330  0.58960  1.0000 -0.6288873708
O   O29       1.0  0.95050  0.39730  0.76630  1.0000 -0.5978956178
O   O30       1.0  0.86400  0.53670  0.78640  1.0000 -0.7132616744
O   O31       1.0  0.56190  0.54670  0.83790  1.0000 -0.6453263119
O   O32       1.0  0.46370  0.68580  0.85110  1.0000 -0.5917360192
O   O33       1.0  0.44640  0.90540  0.33400  1.0000 -0.5917360192
O   O34       1.0  0.09960  0.09360  0.23940  1.0000 -0.7498051554
O   O35       1.0  0.54120  0.04460  0.34830  1.0000 -0.6288873708
O   O36       1.0  0.28780  0.19670  0.33320  1.0000 -0.7791151956
O   O37       1.0  0.05360  0.75700  0.26100  1.0000 -0.5917360192
O   O38       1.0  0.21600  0.66360  0.16290  1.0000 -0.755838509
O   O39       1.0  0.13710  0.89630  0.28400  1.0000 -0.7498051554
O   O40       1.0  0.40430  0.76980  0.25850  1.0000 -0.7791151956
O   O41       1.0  0.03900  0.20720  0.63370  1.0000 -0.6288873708
O   O42       1.0  0.23630  0.16050  0.58440  1.0000 -0.6064351753
O   O43       1.0  0.04140  0.07100  0.36290  1.0000 -0.617145966
O   O44       1.0  0.23820  0.01670  0.41040  1.0000 -0.6288873708
O   O45       1.0  0.45050  0.10270  0.23370  1.0000 -0.5978956178
O   O46       1.0  0.36400  0.96330  0.21360  1.0000 -0.7132616744
O   O47       1.0  0.06190  0.95330  0.16210  1.0000 -0.6453263119
O   O48       1.0  0.96370  0.81420  0.14890  1.0000 -0.5917360192
O   O49       1.0  0.05360  0.09460  0.83400  1.0000 -0.5917360192
O   O50       1.0  0.40040  0.90640  0.73940  1.0000 -0.7498051554
O   O51       1.0  0.95880  0.95540  0.84830  1.0000 -0.6288873708
O   O52       1.0  0.21220  0.80330  0.83320  1.0000 -0.7791151956
O   O53       1.0  0.44640  0.24300  0.76100  1.0000 -0.5917360192
O   O54       1.0  0.28400  0.33640  0.66290  1.0000 -0.755838509
O   O55       1.0  0.36290  0.10370  0.78400  1.0000 -0.7498051554
O   O56       1.0  0.09570  0.23020  0.75850  1.0000 -0.7791151956
O   O57       1.0  0.46100  0.79280  0.13370  1.0000 -0.6288873708
O   O58       1.0  0.26370  0.83950  0.08440  1.0000 -0.6064351753
O   O59       1.0  0.45860  0.92900  0.86290  1.0000 -0.617145966
O   O60       1.0  0.26180  0.98330  0.91040  1.0000 -0.6288873708
O   O61       1.0  0.04950  0.89730  0.73370  1.0000 -0.5978956178
O   O62       1.0  0.13600  0.03670  0.71360  1.0000 -0.7132616744
O   O63       1.0  0.43810  0.04670  0.66210  1.0000 -0.6453263119
O   O64       1.0  0.53630  0.18580  0.64890  1.0000 -0.5917360192
