# DDEC6 charges by PACMAN v1.1 (https://github.com/mtap-research/PACMAN-charge/)
data_2019[Co][pcu]3[FSR]5
_chemical_formula_sum              "Co8 H120 C144 N16 O32"
_cell_length_a       16.037
_cell_length_b       14.7048
_cell_length_c       18.4764
_cell_angle_alpha    90
_cell_angle_beta     101.241
_cell_angle_gamma    90

_symmetry_space_group_name_H-M    "P 1"
_symmetry_Int_Tables_number       1

loop_
  _symmetry_equiv_pos_as_xyz
  'x, y, z'

loop_
  _atom_site_type_symbol
  _atom_site_label
  _atom_site_symmetry_multiplicity
  _atom_site_fract_x
  _atom_site_fract_y
  _atom_site_fract_z
  _atom_site_occupancy
  _atom_site_charge
Co  Co1       1.0  0.48558  0.50091  0.42445  1.0000 0.8490993516
Co  Co2       1.0  0.01442  0.00091  0.57555  1.0000 0.8490993516
Co  Co3       1.0  0.51442  0.49909  0.57555  1.0000 0.8490993516
Co  Co4       1.0  0.98558  0.99909  0.42445  1.0000 0.8490993516
Co  Co5       1.0  0.02484  0.50481  0.07797  1.0000 0.8568976657
Co  Co6       1.0  0.47516  0.00481  0.92203  1.0000 0.8568976657
Co  Co7       1.0  0.97516  0.49519  0.92203  1.0000 0.8568976657
Co  Co8       1.0  0.52484  0.99519  0.07797  1.0000 0.8568976657
H   H1        1.0  0.34750  0.64530  0.02110  1.0000 0.241641237
H   H2        1.0  0.66310  0.71710  0.39100  1.0000 0.1202066974
H   H3        1.0  0.77400  0.82100  0.39810  1.0000 0.1202066974
H   H4        1.0  0.80470  0.82380  0.62070  1.0000 0.1288643447
H   H5        1.0  0.69190  0.72150  0.61360  1.0000 0.1202066974
H   H6        1.0  0.52560  0.58530  0.28700  1.0000 0.1087261574
H   H7        1.0  0.46540  0.60620  0.16340  1.0000 0.1398420927
H   H8        1.0  0.25730  0.47140  0.19920  1.0000 0.1398420927
H   H9        1.0  0.32360  0.45380  0.32100  1.0000 0.1202066974
H   H10       1.0  0.29330  0.48790  0.06770  1.0000 0.1087261574
H   H11       1.0  0.25870  0.58570  0.08500  1.0000 0.1202066974
H   H12       1.0  0.50610  0.70940  0.92830  1.0000 0.1458357708
H   H13       1.0  0.46720  0.72620  0.00060  1.0000 0.1398420927
H   H14       1.0  0.40700  0.69240  0.92600  1.0000 0.1398420927
H   H15       1.0  0.58530  0.57620  0.93140  1.0000 0.1202066974
H   H16       1.0  0.15250  0.14530  0.97890  1.0000 0.241641237
H   H17       1.0  0.83690  0.21710  0.60900  1.0000 0.1202066974
H   H18       1.0  0.72600  0.32100  0.60190  1.0000 0.1202066974
H   H19       1.0  0.69530  0.32380  0.37930  1.0000 0.1288643447
H   H20       1.0  0.80810  0.22150  0.38640  1.0000 0.1202066974
H   H21       1.0  0.97440  0.08530  0.71300  1.0000 0.1087261574
H   H22       1.0  0.03460  0.10620  0.83660  1.0000 0.1398420927
H   H23       1.0  0.24270  0.97140  0.80080  1.0000 0.1398420927
H   H24       1.0  0.17640  0.95380  0.67900  1.0000 0.1202066974
H   H25       1.0  0.20670  0.98790  0.93230  1.0000 0.1087261574
H   H26       1.0  0.24130  0.08570  0.91500  1.0000 0.1202066974
H   H27       1.0  0.99390  0.20940  0.07170  1.0000 0.1458357708
H   H28       1.0  0.03280  0.22620  0.99940  1.0000 0.1398420927
H   H29       1.0  0.09300  0.19240  0.07400  1.0000 0.1398420927
H   H30       1.0  0.91470  0.07620  0.06860  1.0000 0.1202066974
H   H31       1.0  0.65250  0.35470  0.97890  1.0000 0.241641237
H   H32       1.0  0.33690  0.28290  0.60900  1.0000 0.1202066974
H   H33       1.0  0.22600  0.17900  0.60190  1.0000 0.1202066974
H   H34       1.0  0.19530  0.17620  0.37930  1.0000 0.1288643447
H   H35       1.0  0.30810  0.27850  0.38640  1.0000 0.1202066974
H   H36       1.0  0.47440  0.41470  0.71300  1.0000 0.1087261574
H   H37       1.0  0.53460  0.39380  0.83660  1.0000 0.1398420927
H   H38       1.0  0.74270  0.52860  0.80080  1.0000 0.1398420927
H   H39       1.0  0.67640  0.54620  0.67900  1.0000 0.1202066974
H   H40       1.0  0.70670  0.51210  0.93230  1.0000 0.1087261574
H   H41       1.0  0.74130  0.41430  0.91500  1.0000 0.1202066974
H   H42       1.0  0.49390  0.29060  0.07170  1.0000 0.1458357708
H   H43       1.0  0.53280  0.27380  0.99940  1.0000 0.1398420927
H   H44       1.0  0.59300  0.30760  0.07400  1.0000 0.1398420927
H   H45       1.0  0.41470  0.42380  0.06860  1.0000 0.1202066974
H   H46       1.0  0.84750  0.85470  0.02110  1.0000 0.241641237
H   H47       1.0  0.16310  0.78290  0.39100  1.0000 0.1202066974
H   H48       1.0  0.27400  0.67900  0.39810  1.0000 0.1202066974
H   H49       1.0  0.30470  0.67620  0.62070  1.0000 0.1288643447
H   H50       1.0  0.19190  0.77850  0.61360  1.0000 0.1202066974
H   H51       1.0  0.02560  0.91470  0.28700  1.0000 0.1087261574
H   H52       1.0  0.96540  0.89380  0.16340  1.0000 0.1398420927
H   H53       1.0  0.75730  0.02860  0.19920  1.0000 0.1398420927
H   H54       1.0  0.82360  0.04620  0.32100  1.0000 0.1202066974
H   H55       1.0  0.79330  0.01210  0.06770  1.0000 0.1087261574
H   H56       1.0  0.75870  0.91430  0.08500  1.0000 0.1202066974
H   H57       1.0  0.00610  0.79060  0.92830  1.0000 0.1458357708
H   H58       1.0  0.96720  0.77380  0.00060  1.0000 0.1398420927
H   H59       1.0  0.90700  0.80760  0.92600  1.0000 0.1398420927
H   H60       1.0  0.08530  0.92380  0.93140  1.0000 0.1202066974
H   H61       1.0  0.85030  0.64160  0.41500  1.0000 0.241641237
H   H62       1.0  0.80730  0.25720  0.91280  1.0000 0.1202066974
H   H63       1.0  0.69810  0.15510  0.92320  1.0000 0.1202066974
H   H64       1.0  0.74100  0.19910  0.14420  1.0000 0.1202066974
H   H65       1.0  0.84600  0.30540  0.13260  1.0000 0.1202066974
H   H66       1.0  0.07690  0.66920  0.17330  1.0000 0.1202066974
H   H67       1.0  0.04810  0.74040  0.27720  1.0000 0.1288643447
H   H68       1.0  0.88570  0.53730  0.29670  1.0000 0.1398420927
H   H69       1.0  0.92090  0.46980  0.19370  1.0000 0.1202066974
H   H70       1.0  0.99490  0.72050  0.39550  1.0000 0.1202066974
H   H71       1.0  0.90240  0.74510  0.34990  1.0000 0.1288643447
H   H72       1.0  0.06340  0.58690  0.42090  1.0000 0.1202066974
H   H73       1.0  0.80980  0.49300  0.54990  1.0000 0.1458357708
H   H74       1.0  0.78650  0.52510  0.46570  1.0000 0.1398420927
H   H75       1.0  0.82070  0.59740  0.52930  1.0000 0.1398420927
H   H76       1.0  0.64970  0.14160  0.58500  1.0000 0.241641237
H   H77       1.0  0.69270  0.75720  0.08720  1.0000 0.1202066974
H   H78       1.0  0.80190  0.65510  0.07680  1.0000 0.1202066974
H   H79       1.0  0.75900  0.69910  0.85580  1.0000 0.1202066974
H   H80       1.0  0.65400  0.80540  0.86740  1.0000 0.1202066974
H   H81       1.0  0.42310  0.16920  0.82670  1.0000 0.1202066974
H   H82       1.0  0.45190  0.24040  0.72280  1.0000 0.1288643447
H   H83       1.0  0.61430  0.03730  0.70330  1.0000 0.1398420927
H   H84       1.0  0.57910  0.96980  0.80630  1.0000 0.1202066974
H   H85       1.0  0.50510  0.22050  0.60450  1.0000 0.1202066974
H   H86       1.0  0.59760  0.24510  0.65010  1.0000 0.1288643447
H   H87       1.0  0.43660  0.08690  0.57910  1.0000 0.1202066974
H   H88       1.0  0.69020  0.99300  0.45010  1.0000 0.1458357708
H   H89       1.0  0.71350  0.02510  0.53430  1.0000 0.1398420927
H   H90       1.0  0.67930  0.09740  0.47070  1.0000 0.1398420927
H   H91       1.0  0.14970  0.35840  0.58500  1.0000 0.241641237
H   H92       1.0  0.19270  0.74280  0.08720  1.0000 0.1202066974
H   H93       1.0  0.30190  0.84490  0.07680  1.0000 0.1202066974
H   H94       1.0  0.25900  0.80090  0.85580  1.0000 0.1202066974
H   H95       1.0  0.15400  0.69460  0.86740  1.0000 0.1202066974
H   H96       1.0  0.92310  0.33080  0.82670  1.0000 0.1202066974
H   H97       1.0  0.95190  0.25960  0.72280  1.0000 0.1288643447
H   H98       1.0  0.11430  0.46270  0.70330  1.0000 0.1398420927
H   H99       1.0  0.07910  0.53020  0.80630  1.0000 0.1202066974
H   H100      1.0  0.00510  0.27950  0.60450  1.0000 0.1202066974
H   H101      1.0  0.09760  0.25490  0.65010  1.0000 0.1288643447
H   H102      1.0  0.93660  0.41310  0.57910  1.0000 0.1202066974
H   H103      1.0  0.19020  0.50700  0.45010  1.0000 0.1458357708
H   H104      1.0  0.21350  0.47490  0.53430  1.0000 0.1398420927
H   H105      1.0  0.17930  0.40260  0.47070  1.0000 0.1398420927
H   H106      1.0  0.35030  0.85840  0.41500  1.0000 0.241641237
H   H107      1.0  0.30730  0.24280  0.91280  1.0000 0.1202066974
H   H108      1.0  0.19810  0.34490  0.92320  1.0000 0.1202066974
H   H109      1.0  0.24100  0.30090  0.14420  1.0000 0.1202066974
H   H110      1.0  0.34600  0.19460  0.13260  1.0000 0.1202066974
H   H111      1.0  0.57690  0.83080  0.17330  1.0000 0.1202066974
H   H112      1.0  0.54810  0.75960  0.27720  1.0000 0.1288643447
H   H113      1.0  0.38570  0.96270  0.29670  1.0000 0.1398420927
H   H114      1.0  0.42090  0.03020  0.19370  1.0000 0.1202066974
H   H115      1.0  0.49490  0.77950  0.39550  1.0000 0.1202066974
H   H116      1.0  0.40240  0.75490  0.34990  1.0000 0.1288643447
H   H117      1.0  0.56340  0.91310  0.42090  1.0000 0.1202066974
H   H118      1.0  0.30980  0.00700  0.54990  1.0000 0.1458357708
H   H119      1.0  0.28650  0.97490  0.46570  1.0000 0.1398420927
H   H120      1.0  0.32070  0.90260  0.52930  1.0000 0.1398420927
C   C1        1.0  0.60080  0.63620  0.49870  1.0000 0.5685979214
C   C2        1.0  0.66800  0.70830  0.50170  1.0000 -0.0209178308
C   C3        1.0  0.69200  0.73850  0.43770  1.0000 -0.1303927372
C   C4        1.0  0.75810  0.79970  0.44210  1.0000 -0.1199116881
C   C5        1.0  0.80130  0.83040  0.51010  1.0000 -0.0139065845
C   C6        1.0  0.77620  0.80180  0.57410  1.0000 -0.1129394023
C   C7        1.0  0.70940  0.74090  0.56980  1.0000 -0.1199116881
C   C8        1.0  0.87520  0.89420  0.51410  1.0000 0.5685979214
C   C9        1.0  0.47050  0.56120  0.26860  1.0000 0.0836718525
C   C10       1.0  0.43510  0.57420  0.19470  1.0000 -0.1971980496
C   C11       1.0  0.35460  0.53970  0.16703  1.0000 0.1616765545
C   C12       1.0  0.31290  0.49490  0.21580  1.0000 -0.1971980496
C   C13       1.0  0.35280  0.48480  0.28830  1.0000 0.0836718525
C   C14       1.0  0.31090  0.54910  0.08714  1.0000 -0.1390566169
C   C15       1.0  0.43100  0.54560  0.02046  1.0000 0.1288643447
C   C16       1.0  0.46410  0.68820  0.95660  1.0000 -0.447594264
C   C17       1.0  0.48270  0.59110  0.97952  1.0000 0.0889222804
C   C18       1.0  0.55050  0.54510  0.95950  1.0000 -0.2524320124
C   C19       1.0  0.89920  0.13620  0.50130  1.0000 0.5685979214
C   C20       1.0  0.83200  0.20830  0.49830  1.0000 -0.0209178308
C   C21       1.0  0.80800  0.23850  0.56230  1.0000 -0.1303927372
C   C22       1.0  0.74190  0.29970  0.55790  1.0000 -0.1199116881
C   C23       1.0  0.69870  0.33040  0.48990  1.0000 -0.0139065845
C   C24       1.0  0.72380  0.30180  0.42590  1.0000 -0.1129394023
C   C25       1.0  0.79060  0.24090  0.43020  1.0000 -0.1199116881
C   C26       1.0  0.62480  0.39420  0.48590  1.0000 0.5685979214
C   C27       1.0  0.02950  0.06120  0.73140  1.0000 0.0836718525
C   C28       1.0  0.06490  0.07420  0.80530  1.0000 -0.1971980496
C   C29       1.0  0.14540  0.03970  0.83297  1.0000 0.1616765545
C   C30       1.0  0.18710  0.99490  0.78420  1.0000 -0.1971980496
C   C31       1.0  0.14720  0.98480  0.71170  1.0000 0.0836718525
C   C32       1.0  0.18910  0.04910  0.91286  1.0000 -0.1390566169
C   C33       1.0  0.06900  0.04560  0.97954  1.0000 0.1288643447
C   C34       1.0  0.03590  0.18820  0.04340  1.0000 -0.447594264
C   C35       1.0  0.01730  0.09110  0.02048  1.0000 0.0889222804
C   C36       1.0  0.94950  0.04510  0.04050  1.0000 -0.2524320124
C   C37       1.0  0.39920  0.36380  0.50130  1.0000 0.5685979214
C   C38       1.0  0.33200  0.29170  0.49830  1.0000 -0.0209178308
C   C39       1.0  0.30800  0.26150  0.56230  1.0000 -0.1303927372
C   C40       1.0  0.24190  0.20030  0.55790  1.0000 -0.1199116881
C   C41       1.0  0.19870  0.16960  0.48990  1.0000 -0.0139065845
C   C42       1.0  0.22380  0.19820  0.42590  1.0000 -0.1129394023
C   C43       1.0  0.29060  0.25910  0.43020  1.0000 -0.1129394023
C   C44       1.0  0.12480  0.10580  0.48590  1.0000 0.5685979214
C   C45       1.0  0.52950  0.43880  0.73140  1.0000 0.0836718525
C   C46       1.0  0.56490  0.42580  0.80530  1.0000 -0.1971980496
C   C47       1.0  0.64540  0.46030  0.83297  1.0000 0.1616765545
C   C48       1.0  0.68710  0.50510  0.78420  1.0000 -0.1971980496
C   C49       1.0  0.64720  0.51520  0.71170  1.0000 0.0836718525
C   C50       1.0  0.68910  0.45090  0.91286  1.0000 -0.1390566169
C   C51       1.0  0.56900  0.45440  0.97954  1.0000 0.1288643447
C   C52       1.0  0.53590  0.31180  0.04340  1.0000 -0.447594264
C   C53       1.0  0.51730  0.40890  0.02048  1.0000 0.0889222804
C   C54       1.0  0.44950  0.45490  0.04050  1.0000 -0.2524320124
C   C55       1.0  0.10080  0.86380  0.49870  1.0000 0.5685979214
C   C56       1.0  0.16800  0.79170  0.50170  1.0000 -0.0209178308
C   C57       1.0  0.19200  0.76150  0.43770  1.0000 -0.1303927372
C   C58       1.0  0.25810  0.70030  0.44210  1.0000 -0.1199116881
C   C59       1.0  0.30130  0.66960  0.51010  1.0000 -0.0139065845
C   C60       1.0  0.27620  0.69820  0.57410  1.0000 -0.1129394023
C   C61       1.0  0.20940  0.75910  0.56980  1.0000 -0.1199116881
C   C62       1.0  0.37520  0.60580  0.51410  1.0000 0.5685979214
C   C63       1.0  0.97050  0.93880  0.26860  1.0000 0.0836718525
C   C64       1.0  0.93510  0.92580  0.19470  1.0000 -0.1971980496
C   C65       1.0  0.85460  0.96030  0.16703  1.0000 0.1616765545
C   C66       1.0  0.81290  0.00510  0.21580  1.0000 -0.1971980496
C   C67       1.0  0.85280  0.01520  0.28830  1.0000 0.0836718525
C   C68       1.0  0.81090  0.95090  0.08714  1.0000 -0.1390566169
C   C69       1.0  0.93100  0.95440  0.02046  1.0000 0.1288643447
C   C70       1.0  0.96410  0.81180  0.95660  1.0000 -0.447594264
C   C71       1.0  0.98270  0.90890  0.97952  1.0000 0.0889222804
C   C72       1.0  0.05050  0.95490  0.95950  1.0000 -0.2524320124
C   C73       1.0  0.89880  0.36680  0.01417  1.0000 0.5685979214
C   C74       1.0  0.83470  0.29400  0.02110  1.0000 -0.0209178308
C   C75       1.0  0.79240  0.24720  0.95942  1.0000 -0.1199116881
C   C76       1.0  0.72800  0.18570  0.96580  1.0000 -0.1199116881
C   C77       1.0  0.70750  0.16890  0.03442  1.0000 -0.0251836436
C   C78       1.0  0.75300  0.21240  0.09690  1.0000 -0.1303927372
C   C79       1.0  0.81580  0.27520  0.09005  1.0000 -0.1199116881
C   C80       1.0  0.63590  0.10480  0.04050  1.0000 0.5529924171
C   C81       1.0  0.03780  0.64150  0.19910  1.0000 0.0889222804
C   C82       1.0  0.02050  0.68490  0.26090  1.0000 -0.2159061445
C   C83       1.0  0.96280  0.64710  0.29890  1.0000 0.1458357708
C   C84       1.0  0.92580  0.56580  0.27240  1.0000 -0.19243993
C   C85       1.0  0.94700  0.52590  0.21060  1.0000 0.0889222804
C   C86       1.0  0.94200  0.69430  0.36640  1.0000 -0.1390566169
C   C87       1.0  0.95280  0.56800  0.45690  1.0000 0.1202066974
C   C88       1.0  0.03750  0.55130  0.45320  1.0000 -0.2524320124
C   C89       1.0  0.91480  0.51560  0.50470  1.0000 0.0889222804
C   C90       1.0  0.82520  0.53440  0.51310  1.0000 -0.4598314626
C   C91       1.0  0.60120  0.86680  0.98583  1.0000 0.5685979214
C   C92       1.0  0.66530  0.79400  0.97890  1.0000 -0.0209178308
C   C93       1.0  0.70760  0.74720  0.04058  1.0000 -0.1199116881
C   C94       1.0  0.77200  0.68570  0.03420  1.0000 -0.1199116881
C   C95       1.0  0.79250  0.66890  0.96558  1.0000 -0.0251836436
C   C96       1.0  0.74700  0.71240  0.90310  1.0000 -0.1303927372
C   C97       1.0  0.68420  0.77520  0.90995  1.0000 -0.1199116881
C   C98       1.0  0.86410  0.60480  0.95950  1.0000 0.5529924171
C   C99       1.0  0.46220  0.14150  0.80090  1.0000 0.0889222804
C   C100      1.0  0.47950  0.18490  0.73910  1.0000 -0.2159061445
C   C101      1.0  0.53720  0.14710  0.70110  1.0000 0.1458357708
C   C102      1.0  0.57420  0.06580  0.72760  1.0000 -0.19243993
C   C103      1.0  0.55300  0.02590  0.78940  1.0000 0.0889222804
C   C104      1.0  0.55800  0.19430  0.63360  1.0000 -0.1390566169
C   C105      1.0  0.54720  0.06800  0.54310  1.0000 0.1202066974
C   C106      1.0  0.46250  0.05130  0.54680  1.0000 -0.2524320124
C   C107      1.0  0.58520  0.01560  0.49530  1.0000 0.0889222804
C   C108      1.0  0.67480  0.03440  0.48690  1.0000 -0.4598314626
C   C109      1.0  0.10120  0.63320  0.98583  1.0000 0.5685979214
C   C110      1.0  0.16530  0.70600  0.97890  1.0000 -0.0209178308
C   C111      1.0  0.20760  0.75280  0.04058  1.0000 -0.1199116881
C   C112      1.0  0.27200  0.81430  0.03420  1.0000 -0.1199116881
C   C113      1.0  0.29250  0.83110  0.96558  1.0000 -0.0251836436
C   C114      1.0  0.24700  0.78760  0.90310  1.0000 -0.1303927372
C   C115      1.0  0.18420  0.72480  0.90995  1.0000 -0.1199116881
C   C116      1.0  0.36410  0.89520  0.95950  1.0000 0.5529924171
C   C117      1.0  0.96220  0.35850  0.80090  1.0000 0.0889222804
C   C118      1.0  0.97950  0.31510  0.73910  1.0000 -0.2159061445
C   C119      1.0  0.03720  0.35290  0.70110  1.0000 0.1458357708
C   C120      1.0  0.07420  0.43420  0.72760  1.0000 -0.19243993
C   C121      1.0  0.05300  0.47410  0.78940  1.0000 0.0889222804
C   C122      1.0  0.05800  0.30570  0.63360  1.0000 -0.1390566169
C   C123      1.0  0.04720  0.43200  0.54310  1.0000 0.1202066974
C   C124      1.0  0.96250  0.44870  0.54680  1.0000 -0.2524320124
C   C125      1.0  0.08520  0.48440  0.49530  1.0000 0.0889222804
C   C126      1.0  0.17480  0.46560  0.48690  1.0000 -0.4598314626
C   C127      1.0  0.39880  0.13320  0.01417  1.0000 0.5685979214
C   C128      1.0  0.33470  0.20600  0.02110  1.0000 -0.0209178308
C   C129      1.0  0.29240  0.25280  0.95942  1.0000 -0.1199116881
C   C130      1.0  0.22800  0.31430  0.96580  1.0000 -0.1199116881
C   C131      1.0  0.20750  0.33110  0.03442  1.0000 -0.0251836436
C   C132      1.0  0.25300  0.28760  0.09690  1.0000 -0.1303927372
C   C133      1.0  0.31580  0.22480  0.09005  1.0000 -0.1199116881
C   C134      1.0  0.13590  0.39520  0.04050  1.0000 0.5529924171
C   C135      1.0  0.53780  0.85850  0.19910  1.0000 0.0889222804
C   C136      1.0  0.52050  0.81510  0.26090  1.0000 -0.2159061445
C   C137      1.0  0.46280  0.85290  0.29890  1.0000 0.1458357708
C   C138      1.0  0.42580  0.93420  0.27240  1.0000 -0.19243993
C   C139      1.0  0.44700  0.97410  0.21060  1.0000 0.0889222804
C   C140      1.0  0.44200  0.80570  0.36640  1.0000 -0.1390566169
C   C141      1.0  0.45280  0.93200  0.45690  1.0000 0.1202066974
C   C142      1.0  0.53750  0.94870  0.45320  1.0000 -0.2524320124
C   C143      1.0  0.41480  0.98440  0.50470  1.0000 0.0889222804
C   C144      1.0  0.32520  0.96560  0.51310  1.0000 -0.4598314626
N   N1        1.0  0.43134  0.51679  0.31499  1.0000 -0.2338081574
N   N2        1.0  0.36110  0.59060  0.03904  1.0000 -0.3496786518
N   N3        1.0  0.06866  0.01679  0.68501  1.0000 -0.2338081574
N   N4        1.0  0.13890  0.09060  0.96096  1.0000 -0.3496786518
N   N5        1.0  0.56866  0.48321  0.68501  1.0000 -0.2338081574
N   N6        1.0  0.63890  0.40940  0.96096  1.0000 -0.3496786518
N   N7        1.0  0.93134  0.98321  0.31499  1.0000 -0.2338081574
N   N8        1.0  0.86110  0.90940  0.03904  1.0000 -0.3496786518
N   N9        1.0  0.00224  0.56271  0.17390  1.0000 -0.2338081574
N   N10       1.0  0.90450  0.63550  0.41338  1.0000 -0.3323208181
N   N11       1.0  0.49776  0.06271  0.82610  1.0000 -0.2338081574
N   N12       1.0  0.59550  0.13550  0.58662  1.0000 -0.3323208181
N   N13       1.0  0.99776  0.43729  0.82610  1.0000 -0.2338081574
N   N14       1.0  0.09550  0.36450  0.58662  1.0000 -0.3323208181
N   N15       1.0  0.50224  0.93729  0.17390  1.0000 -0.2338081574
N   N16       1.0  0.40450  0.86450  0.41338  1.0000 -0.3323208181
O   O1        1.0  0.56482  0.60912  0.43538  1.0000 -0.5476106046
O   O2        1.0  0.58572  0.60823  0.55888  1.0000 -0.539558181
O   O3        1.0  0.89343  0.91882  0.45377  1.0000 -0.5659760548
O   O4        1.0  0.91433  0.91865  0.57736  1.0000 -0.5243664546
O   O5        1.0  0.93518  0.10912  0.56462  1.0000 -0.5476106046
O   O6        1.0  0.91428  0.10823  0.44112  1.0000 -0.539558181
O   O7        1.0  0.60657  0.41882  0.54623  1.0000 -0.5659760548
O   O8        1.0  0.58567  0.41865  0.42264  1.0000 -0.5243664546
O   O9        1.0  0.43518  0.39088  0.56462  1.0000 -0.5476106046
O   O10       1.0  0.41428  0.39177  0.44112  1.0000 -0.539558181
O   O11       1.0  0.10657  0.08118  0.54623  1.0000 -0.5659760548
O   O12       1.0  0.08567  0.08135  0.42264  1.0000 -0.5243664546
O   O13       1.0  0.06482  0.89088  0.43538  1.0000 -0.5476106046
O   O14       1.0  0.08572  0.89177  0.55888  1.0000 -0.539558181
O   O15       1.0  0.39343  0.58118  0.45377  1.0000 -0.5659760548
O   O16       1.0  0.41433  0.58135  0.57736  1.0000 -0.5243664546
O   O17       1.0  0.94025  0.40116  0.07289  1.0000 -0.5476106046
O   O18       1.0  0.90573  0.38951  0.94981  1.0000 -0.5593039556
O   O19       1.0  0.62803  0.07889  0.10440  1.0000 -0.539558181
O   O20       1.0  0.58705  0.07987  0.98252  1.0000 -0.5659760548
O   O21       1.0  0.55975  0.90116  0.92711  1.0000 -0.5476106046
O   O22       1.0  0.59427  0.88951  0.05019  1.0000 -0.5593039556
O   O23       1.0  0.87197  0.57889  0.89560  1.0000 -0.539558181
O   O24       1.0  0.91295  0.57987  0.01748  1.0000 -0.5659760548
O   O25       1.0  0.05975  0.59884  0.92711  1.0000 -0.5476106046
O   O26       1.0  0.09427  0.61049  0.05019  1.0000 -0.5593039556
O   O27       1.0  0.37197  0.92111  0.89560  1.0000 -0.539558181
O   O28       1.0  0.41295  0.92013  0.01748  1.0000 -0.5659760548
O   O29       1.0  0.44025  0.09884  0.07289  1.0000 -0.5476106046
O   O30       1.0  0.40573  0.11049  0.94981  1.0000 -0.5593039556
O   O31       1.0  0.12803  0.42111  0.10440  1.0000 -0.539558181
O   O32       1.0  0.08705  0.42013  0.98252  1.0000 -0.5659760548
