# DDEC6 charges by PACMAN v1.1 (https://github.com/mtap-research/PACMAN-charge/)
data_2019[Cd][pcu]3[FSR]2
_chemical_formula_sum              "Cd4 H80 C108 N24 O20"
_cell_length_a       14.7147
_cell_length_b       14.7147
_cell_length_c       21.8619
_cell_angle_alpha    87.5329
_cell_angle_beta     92.4671
_cell_angle_gamma    42.2927

_symmetry_space_group_name_H-M    "P 1"
_symmetry_Int_Tables_number       1

loop_
  _symmetry_equiv_pos_as_xyz
  'x, y, z'

loop_
  _atom_site_type_symbol
  _atom_site_label
  _atom_site_symmetry_multiplicity
  _atom_site_fract_x
  _atom_site_fract_y
  _atom_site_fract_z
  _atom_site_occupancy
  _atom_site_charge
Cd  Cd1       1.0  0.78882  0.21682  0.64793  1.0000 0.8584309566
Cd  Cd2       1.0  0.34327  0.66485  0.62309  1.0000 0.8832642186
Cd  Cd3       1.0  0.78318  0.21118  0.14793  1.0000 0.8584309566
Cd  Cd4       1.0  0.33515  0.65673  0.12309  1.0000 0.8832642186
H   H1        1.0  0.15795  0.88433  0.70708  1.0000 0.3483696032
H   H2        1.0  0.28303  0.77763  0.74323  1.0000 0.3421620029
H   H3        1.0  0.11892  0.93568  0.60705  1.0000 0.3765955019
H   H4        1.0  0.20419  0.90113  0.56367  1.0000 0.3686600077
H   H5        1.0  0.17359  0.60433  0.66611  1.0000 0.1103964123
H   H6        1.0  0.12734  0.78356  0.51157  1.0000 0.0989100273
H   H7        1.0  0.98052  0.78740  0.46656  1.0000 0.1308416064
H   H8        1.0  0.03213  0.59763  0.62498  1.0000 0.1396088627
H   H9        1.0  0.78504  0.85718  0.34693  1.0000 0.1203603105
H   H10       1.0  0.67858  0.95320  0.24821  1.0000 0.0899831458
H   H11       1.0  0.52402  0.82682  0.25605  1.0000 0.0989100273
H   H12       1.0  0.62542  0.72488  0.35489  1.0000 0.1203603105
H   H13       1.0  0.91967  0.47013  0.62837  1.0000 0.1308416064
H   H14       1.0  0.89855  0.34641  0.67667  1.0000 0.0989100273
H   H15       1.0  0.66715  0.43021  0.53529  1.0000 0.1103964123
H   H16       1.0  0.68327  0.55525  0.48184  1.0000 0.1308416064
H   H17       1.0  0.56399  0.53307  0.74460  1.0000 0.1103964123
H   H18       1.0  0.69513  0.54375  0.79548  1.0000 0.1396088627
H   H19       1.0  0.58965  0.79811  0.65351  1.0000 0.1396088627
H   H20       1.0  0.46094  0.77944  0.60652  1.0000 0.1103964123
H   H21       1.0  0.87489  0.48095  0.92265  1.0000 0.1203603105
H   H22       1.0  0.98344  0.37666  0.02080  1.0000 0.0989100273
H   H23       1.0  0.11464  0.52840  0.02328  1.0000 0.0989100273
H   H24       1.0  0.01252  0.63588  0.92626  1.0000 0.1396088627
H   H25       1.0  0.71821  0.91221  0.65429  1.0000 0.1396088627
H   H26       1.0  0.71930  0.05926  0.61515  1.0000 0.1103964123
H   H27       1.0  0.92430  0.98688  0.76518  1.0000 0.1103964123
H   H28       1.0  0.92854  0.83974  0.80954  1.0000 0.1396088627
H   H29       1.0  0.55792  0.42924  0.45363  1.0000 0.1203603105
H   H30       1.0  0.37736  0.79514  0.38664  1.0000 0.1103964123
H   H31       1.0  0.48780  0.70558  0.29958  1.0000 0.1203603105
H   H32       1.0  0.67109  0.33909  0.36774  1.0000 0.1203603105
H   H33       1.0  0.71812  0.46924  0.26315  1.0000 0.1480448939
H   H34       1.0  0.73180  0.35356  0.27451  1.0000 0.1480448939
H   H35       1.0  0.65981  0.16405  0.45512  1.0000 0.1203603105
H   H36       1.0  0.03036  0.00456  0.46630  1.0000 0.1203603105
H   H37       1.0  0.69874  0.07592  0.36163  1.0000 0.1203603105
H   H38       1.0  0.07113  0.91485  0.37488  1.0000 0.1308416064
H   H39       1.0  0.01127  0.84775  0.29705  1.0000 0.1396088627
H   H40       1.0  0.86817  0.90713  0.29143  1.0000 0.1480448939
H   H41       1.0  0.11567  0.84205  0.20708  1.0000 0.3483696032
H   H42       1.0  0.22237  0.71697  0.24323  1.0000 0.3421620029
H   H43       1.0  0.06432  0.88108  0.10705  1.0000 0.3765955019
H   H44       1.0  0.09887  0.79581  0.06367  1.0000 0.3686600077
H   H45       1.0  0.39567  0.82641  0.16611  1.0000 0.1103964123
H   H46       1.0  0.21644  0.87266  0.01157  1.0000 0.0989100273
H   H47       1.0  0.21260  0.01948  0.96656  1.0000 0.1308416064
H   H48       1.0  0.40237  0.96787  0.12498  1.0000 0.1396088627
H   H49       1.0  0.14282  0.21496  0.84693  1.0000 0.1203603105
H   H50       1.0  0.04680  0.32142  0.74821  1.0000 0.0899831458
H   H51       1.0  0.17318  0.47598  0.75605  1.0000 0.0989100273
H   H52       1.0  0.27512  0.37458  0.85489  1.0000 0.1203603105
H   H53       1.0  0.52987  0.08033  0.12837  1.0000 0.1308416064
H   H54       1.0  0.65359  0.10145  0.17667  1.0000 0.0989100273
H   H55       1.0  0.56979  0.33285  0.03529  1.0000 0.1103964123
H   H56       1.0  0.44475  0.31673  0.98184  1.0000 0.1308416064
H   H57       1.0  0.46693  0.43601  0.24460  1.0000 0.1103964123
H   H58       1.0  0.45625  0.30487  0.29548  1.0000 0.1396088627
H   H59       1.0  0.20189  0.41035  0.15351  1.0000 0.1396088627
H   H60       1.0  0.22056  0.53906  0.10652  1.0000 0.1103964123
H   H61       1.0  0.51905  0.12511  0.42265  1.0000 0.1203603105
H   H62       1.0  0.62334  0.01656  0.52080  1.0000 0.0989100273
H   H63       1.0  0.47160  0.88536  0.52328  1.0000 0.0989100273
H   H64       1.0  0.36412  0.98748  0.42626  1.0000 0.1396088627
H   H65       1.0  0.08779  0.28179  0.15429  1.0000 0.1396088627
H   H66       1.0  0.94074  0.28070  0.11515  1.0000 0.1103964123
H   H67       1.0  0.01312  0.07570  0.26518  1.0000 0.1103964123
H   H68       1.0  0.16026  0.07146  0.30954  1.0000 0.1396088627
H   H69       1.0  0.57076  0.44208  0.95363  1.0000 0.1203603105
H   H70       1.0  0.20486  0.62264  0.88664  1.0000 0.1103964123
H   H71       1.0  0.29442  0.51220  0.79958  1.0000 0.1203603105
H   H72       1.0  0.66091  0.32891  0.86774  1.0000 0.1203603105
H   H73       1.0  0.53076  0.28188  0.76315  1.0000 0.1480448939
H   H74       1.0  0.64644  0.26820  0.77451  1.0000 0.1480448939
H   H75       1.0  0.83595  0.34019  0.95512  1.0000 0.1203603105
H   H76       1.0  0.99544  0.96964  0.96630  1.0000 0.1203603105
H   H77       1.0  0.92408  0.30126  0.86163  1.0000 0.1203603105
H   H78       1.0  0.08515  0.92887  0.87488  1.0000 0.1308416064
H   H79       1.0  0.15225  0.98873  0.79705  1.0000 0.1396088627
H   H80       1.0  0.09287  0.13183  0.79143  1.0000 0.1480448939
C   C1        1.0  0.13597  0.63937  0.62530  1.0000 0.0839041519
C   C2        1.0  0.10826  0.74546  0.53450  1.0000 0.0899831458
C   C3        1.0  0.02039  0.74739  0.50680  1.0000 -0.159851437
C   C4        1.0  0.99255  0.68935  0.53960  1.0000 0.0600142978
C   C5        1.0  0.05056  0.63536  0.60106  1.0000 -0.1701154868
C   C6        1.0  0.90772  0.67872  0.51030  1.0000 0.361011016
C   C7        1.0  0.78114  0.71934  0.42760  1.0000 0.3686600077
C   C8        1.0  0.82164  0.60224  0.51470  1.0000 0.361011016
C   C9        1.0  0.73236  0.84936  0.32980  1.0000 -0.1701154868
C   C10       1.0  0.66750  0.90670  0.27000  1.0000 0.0600142978
C   C11       1.0  0.57733  0.83293  0.27440  1.0000 0.0600142978
C   C12       1.0  0.63764  0.77144  0.33440  1.0000 -0.1701154868
C   C13       1.0  0.71621  0.78041  0.36327  1.0000 0.0600142978
C   C14       1.0  0.80472  0.52592  0.54900  1.0000 0.0600142978
C   C15       1.0  0.86873  0.46253  0.60840  1.0000 -0.1701154868
C   C16       1.0  0.85526  0.38866  0.63700  1.0000 0.0703895112
C   C17       1.0  0.71941  0.43741  0.55390  1.0000 0.0989100273
C   C18       1.0  0.72800  0.51340  0.52140  1.0000 -0.1701154868
C   C19       1.0  0.56913  0.58713  0.72620  1.0000 0.0703895112
C   C20       1.0  0.64832  0.59292  0.75700  1.0000 -0.159851437
C   C21       1.0  0.65735  0.67315  0.73010  1.0000 0.0600142978
C   C22       1.0  0.58613  0.74353  0.67310  1.0000 -0.159851437
C   C23       1.0  0.50854  0.73174  0.64510  1.0000 0.0899831458
C   C24       1.0  0.73851  0.68431  0.76337  1.0000 0.3686600077
C   C25       1.0  0.81591  0.77111  0.76610  1.0000 0.361011016
C   C26       1.0  0.86607  0.63667  0.84830  1.0000 0.3686600077
C   C27       1.0  0.93191  0.57071  0.91240  1.0000 0.0499825488
C   C28       1.0  0.92353  0.49173  0.94200  1.0000 -0.1701154868
C   C29       1.0  0.98970  0.42910  0.00140  1.0000 0.0703895112
C   C30       1.0  0.06649  0.51809  0.00270  1.0000 0.0600142978
C   C31       1.0  0.00518  0.58338  0.94430  1.0000 -0.159851437
C   C32       1.0  0.82208  0.85928  0.73730  1.0000 0.0600142978
C   C33       1.0  0.76004  0.92644  0.67800  1.0000 -0.1767776007
C   C34       1.0  0.76109  0.01509  0.65480  1.0000 0.0899831458
C   C35       1.0  0.88120  0.97240  0.74300  1.0000 0.0703895112
C   C36       1.0  0.88482  0.88322  0.77000  1.0000 -0.1701154868
C   C37       1.0  0.38721  0.68361  0.48800  1.0000 0.5488401998
C   C38       1.0  0.45616  0.62236  0.43044  1.0000 -0.0421415482
C   C39       1.0  0.54443  0.48523  0.42300  1.0000 -0.0991774526
C   C40       1.0  0.43642  0.70322  0.38320  1.0000 -0.112273435
C   C41       1.0  0.50336  0.64916  0.33080  1.0000 -0.159851437
C   C42       1.0  0.61230  0.43090  0.37110  1.0000 -0.159851437
C   C43       1.0  0.59400  0.51100  0.32430  1.0000 0.1663649055
C   C44       1.0  0.66714  0.45134  0.26812  1.0000 -0.4092100188
C   C45       1.0  0.82153  0.13773  0.53260  1.0000 0.5405829298
C   C46       1.0  0.84248  0.09088  0.47050  1.0000 -0.0421415482
C   C47       1.0  0.74177  0.11397  0.43910  1.0000 -0.1155487698
C   C48       1.0  0.96460  0.01740  0.44540  1.0000 -0.0991774526
C   C49       1.0  0.76569  0.06069  0.38310  1.0000 -0.1767776007
C   C50       1.0  0.98915  0.96415  0.39070  1.0000 -0.1767776007
C   C51       1.0  0.88925  0.98465  0.35880  1.0000 0.1663649055
C   C52       1.0  0.86680  0.03080  0.24440  1.0000 0.60930637
C   C53       1.0  0.91467  0.93027  0.29710  1.0000 -0.4092100188
C   C54       1.0  0.57347  0.50667  0.20850  1.0000 0.6326236475
C   C55       1.0  0.36063  0.86403  0.12530  1.0000 0.0839041519
C   C56       1.0  0.25454  0.89174  0.03450  1.0000 0.0899831458
C   C57       1.0  0.25261  0.97961  0.00680  1.0000 -0.159851437
C   C58       1.0  0.31065  0.00745  0.03960  1.0000 0.0600142978
C   C59       1.0  0.36464  0.94944  0.10106  1.0000 -0.1701154868
C   C60       1.0  0.32128  0.09228  0.01030  1.0000 0.361011016
C   C61       1.0  0.28066  0.21886  0.92760  1.0000 0.361011016
C   C62       1.0  0.39776  0.17836  0.01470  1.0000 0.361011016
C   C63       1.0  0.15064  0.26764  0.82980  1.0000 -0.1767776007
C   C64       1.0  0.09330  0.33250  0.77000  1.0000 0.0600142978
C   C65       1.0  0.16707  0.42267  0.77440  1.0000 0.0600142978
C   C66       1.0  0.22856  0.36236  0.83440  1.0000 -0.1701154868
C   C67       1.0  0.21959  0.28379  0.86327  1.0000 0.0600142978
C   C68       1.0  0.47408  0.19528  0.04900  1.0000 0.0600142978
C   C69       1.0  0.53747  0.13127  0.10840  1.0000 -0.1701154868
C   C70       1.0  0.61134  0.14474  0.13700  1.0000 0.0703895112
C   C71       1.0  0.56259  0.28059  0.05390  1.0000 0.0989100273
C   C72       1.0  0.48660  0.27200  0.02140  1.0000 -0.1701154868
C   C73       1.0  0.41287  0.43087  0.22620  1.0000 0.0703895112
C   C74       1.0  0.40708  0.35168  0.25700  1.0000 -0.159851437
C   C75       1.0  0.32685  0.34265  0.23010  1.0000 0.0600142978
C   C76       1.0  0.25647  0.41387  0.17310  1.0000 -0.159851437
C   C77       1.0  0.26826  0.49146  0.14510  1.0000 0.0899831458
C   C78       1.0  0.31569  0.26149  0.26337  1.0000 0.3686600077
C   C79       1.0  0.22889  0.18409  0.26610  1.0000 0.361011016
C   C80       1.0  0.36333  0.13393  0.34830  1.0000 0.3686600077
C   C81       1.0  0.42929  0.06809  0.41240  1.0000 0.0499825488
C   C82       1.0  0.50827  0.07647  0.44200  1.0000 -0.1701154868
C   C83       1.0  0.57090  0.01030  0.50140  1.0000 0.0703895112
C   C84       1.0  0.48191  0.93351  0.50270  1.0000 0.0600142978
C   C85       1.0  0.41662  0.99482  0.44430  1.0000 -0.159851437
C   C86       1.0  0.14072  0.17792  0.23730  1.0000 0.0600142978
C   C87       1.0  0.07356  0.23996  0.17800  1.0000 -0.1767776007
C   C88       1.0  0.98491  0.23891  0.15480  1.0000 0.0899831458
C   C89       1.0  0.02760  0.11880  0.24300  1.0000 0.0703895112
C   C90       1.0  0.11678  0.11518  0.27000  1.0000 -0.1701154868
C   C91       1.0  0.31639  0.61279  0.98800  1.0000 0.5488401998
C   C92       1.0  0.37764  0.54384  0.93044  1.0000 -0.0421415482
C   C93       1.0  0.51477  0.45557  0.92300  1.0000 -0.0991774526
C   C94       1.0  0.29678  0.56358  0.88320  1.0000 -0.112273435
C   C95       1.0  0.35084  0.49664  0.83080  1.0000 -0.159851437
C   C96       1.0  0.56910  0.38770  0.87110  1.0000 -0.159851437
C   C97       1.0  0.48900  0.40600  0.82430  1.0000 0.1663649055
C   C98       1.0  0.54866  0.33286  0.76812  1.0000 -0.4092100188
C   C99       1.0  0.86227  0.17847  0.03260  1.0000 0.5405829298
C   C100      1.0  0.90912  0.15752  0.97050  1.0000 -0.0421415482
C   C101      1.0  0.88603  0.25823  0.93910  1.0000 -0.1155487698
C   C102      1.0  0.98260  0.03540  0.94540  1.0000 -0.0991774526
C   C103      1.0  0.93931  0.23431  0.88310  1.0000 -0.1767776007
C   C104      1.0  0.03585  0.01085  0.89070  1.0000 -0.1767776007
C   C105      1.0  0.01535  0.11075  0.85880  1.0000 0.1663649055
C   C106      1.0  0.96920  0.13320  0.74440  1.0000 0.60930637
C   C107      1.0  0.06973  0.08533  0.79710  1.0000 -0.4092100188
C   C108      1.0  0.49333  0.42653  0.70850  1.0000 0.6326236475
N   N1        1.0  0.76204  0.65324  0.45634  1.0000 -0.4012133208
N   N2        1.0  0.85379  0.73459  0.45164  1.0000 -0.4092100188
N   N3        1.0  0.89417  0.61237  0.54360  1.0000 -0.4012133208
N   N4        1.0  0.16721  0.69161  0.59254  1.0000 -0.2402520579
N   N5        1.0  0.78243  0.37383  0.61049  1.0000 -0.2265110825
N   N6        1.0  0.59097  0.90017  0.24151  1.0000 -0.2625787285
N   N7        1.0  0.49955  0.65575  0.67089  1.0000 -0.2402520579
N   N8        1.0  0.74310  0.76250  0.73390  1.0000 -0.4012133208
N   N9        1.0  0.79855  0.61895  0.81992  1.0000 -0.4092100188
N   N10       1.0  0.87865  0.71125  0.82282  1.0000 -0.4092100188
N   N11       1.0  0.81901  0.03941  0.68646  1.0000 -0.2265110825
N   N12       1.0  0.06120  0.43940  0.03220  1.0000 -0.2625787285
N   N13       1.0  0.34676  0.23796  0.95634  1.0000 -0.4012133208
N   N14       1.0  0.26541  0.14621  0.95164  1.0000 -0.4092100188
N   N15       1.0  0.38763  0.10583  0.04360  1.0000 -0.394489522
N   N16       1.0  0.30839  0.83279  0.09254  1.0000 -0.2402520579
N   N17       1.0  0.62617  0.21757  0.11049  1.0000 -0.2265110825
N   N18       1.0  0.09983  0.40903  0.74151  1.0000 -0.2625787285
N   N19       1.0  0.34425  0.50045  0.17089  1.0000 -0.2402520579
N   N20       1.0  0.23750  0.25690  0.23390  1.0000 -0.4092100188
N   N21       1.0  0.38105  0.20145  0.31992  1.0000 -0.4092100188
N   N22       1.0  0.28875  0.12135  0.32282  1.0000 -0.4092100188
N   N23       1.0  0.96059  0.18099  0.18646  1.0000 -0.2265110825
N   N24       1.0  0.56060  0.93880  0.53220  1.0000 -0.2625787285
O   O1        1.0  0.41532  0.60312  0.53111  1.0000 -0.5564299178
O   O2        1.0  0.30951  0.80771  0.48930  1.0000 -0.572286601
O   O3        1.0  0.45270  0.62430  0.20657  1.0000 -0.5439569157
O   O4        1.0  0.22290  0.79910  0.71770  1.0000 -0.6763139319
O   O5        1.0  0.19994  0.89014  0.60150  1.0000 -0.669389869
O   O6        1.0  0.61685  0.43745  0.16464  1.0000 -0.5564299178
O   O7        1.0  0.77006  0.15546  0.24881  1.0000 -0.5439569157
O   O8        1.0  0.92771  0.98411  0.19725  1.0000 -0.548699404
O   O9        1.0  0.92552  0.09252  0.56595  1.0000 -0.572286601
O   O10       1.0  0.70658  0.21898  0.55166  1.0000 -0.5336851132
O   O11       1.0  0.39688  0.58468  0.03111  1.0000 -0.5564299178
O   O12       1.0  0.19229  0.69049  0.98930  1.0000 -0.572286601
O   O13       1.0  0.37570  0.54730  0.70657  1.0000 -0.5439569157
O   O14       1.0  0.20090  0.77710  0.21770  1.0000 -0.6763139319
O   O15       1.0  0.10986  0.80006  0.10150  1.0000 -0.669389869
O   O16       1.0  0.56255  0.38315  0.66464  1.0000 -0.5564299178
O   O17       1.0  0.84454  0.22994  0.74881  1.0000 -0.5439569157
O   O18       1.0  0.01589  0.07229  0.69725  1.0000 -0.548699404
O   O19       1.0  0.90748  0.07448  0.06595  1.0000 -0.572286601
O   O20       1.0  0.78102  0.29342  0.05166  1.0000 -0.5336851132
