# DDEC6 charges by PACMAN v1.1 (https://github.com/mtap-research/PACMAN-charge/)
data_2019[Zn][lon]3[FSR]8
_chemical_formula_sum              "Zn2 H26 C20 N10 O8"
_cell_length_a       9.5615
_cell_length_b       9.0515
_cell_length_c       10.4586
_cell_angle_alpha    90
_cell_angle_beta     105.318
_cell_angle_gamma    90

_symmetry_space_group_name_H-M    "P 1"
_symmetry_Int_Tables_number       1

loop_
  _symmetry_equiv_pos_as_xyz
  'x, y, z'

loop_
  _atom_site_type_symbol
  _atom_site_label
  _atom_site_symmetry_multiplicity
  _atom_site_fract_x
  _atom_site_fract_y
  _atom_site_fract_z
  _atom_site_occupancy
  _atom_site_charge
Zn  Zn1       1.0  0.84502  0.47141  0.08719  1.0000 0.711964406
Zn  Zn2       1.0  0.15498  0.97141  0.91281  1.0000 0.711964406
H   H1        1.0  0.36760  0.49820  0.93490  1.0000 0.2714454904
H   H2        1.0  0.44040  0.32960  0.15630  1.0000 0.1215852971
H   H3        1.0  0.42710  0.15580  0.12650  1.0000 0.1215852971
H   H4        1.0  0.91170  0.16780  0.96490  1.0000 0.0963492915
H   H5        1.0  0.82050  0.42110  0.31440  1.0000 0.2772083059
H   H6        1.0  0.79810  0.58000  0.29080  1.0000 0.2885231152
H   H7        1.0  0.17760  0.62830  0.57130  1.0000 0.2714454904
H   H8        1.0  0.20410  0.63200  0.78850  1.0000 0.1108333617
H   H9        1.0  0.06300  0.52980  0.76730  1.0000 0.1400487348
H   H10       1.0  0.06550  0.46070  0.35040  1.0000 0.1108333617
H   H11       1.0  0.02570  0.63200  0.35300  1.0000 0.1264138371
H   H12       1.0  0.19370  0.45020  0.17350  1.0000 0.1215852971
H   H13       1.0  0.39020  0.19300  0.89950  1.0000 0.093288023
H   H14       1.0  0.63240  0.99820  0.06510  1.0000 0.2714454904
H   H15       1.0  0.55960  0.82960  0.84370  1.0000 0.1215852971
H   H16       1.0  0.57290  0.65580  0.87350  1.0000 0.1215852971
H   H17       1.0  0.08830  0.66780  0.03510  1.0000 0.0963492915
H   H18       1.0  0.17950  0.92110  0.68560  1.0000 0.2772083059
H   H19       1.0  0.20190  0.08000  0.70920  1.0000 0.2885231152
H   H20       1.0  0.82240  0.12830  0.42870  1.0000 0.2714454904
H   H21       1.0  0.79590  0.13200  0.21150  1.0000 0.1108333617
H   H22       1.0  0.93700  0.02980  0.23270  1.0000 0.1400487348
H   H23       1.0  0.93450  0.96070  0.64960  1.0000 0.1108333617
H   H24       1.0  0.97430  0.13200  0.64700  1.0000 0.1264138371
H   H25       1.0  0.80630  0.95020  0.82650  1.0000 0.1215852971
H   H26       1.0  0.60980  0.69300  0.10050  1.0000 0.093288023
C   C1        1.0  0.39030  0.25410  0.09190  1.0000 -0.2842521593
C   C2        1.0  0.58850  0.29670  0.98320  1.0000 0.5526118651
C   C3        1.0  0.00070  0.21400  0.00790  1.0000 0.1400487348
C   C4        1.0  0.15330  0.54530  0.73980  1.0000 -0.2002288923
C   C5        1.0  0.99500  0.53120  0.37030  1.0000 -0.1879137233
C   C6        1.0  0.15220  0.36770  0.12100  1.0000 -0.1381860301
C   C7        1.0  0.22690  0.26200  0.07730  1.0000 0.1721871421
C   C8        1.0  0.99960  0.51830  0.51960  1.0000 0.4919535294
C   C9        1.0  0.25020  0.40850  0.77500  1.0000 0.5034926608
C   C10       1.0  0.42360  0.28040  0.95810  1.0000 0.0060806544
C   C11       1.0  0.60970  0.75410  0.90810  1.0000 -0.2842521593
C   C12       1.0  0.41150  0.79670  0.01680  1.0000 0.5526118651
C   C13       1.0  0.99930  0.71400  0.99210  1.0000 0.1400487348
C   C14       1.0  0.84670  0.04530  0.26020  1.0000 -0.2002288923
C   C15       1.0  0.00500  0.03120  0.62970  1.0000 -0.1879137233
C   C16       1.0  0.84780  0.86770  0.87900  1.0000 -0.1381860301
C   C17       1.0  0.77310  0.76200  0.92270  1.0000 0.1721871421
C   C18       1.0  0.00040  0.01830  0.48040  1.0000 0.4919535294
C   C19       1.0  0.74980  0.90850  0.22500  1.0000 0.5034926608
C   C20       1.0  0.57640  0.78040  0.04190  1.0000 0.0060806544
N   N1        1.0  0.34810  0.41270  0.89400  1.0000 -0.3772006855
N   N2        1.0  0.12850  0.16030  0.00200  1.0000 -0.3593870029
N   N3        1.0  0.00590  0.33770  0.07790  1.0000 -0.3092935681
N   N4        1.0  0.85710  0.50300  0.28440  1.0000 -0.4743577764
N   N5        1.0  0.11880  0.57310  0.60310  1.0000 -0.3092935681
N   N6        1.0  0.65190  0.91270  0.10600  1.0000 -0.3772006855
N   N7        1.0  0.87150  0.66030  0.99800  1.0000 -0.3593870029
N   N8        1.0  0.99410  0.83770  0.92210  1.0000 -0.3092935681
N   N9        1.0  0.14290  0.00300  0.71560  1.0000 -0.4743577764
N   N10       1.0  0.88120  0.07310  0.39690  1.0000 -0.3092935681
O   O1        1.0  0.63840  0.42480  0.02090  1.0000 -0.5488630459
O   O2        1.0  0.65950  0.18900  0.96840  1.0000 -0.5488630459
O   O3        1.0  0.90010  0.45830  0.55420  1.0000 -0.5086519644
O   O4        1.0  0.23270  0.30230  0.70010  1.0000 -0.482992433
O   O5        1.0  0.36160  0.92480  0.97910  1.0000 -0.5488630459
O   O6        1.0  0.34050  0.68900  0.03160  1.0000 -0.5488630459
O   O7        1.0  0.09990  0.95830  0.44580  1.0000 -0.5086519644
O   O8        1.0  0.76730  0.80230  0.29990  1.0000 -0.482992433
