# DDEC6 charges by PACMAN v1.1 (https://github.com/mtap-research/PACMAN-charge/)
data_2019[Tb][sql]2[FSR]2
_chemical_formula_sum              "Tb8 H128 C72 O64"
_cell_length_a       8.6781
_cell_length_b       14.207
_cell_length_c       23.325
_cell_angle_alpha    90
_cell_angle_beta     90
_cell_angle_gamma    90

_symmetry_space_group_name_H-M    "P 1"
_symmetry_Int_Tables_number       1

loop_
  _symmetry_equiv_pos_as_xyz
  'x, y, z'

loop_
  _atom_site_type_symbol
  _atom_site_label
  _atom_site_symmetry_multiplicity
  _atom_site_fract_x
  _atom_site_fract_y
  _atom_site_fract_z
  _atom_site_occupancy
  _atom_site_charge
Tb  Tb1       1.0  0.27577  0.03244  0.30845  1.0000 1.9716859037
Tb  Tb2       1.0  0.22732  0.82153  0.18806  1.0000 1.9861973996
Tb  Tb3       1.0  0.22423  0.96756  0.80845  1.0000 1.9716859037
Tb  Tb4       1.0  0.27268  0.17847  0.68806  1.0000 1.9861973996
Tb  Tb5       1.0  0.72423  0.53244  0.19155  1.0000 1.9716859037
Tb  Tb6       1.0  0.77268  0.32153  0.31194  1.0000 1.9861973996
Tb  Tb7       1.0  0.77577  0.46756  0.69155  1.0000 1.9716859037
Tb  Tb8       1.0  0.72732  0.67847  0.81194  1.0000 1.9861973996
H   H1        1.0  0.10505  0.05842  0.21002  1.0000 0.3690638343
H   H2        1.0  0.12333  0.14641  0.23154  1.0000 0.3491434479
H   H3        1.0  0.19910  0.21454  0.33599  1.0000 0.3591478566
H   H4        1.0  0.33616  0.22225  0.30935  1.0000 0.3420498544
H   H5        1.0  0.13946  0.62485  0.16023  1.0000 0.3591478566
H   H6        1.0  0.28731  0.62135  0.16010  1.0000 0.3491434479
H   H7        1.0  0.45862  0.71869  0.26577  1.0000 0.334424215
H   H8        1.0  0.46770  0.79547  0.23847  1.0000 0.2926199014
H   H9        1.0  0.75395  0.96095  0.39656  1.0000 0.1105591466
H   H10       1.0  0.83238  0.93432  0.30618  1.0000 0.1105591466
H   H11       1.0  0.73973  0.84001  0.30231  1.0000 0.1105591466
H   H12       1.0  0.99252  0.85537  0.37904  1.0000 0.1483640682
H   H13       1.0  0.91631  0.76102  0.35770  1.0000 0.1404877419
H   H14       1.0  0.60639  0.86496  0.45154  1.0000 0.1308319751
H   H15       1.0  0.74803  0.80460  0.43182  1.0000 0.1105591466
H   H16       1.0  0.58778  0.79155  0.40184  1.0000 0.1308319751
H   H17       1.0  0.91576  0.21109  0.53451  1.0000 0.1009554626
H   H18       1.0  0.19865  0.18789  0.47708  1.0000 0.1105591466
H   H19       1.0  0.05073  0.21980  0.44384  1.0000 0.1105591466
H   H20       1.0  0.92783  0.07447  0.46895  1.0000 0.1308319751
H   H21       1.0  0.08041  0.04218  0.50002  1.0000 0.1404877419
H   H22       1.0  0.99601  0.36445  0.56209  1.0000 0.1483640682
H   H23       1.0  0.96631  0.35790  0.49592  1.0000 0.1404877419
H   H24       1.0  0.13536  0.35656  0.51960  1.0000 0.1205751076
H   H25       1.0  0.50235  0.98519  0.12181  1.0000 0.1105591466
H   H26       1.0  0.75463  0.00658  0.19901  1.0000 0.1205751076
H   H27       1.0  0.66463  0.91180  0.19062  1.0000 0.1009554626
H   H28       1.0  0.75474  0.89854  0.09621  1.0000 0.1483640682
H   H29       1.0  0.83228  0.99839  0.09988  1.0000 0.1404877419
H   H30       1.0  0.49688  0.14404  0.10656  1.0000 0.1308319751
H   H31       1.0  0.66083  0.10635  0.09014  1.0000 0.1205751076
H   H32       1.0  0.63609  0.15933  0.14837  1.0000 0.1404877419
H   H33       1.0  0.39495  0.94158  0.71002  1.0000 0.3690638343
H   H34       1.0  0.37667  0.85359  0.73154  1.0000 0.3491434479
H   H35       1.0  0.30090  0.78546  0.83599  1.0000 0.3591478566
H   H36       1.0  0.16384  0.77775  0.80935  1.0000 0.3420498544
H   H37       1.0  0.36054  0.37515  0.66023  1.0000 0.3591478566
H   H38       1.0  0.21269  0.37865  0.66010  1.0000 0.3491434479
H   H39       1.0  0.04138  0.28131  0.76577  1.0000 0.334424215
H   H40       1.0  0.03230  0.20453  0.73847  1.0000 0.2926199014
H   H41       1.0  0.74605  0.03905  0.89656  1.0000 0.1105591466
H   H42       1.0  0.66762  0.06568  0.80618  1.0000 0.1105591466
H   H43       1.0  0.76027  0.15999  0.80231  1.0000 0.1105591466
H   H44       1.0  0.50748  0.14463  0.87904  1.0000 0.1483640682
H   H45       1.0  0.58369  0.23898  0.85770  1.0000 0.1404877419
H   H46       1.0  0.89361  0.13504  0.95154  1.0000 0.1308319751
H   H47       1.0  0.75197  0.19540  0.93182  1.0000 0.1105591466
H   H48       1.0  0.91222  0.20845  0.90184  1.0000 0.1308319751
H   H49       1.0  0.58424  0.78891  0.03451  1.0000 0.1009554626
H   H50       1.0  0.30135  0.81211  0.97708  1.0000 0.1105591466
H   H51       1.0  0.44927  0.78020  0.94384  1.0000 0.1105591466
H   H52       1.0  0.57217  0.92553  0.96895  1.0000 0.1308319751
H   H53       1.0  0.41959  0.95782  0.00002  1.0000 0.1404877419
H   H54       1.0  0.50399  0.63555  0.06209  1.0000 0.1483640682
H   H55       1.0  0.53369  0.64210  0.99592  1.0000 0.1404877419
H   H56       1.0  0.36464  0.64344  0.01960  1.0000 0.1205751076
H   H57       1.0  0.99765  0.01481  0.62181  1.0000 0.1105591466
H   H58       1.0  0.74537  0.99342  0.69901  1.0000 0.1205751076
H   H59       1.0  0.83537  0.08820  0.69062  1.0000 0.1009554626
H   H60       1.0  0.74526  0.10146  0.59621  1.0000 0.1483640682
H   H61       1.0  0.66772  0.00161  0.59988  1.0000 0.1404877419
H   H62       1.0  0.00312  0.85596  0.60656  1.0000 0.1308319751
H   H63       1.0  0.83917  0.89365  0.59014  1.0000 0.1205751076
H   H64       1.0  0.86391  0.84067  0.64837  1.0000 0.1404877419
H   H65       1.0  0.89495  0.55842  0.28998  1.0000 0.3690638343
H   H66       1.0  0.87667  0.64641  0.26846  1.0000 0.3491434479
H   H67       1.0  0.80090  0.71454  0.16401  1.0000 0.3591478566
H   H68       1.0  0.66384  0.72225  0.19065  1.0000 0.3420498544
H   H69       1.0  0.86054  0.12485  0.33977  1.0000 0.3591478566
H   H70       1.0  0.71269  0.12135  0.33990  1.0000 0.3491434479
H   H71       1.0  0.54138  0.21869  0.23423  1.0000 0.334424215
H   H72       1.0  0.53230  0.29547  0.26153  1.0000 0.2926199014
H   H73       1.0  0.24605  0.46095  0.10344  1.0000 0.1105591466
H   H74       1.0  0.16762  0.43432  0.19382  1.0000 0.1105591466
H   H75       1.0  0.26027  0.34001  0.19769  1.0000 0.1105591466
H   H76       1.0  0.00748  0.35537  0.12096  1.0000 0.1483640682
H   H77       1.0  0.08369  0.26102  0.14230  1.0000 0.1404877419
H   H78       1.0  0.39361  0.36496  0.04846  1.0000 0.1308319751
H   H79       1.0  0.25197  0.30460  0.06818  1.0000 0.1105591466
H   H80       1.0  0.41222  0.29155  0.09816  1.0000 0.1308319751
H   H81       1.0  0.08424  0.71109  0.96549  1.0000 0.1009554626
H   H82       1.0  0.80135  0.68789  0.02292  1.0000 0.1105591466
H   H83       1.0  0.94927  0.71980  0.05616  1.0000 0.1105591466
H   H84       1.0  0.07217  0.57447  0.03105  1.0000 0.1308319751
H   H85       1.0  0.91959  0.54218  0.99998  1.0000 0.1404877419
H   H86       1.0  0.00399  0.86445  0.93791  1.0000 0.1483640682
H   H87       1.0  0.03369  0.85790  0.00408  1.0000 0.1404877419
H   H88       1.0  0.86464  0.85656  0.98040  1.0000 0.1205751076
H   H89       1.0  0.49765  0.48519  0.37819  1.0000 0.1105591466
H   H90       1.0  0.24537  0.50658  0.30099  1.0000 0.1205751076
H   H91       1.0  0.33537  0.41180  0.30938  1.0000 0.1009554626
H   H92       1.0  0.24526  0.39854  0.40379  1.0000 0.1483640682
H   H93       1.0  0.16772  0.49839  0.40012  1.0000 0.1404877419
H   H94       1.0  0.50312  0.64404  0.39344  1.0000 0.1308319751
H   H95       1.0  0.33917  0.60635  0.40986  1.0000 0.1205751076
H   H96       1.0  0.36391  0.65933  0.35163  1.0000 0.1404877419
H   H97       1.0  0.60505  0.44158  0.78998  1.0000 0.3690638343
H   H98       1.0  0.62333  0.35359  0.76846  1.0000 0.3491434479
H   H99       1.0  0.69910  0.28546  0.66401  1.0000 0.3591478566
H   H100      1.0  0.83616  0.27775  0.69065  1.0000 0.3420498544
H   H101      1.0  0.63946  0.87515  0.83977  1.0000 0.3591478566
H   H102      1.0  0.78731  0.87865  0.83990  1.0000 0.3491434479
H   H103      1.0  0.95862  0.78131  0.73423  1.0000 0.334424215
H   H104      1.0  0.96770  0.70453  0.76153  1.0000 0.2926199014
H   H105      1.0  0.25395  0.53905  0.60344  1.0000 0.1105591466
H   H106      1.0  0.33238  0.56568  0.69382  1.0000 0.1105591466
H   H107      1.0  0.23973  0.65999  0.69769  1.0000 0.1105591466
H   H108      1.0  0.49252  0.64463  0.62096  1.0000 0.1483640682
H   H109      1.0  0.41631  0.73898  0.64230  1.0000 0.1404877419
H   H110      1.0  0.10639  0.63504  0.54846  1.0000 0.1308319751
H   H111      1.0  0.24803  0.69540  0.56818  1.0000 0.1105591466
H   H112      1.0  0.08778  0.70845  0.59816  1.0000 0.1308319751
H   H113      1.0  0.41576  0.28891  0.46549  1.0000 0.1009554626
H   H114      1.0  0.69865  0.31211  0.52292  1.0000 0.1105591466
H   H115      1.0  0.55073  0.28020  0.55616  1.0000 0.1105591466
H   H116      1.0  0.42783  0.42553  0.53105  1.0000 0.1308319751
H   H117      1.0  0.58041  0.45782  0.49998  1.0000 0.1404877419
H   H118      1.0  0.49601  0.13555  0.43791  1.0000 0.1483640682
H   H119      1.0  0.46631  0.14210  0.50408  1.0000 0.1404877419
H   H120      1.0  0.63536  0.14344  0.48040  1.0000 0.1205751076
H   H121      1.0  0.00235  0.51481  0.87819  1.0000 0.1105591466
H   H122      1.0  0.25463  0.49342  0.80099  1.0000 0.1205751076
H   H123      1.0  0.16463  0.58820  0.80938  1.0000 0.1009554626
H   H124      1.0  0.25474  0.60146  0.90379  1.0000 0.1483640682
H   H125      1.0  0.33228  0.50161  0.90012  1.0000 0.1404877419
H   H126      1.0  0.99688  0.35596  0.89344  1.0000 0.1308319751
H   H127      1.0  0.16083  0.39365  0.90986  1.0000 0.1205751076
H   H128      1.0  0.13609  0.34067  0.85163  1.0000 0.1404877419
C   C1        1.0  0.55580  0.95530  0.35060  1.0000 0.5707210177
C   C2        1.0  0.69850  0.91130  0.37590  1.0000 -0.057079188
C   C3        1.0  0.79980  0.87950  0.32780  1.0000 -0.1528020551
C   C4        1.0  0.94390  0.82460  0.34660  1.0000 -0.326069889
C   C5        1.0  0.05060  0.82310  0.29640  1.0000 0.681595462
C   C6        1.0  0.65600  0.83600  0.41920  1.0000 -0.3900783038
C   C7        1.0  0.10480  0.19700  0.58500  1.0000 0.5796360845
C   C8        1.0  0.02440  0.22900  0.53120  1.0000 -0.057079188
C   C9        1.0  0.08700  0.18410  0.47660  1.0000 -0.1421024142
C   C10       1.0  0.03900  0.08050  0.46920  1.0000 -0.3223887211
C   C11       1.0  0.10820  0.05020  0.41060  1.0000 0.6209081287
C   C12       1.0  0.03100  0.33720  0.52680  1.0000 -0.3900783038
C   C13       1.0  0.44730  0.03150  0.20230  1.0000 0.6209081287
C   C14       1.0  0.55450  0.02480  0.15020  1.0000 -0.0514955161
C   C15       1.0  0.69840  0.96880  0.17140  1.0000 -0.1421024142
C   C16       1.0  0.80600  0.94250  0.12170  1.0000 -0.326069889
C   C17       1.0  0.94870  0.89880  0.14530  1.0000 0.6393836314
C   C18       1.0  0.59000  0.11700  0.12120  1.0000 -0.3993615633
C   C19       1.0  0.94420  0.04470  0.85060  1.0000 0.5707210177
C   C20       1.0  0.80150  0.08870  0.87590  1.0000 -0.057079188
C   C21       1.0  0.70020  0.12050  0.82780  1.0000 -0.1528020551
C   C22       1.0  0.55610  0.17540  0.84660  1.0000 -0.326069889
C   C23       1.0  0.44940  0.17690  0.79640  1.0000 0.681595462
C   C24       1.0  0.84400  0.16400  0.91920  1.0000 -0.3900783038
C   C25       1.0  0.39520  0.80300  0.08500  1.0000 0.5796360845
C   C26       1.0  0.47560  0.77100  0.03120  1.0000 -0.057079188
C   C27       1.0  0.41300  0.81590  0.97660  1.0000 -0.1421024142
C   C28       1.0  0.46100  0.91950  0.96920  1.0000 -0.3223887211
C   C29       1.0  0.39180  0.94980  0.91060  1.0000 0.6209081287
C   C30       1.0  0.46900  0.66280  0.02680  1.0000 -0.3900783038
C   C31       1.0  0.05270  0.96850  0.70230  1.0000 0.6209081287
C   C32       1.0  0.94550  0.97520  0.65020  1.0000 -0.0514955161
C   C33       1.0  0.80160  0.03120  0.67140  1.0000 -0.1421024142
C   C34       1.0  0.69400  0.05750  0.62170  1.0000 -0.326069889
C   C35       1.0  0.55130  0.10120  0.64530  1.0000 0.6393836314
C   C36       1.0  0.91000  0.88300  0.62120  1.0000 -0.3993615633
C   C37       1.0  0.44420  0.45530  0.14940  1.0000 0.5707210177
C   C38       1.0  0.30150  0.41130  0.12410  1.0000 -0.057079188
C   C39       1.0  0.20020  0.37950  0.17220  1.0000 -0.1528020551
C   C40       1.0  0.05610  0.32460  0.15340  1.0000 -0.326069889
C   C41       1.0  0.94940  0.32310  0.20360  1.0000 0.681595462
C   C42       1.0  0.34400  0.33600  0.08080  1.0000 -0.3900783038
C   C43       1.0  0.89520  0.69700  0.91500  1.0000 0.5796360845
C   C44       1.0  0.97560  0.72900  0.96880  1.0000 -0.057079188
C   C45       1.0  0.91300  0.68410  0.02340  1.0000 -0.1421024142
C   C46       1.0  0.96100  0.58050  0.03080  1.0000 -0.3223887211
C   C47       1.0  0.89180  0.55020  0.08940  1.0000 0.6209081287
C   C48       1.0  0.96900  0.83720  0.97320  1.0000 -0.3900783038
C   C49       1.0  0.55270  0.53150  0.29770  1.0000 0.6209081287
C   C50       1.0  0.44550  0.52480  0.34980  1.0000 -0.0514955161
C   C51       1.0  0.30160  0.46880  0.32860  1.0000 -0.1421024142
C   C52       1.0  0.19400  0.44250  0.37830  1.0000 -0.326069889
C   C53       1.0  0.05130  0.39880  0.35470  1.0000 0.6393836314
C   C54       1.0  0.41000  0.61700  0.37880  1.0000 -0.3993615633
C   C55       1.0  0.05580  0.54470  0.64940  1.0000 0.5707210177
C   C56       1.0  0.19850  0.58870  0.62410  1.0000 -0.057079188
C   C57       1.0  0.29980  0.62050  0.67220  1.0000 -0.1528020551
C   C58       1.0  0.44390  0.67540  0.65340  1.0000 -0.326069889
C   C59       1.0  0.55060  0.67690  0.70360  1.0000 0.681595462
C   C60       1.0  0.15600  0.66400  0.58080  1.0000 -0.3900783038
C   C61       1.0  0.60480  0.30300  0.41500  1.0000 0.5796360845
C   C62       1.0  0.52440  0.27100  0.46880  1.0000 -0.057079188
C   C63       1.0  0.58700  0.31590  0.52340  1.0000 -0.1421024142
C   C64       1.0  0.53900  0.41950  0.53080  1.0000 -0.3223887211
C   C65       1.0  0.60820  0.44980  0.58940  1.0000 0.6209081287
C   C66       1.0  0.53100  0.16280  0.47320  1.0000 -0.3900783038
C   C67       1.0  0.94730  0.46850  0.79770  1.0000 0.6209081287
C   C68       1.0  0.05450  0.47520  0.84980  1.0000 -0.0514955161
C   C69       1.0  0.19840  0.53120  0.82860  1.0000 -0.1421024142
C   C70       1.0  0.30600  0.55750  0.87830  1.0000 -0.326069889
C   C71       1.0  0.44870  0.60120  0.85470  1.0000 0.6393836314
C   C72       1.0  0.09000  0.38300  0.87880  1.0000 -0.3993615633
O   O1        1.0  0.44720  0.90280  0.33370  1.0000 -0.5889165526
O   O2        1.0  0.09800  0.09010  0.24140  1.0000 -0.7633108621
O   O3        1.0  0.54170  0.04340  0.34770  1.0000 -0.6129199689
O   O4        1.0  0.28950  0.19120  0.33530  1.0000 -0.7633108621
O   O5        1.0  0.05240  0.75600  0.25980  1.0000 -0.6129199689
O   O6        1.0  0.21590  0.66190  0.16330  1.0000 -0.7633108621
O   O7        1.0  0.13720  0.89380  0.28540  1.0000 -0.7300898558
O   O8        1.0  0.40140  0.76560  0.25820  1.0000 -0.7389703518
O   O9        1.0  0.03940  0.21010  0.63480  1.0000 -0.6601943499
O   O10       1.0  0.23710  0.15950  0.58460  1.0000 -0.6219052872
O   O11       1.0  0.04310  0.06720  0.36370  1.0000 -0.6129199689
O   O12       1.0  0.24100  0.01280  0.41080  1.0000 -0.6219052872
O   O13       1.0  0.44770  0.10080  0.23350  1.0000 -0.5681051737
O   O14       1.0  0.36180  0.95960  0.21370  1.0000 -0.7664904719
O   O15       1.0  0.06000  0.95000  0.16360  1.0000 -0.6392880207
O   O16       1.0  0.96430  0.81070  0.14830  1.0000 -0.6129199689
O   O17       1.0  0.05280  0.09720  0.83370  1.0000 -0.5889165526
O   O18       1.0  0.40200  0.90990  0.74140  1.0000 -0.7633108621
O   O19       1.0  0.95830  0.95660  0.84770  1.0000 -0.6129199689
O   O20       1.0  0.21050  0.80880  0.83530  1.0000 -0.7633108621
O   O21       1.0  0.44760  0.24400  0.75980  1.0000 -0.6129199689
O   O22       1.0  0.28410  0.33810  0.66330  1.0000 -0.7633108621
O   O23       1.0  0.36280  0.10620  0.78540  1.0000 -0.7300898558
O   O24       1.0  0.09860  0.23440  0.75820  1.0000 -0.7389703518
O   O25       1.0  0.46060  0.78990  0.13480  1.0000 -0.6601943499
O   O26       1.0  0.26290  0.84050  0.08460  1.0000 -0.6219052872
O   O27       1.0  0.45690  0.93280  0.86370  1.0000 -0.6129199689
O   O28       1.0  0.25900  0.98720  0.91080  1.0000 -0.6219052872
O   O29       1.0  0.05230  0.89920  0.73350  1.0000 -0.5681051737
O   O30       1.0  0.13820  0.04040  0.71370  1.0000 -0.7664904719
O   O31       1.0  0.44000  0.05000  0.66360  1.0000 -0.6392880207
O   O32       1.0  0.53570  0.18930  0.64830  1.0000 -0.6129199689
O   O33       1.0  0.55280  0.40280  0.16630  1.0000 -0.5889165526
O   O34       1.0  0.90200  0.59010  0.25860  1.0000 -0.7633108621
O   O35       1.0  0.45830  0.54340  0.15230  1.0000 -0.6129199689
O   O36       1.0  0.71050  0.69120  0.16470  1.0000 -0.7633108621
O   O37       1.0  0.94760  0.25600  0.24020  1.0000 -0.6129199689
O   O38       1.0  0.78410  0.16190  0.33670  1.0000 -0.7633108621
O   O39       1.0  0.86280  0.39380  0.21460  1.0000 -0.7300898558
O   O40       1.0  0.59860  0.26560  0.24180  1.0000 -0.7389703518
O   O41       1.0  0.96060  0.71010  0.86520  1.0000 -0.6601943499
O   O42       1.0  0.76290  0.65950  0.91540  1.0000 -0.6219052872
O   O43       1.0  0.95690  0.56720  0.13630  1.0000 -0.6129199689
O   O44       1.0  0.75900  0.51280  0.08920  1.0000 -0.6219052872
O   O45       1.0  0.55230  0.60080  0.26650  1.0000 -0.5681051737
O   O46       1.0  0.63820  0.45960  0.28630  1.0000 -0.7664904719
O   O47       1.0  0.94000  0.45000  0.33640  1.0000 -0.6392880207
O   O48       1.0  0.03570  0.31070  0.35170  1.0000 -0.6129199689
O   O49       1.0  0.94720  0.59720  0.66630  1.0000 -0.5889165526
O   O50       1.0  0.59800  0.40990  0.75860  1.0000 -0.7633108621
O   O51       1.0  0.04170  0.45660  0.65230  1.0000 -0.6129199689
O   O52       1.0  0.78950  0.30880  0.66470  1.0000 -0.7633108621
O   O53       1.0  0.55240  0.74400  0.74020  1.0000 -0.6129199689
O   O54       1.0  0.71590  0.83810  0.83670  1.0000 -0.7633108621
O   O55       1.0  0.63720  0.60620  0.71460  1.0000 -0.7300898558
O   O56       1.0  0.90140  0.73440  0.74180  1.0000 -0.7389703518
O   O57       1.0  0.53940  0.28990  0.36520  1.0000 -0.6601943499
O   O58       1.0  0.73710  0.34050  0.41540  1.0000 -0.6219052872
O   O59       1.0  0.54310  0.43280  0.63630  1.0000 -0.6129199689
O   O60       1.0  0.74100  0.48720  0.58920  1.0000 -0.6219052872
O   O61       1.0  0.94770  0.39920  0.76650  1.0000 -0.5681051737
O   O62       1.0  0.86180  0.54040  0.78630  1.0000 -0.7664904719
O   O63       1.0  0.56000  0.55000  0.83640  1.0000 -0.6392880207
O   O64       1.0  0.46430  0.68930  0.85170  1.0000 -0.6129199689
