# DDEC6 charges by PACMAN v1.1 (https://github.com/mtap-research/PACMAN-charge/)
data_2019[Eu][sql]2[FSR]2
_chemical_formula_sum              "Eu8 H88 C64 O68"
_cell_length_a       8.7917
_cell_length_b       14.1229
_cell_length_c       24.8459
_cell_angle_alpha    90
_cell_angle_beta     90
_cell_angle_gamma    90

_symmetry_space_group_name_H-M    "P 1"
_symmetry_Int_Tables_number       1

loop_
  _symmetry_equiv_pos_as_xyz
  'x, y, z'

loop_
  _atom_site_type_symbol
  _atom_site_label
  _atom_site_symmetry_multiplicity
  _atom_site_fract_x
  _atom_site_fract_y
  _atom_site_fract_z
  _atom_site_occupancy
  _atom_site_charge
Eu  Eu1       1.0  0.52632  0.89392  0.44297  1.0000 1.9785436753
Eu  Eu2       1.0  0.47368  0.10608  0.94297  1.0000 1.9785436753
Eu  Eu3       1.0  0.47368  0.10608  0.55703  1.0000 1.9785436753
Eu  Eu4       1.0  0.52632  0.89392  0.05703  1.0000 1.9785436753
Eu  Eu5       1.0  0.97368  0.39392  0.55703  1.0000 1.9785436753
Eu  Eu6       1.0  0.02632  0.60608  0.05703  1.0000 1.9785436753
Eu  Eu7       1.0  0.02632  0.60608  0.44297  1.0000 1.9785436753
Eu  Eu8       1.0  0.97368  0.39392  0.94297  1.0000 1.9785436753
H   H1        1.0  0.29000  0.87750  0.51800  1.0000 0.3868780385
H   H2        1.0  0.30700  0.78600  0.49680  1.0000 0.3868780385
H   H3        1.0  0.46500  0.72000  0.39400  1.0000 0.3660783384
H   H4        1.0  0.62100  0.71850  0.40400  1.0000 0.3644967887
H   H5        1.0  0.23950  0.06290  0.38000  1.0000 0.1417908396
H   H6        1.0  0.16620  0.15970  0.39760  1.0000 0.1417908396
H   H7        1.0  0.99130  0.08350  0.45250  1.0000 0.1048885507
H   H8        1.0  0.07630  0.98650  0.44650  1.0000 0.1077166207
H   H9        1.0  0.91860  0.07480  0.36140  1.0000 0.1301422815
H   H10       1.0  0.99890  0.97570  0.35710  1.0000 0.1301422815
H   H11       1.0  0.10590  0.77050  0.30020  1.0000 0.1509845543
H   H12       1.0  0.71000  0.12250  0.01800  1.0000 0.3868780385
H   H13       1.0  0.69300  0.21400  0.99680  1.0000 0.3868780385
H   H14       1.0  0.53500  0.28000  0.89400  1.0000 0.3660783384
H   H15       1.0  0.37900  0.28150  0.90400  1.0000 0.3644967887
H   H16       1.0  0.76050  0.93710  0.88000  1.0000 0.1417908396
H   H17       1.0  0.83380  0.84030  0.89760  1.0000 0.1417908396
H   H18       1.0  0.00870  0.91650  0.95250  1.0000 0.1048885507
H   H19       1.0  0.92370  0.01350  0.94650  1.0000 0.1077166207
H   H20       1.0  0.08140  0.92520  0.86140  1.0000 0.1301422815
H   H21       1.0  0.00110  0.02430  0.85710  1.0000 0.1301422815
H   H22       1.0  0.89410  0.22950  0.80020  1.0000 0.1509845543
H   H23       1.0  0.71000  0.12250  0.48200  1.0000 0.3868780385
H   H24       1.0  0.69300  0.21400  0.50320  1.0000 0.3868780385
H   H25       1.0  0.53500  0.28000  0.60600  1.0000 0.3660783384
H   H26       1.0  0.37900  0.28150  0.59600  1.0000 0.3644967887
H   H27       1.0  0.76050  0.93710  0.62000  1.0000 0.1417908396
H   H28       1.0  0.83380  0.84030  0.60240  1.0000 0.1417908396
H   H29       1.0  0.00870  0.91650  0.54750  1.0000 0.1048885507
H   H30       1.0  0.92370  0.01350  0.55350  1.0000 0.1077166207
H   H31       1.0  0.08140  0.92520  0.63860  1.0000 0.1301422815
H   H32       1.0  0.00110  0.02430  0.64290  1.0000 0.1301422815
H   H33       1.0  0.89410  0.22950  0.69980  1.0000 0.1509845543
H   H34       1.0  0.29000  0.87750  0.98200  1.0000 0.3868780385
H   H35       1.0  0.30700  0.78600  0.00320  1.0000 0.3868780385
H   H36       1.0  0.46500  0.72000  0.10600  1.0000 0.3660783384
H   H37       1.0  0.62100  0.71850  0.09600  1.0000 0.3644967887
H   H38       1.0  0.23950  0.06290  0.12000  1.0000 0.1417908396
H   H39       1.0  0.16620  0.15970  0.10240  1.0000 0.1417908396
H   H40       1.0  0.99130  0.08350  0.04750  1.0000 0.1048885507
H   H41       1.0  0.07630  0.98650  0.05350  1.0000 0.1077166207
H   H42       1.0  0.91860  0.07480  0.13860  1.0000 0.1301422815
H   H43       1.0  0.99890  0.97570  0.14290  1.0000 0.1301422815
H   H44       1.0  0.10590  0.77050  0.19980  1.0000 0.1509845543
H   H45       1.0  0.21000  0.37750  0.48200  1.0000 0.3868780385
H   H46       1.0  0.19300  0.28600  0.50320  1.0000 0.3868780385
H   H47       1.0  0.03500  0.22000  0.60600  1.0000 0.3660783384
H   H48       1.0  0.87900  0.21850  0.59600  1.0000 0.3644967887
H   H49       1.0  0.26050  0.56290  0.62000  1.0000 0.1417908396
H   H50       1.0  0.33380  0.65970  0.60240  1.0000 0.1417908396
H   H51       1.0  0.50870  0.58350  0.54750  1.0000 0.1048885507
H   H52       1.0  0.42370  0.48650  0.55350  1.0000 0.1077166207
H   H53       1.0  0.58140  0.57480  0.63860  1.0000 0.1301422815
H   H54       1.0  0.50110  0.47570  0.64290  1.0000 0.1301422815
H   H55       1.0  0.39410  0.27050  0.69980  1.0000 0.1509845543
H   H56       1.0  0.79000  0.62250  0.98200  1.0000 0.3868780385
H   H57       1.0  0.80700  0.71400  0.00320  1.0000 0.3868780385
H   H58       1.0  0.96500  0.78000  0.10600  1.0000 0.3660783384
H   H59       1.0  0.12100  0.78150  0.09600  1.0000 0.3644967887
H   H60       1.0  0.73950  0.43710  0.12000  1.0000 0.1417908396
H   H61       1.0  0.66620  0.34030  0.10240  1.0000 0.1417908396
H   H62       1.0  0.49130  0.41650  0.04750  1.0000 0.1048885507
H   H63       1.0  0.57630  0.51350  0.05350  1.0000 0.1077166207
H   H64       1.0  0.41860  0.42520  0.13860  1.0000 0.1301422815
H   H65       1.0  0.49890  0.52430  0.14290  1.0000 0.1301422815
H   H66       1.0  0.60590  0.72950  0.19980  1.0000 0.1509845543
H   H67       1.0  0.79000  0.62250  0.51800  1.0000 0.3868780385
H   H68       1.0  0.80700  0.71400  0.49680  1.0000 0.3868780385
H   H69       1.0  0.96500  0.78000  0.39400  1.0000 0.3660783384
H   H70       1.0  0.12100  0.78150  0.40400  1.0000 0.3644967887
H   H71       1.0  0.73950  0.43710  0.38000  1.0000 0.1417908396
H   H72       1.0  0.66620  0.34030  0.39760  1.0000 0.1417908396
H   H73       1.0  0.49130  0.41650  0.45250  1.0000 0.1048885507
H   H74       1.0  0.57630  0.51350  0.44650  1.0000 0.1077166207
H   H75       1.0  0.41860  0.42520  0.36140  1.0000 0.1301422815
H   H76       1.0  0.49890  0.52430  0.35710  1.0000 0.1301422815
H   H77       1.0  0.60590  0.72950  0.30020  1.0000 0.1509845543
H   H78       1.0  0.21000  0.37750  0.01800  1.0000 0.3868780385
H   H79       1.0  0.19300  0.28600  0.99680  1.0000 0.3868780385
H   H80       1.0  0.03500  0.22000  0.89400  1.0000 0.3660783384
H   H81       1.0  0.87900  0.21850  0.90400  1.0000 0.3644967887
H   H82       1.0  0.26050  0.56290  0.88000  1.0000 0.1417908396
H   H83       1.0  0.33380  0.65970  0.89760  1.0000 0.1417908396
H   H84       1.0  0.50870  0.58350  0.95250  1.0000 0.1048885507
H   H85       1.0  0.42370  0.48650  0.94650  1.0000 0.1077166207
H   H86       1.0  0.58140  0.57480  0.86140  1.0000 0.1301422815
H   H87       1.0  0.50110  0.47570  0.85710  1.0000 0.1301422815
H   H88       1.0  0.39410  0.27050  0.80020  1.0000 0.1509845543
C   C1        1.0  0.29930  0.10160  0.45630  1.0000 0.6791016969
C   C2        1.0  0.35630  0.87980  0.34720  1.0000 0.5209115061
C   C3        1.0  0.80330  0.97060  0.40250  1.0000 0.6312878046
C   C4        1.0  0.19200  0.09640  0.40970  1.0000 -0.3307835546
C   C5        1.0  0.04740  0.04380  0.42750  1.0000 -0.0925303038
C   C6        1.0  0.28890  0.85440  0.29410  1.0000 0.0744573239
C   C7        1.0  0.94580  0.01820  0.38130  1.0000 -0.3213106778
C   C8        1.0  0.17470  0.80200  0.27810  1.0000 -0.1632276338
C   C9        1.0  0.70070  0.89840  0.95630  1.0000 0.6791016969
C   C10       1.0  0.64370  0.12020  0.84720  1.0000 0.5209115061
C   C11       1.0  0.19670  0.02940  0.90250  1.0000 0.6312878046
C   C12       1.0  0.80800  0.90360  0.90970  1.0000 -0.3307835546
C   C13       1.0  0.95260  0.95620  0.92750  1.0000 -0.0925303038
C   C14       1.0  0.71110  0.14560  0.79410  1.0000 0.0744573239
C   C15       1.0  0.05420  0.98180  0.88130  1.0000 -0.3213106778
C   C16       1.0  0.82530  0.19800  0.77810  1.0000 -0.1632276338
C   C17       1.0  0.70070  0.89840  0.54370  1.0000 0.6791016969
C   C18       1.0  0.64370  0.12020  0.65280  1.0000 0.5209115061
C   C19       1.0  0.19670  0.02940  0.59750  1.0000 0.6312878046
C   C20       1.0  0.80800  0.90360  0.59030  1.0000 -0.3307835546
C   C21       1.0  0.95260  0.95620  0.57250  1.0000 -0.0925303038
C   C22       1.0  0.71110  0.14560  0.70590  1.0000 0.0744573239
C   C23       1.0  0.05420  0.98180  0.61870  1.0000 -0.3213106778
C   C24       1.0  0.82530  0.19800  0.72190  1.0000 -0.1632276338
C   C25       1.0  0.29930  0.10160  0.04370  1.0000 0.6791016969
C   C26       1.0  0.35630  0.87980  0.15280  1.0000 0.5209115061
C   C27       1.0  0.80330  0.97060  0.09750  1.0000 0.6312878046
C   C28       1.0  0.19200  0.09640  0.09030  1.0000 -0.3307835546
C   C29       1.0  0.04740  0.04380  0.07250  1.0000 -0.0925303038
C   C30       1.0  0.28890  0.85440  0.20590  1.0000 0.0744573239
C   C31       1.0  0.94580  0.01820  0.11870  1.0000 -0.3213106778
C   C32       1.0  0.17470  0.80200  0.22190  1.0000 -0.1632276338
C   C33       1.0  0.20070  0.60160  0.54370  1.0000 0.6791016969
C   C34       1.0  0.14370  0.37980  0.65280  1.0000 0.5209115061
C   C35       1.0  0.69670  0.47060  0.59750  1.0000 0.6312878046
C   C36       1.0  0.30800  0.59640  0.59030  1.0000 -0.3307835546
C   C37       1.0  0.45260  0.54380  0.57250  1.0000 -0.0925303038
C   C38       1.0  0.21110  0.35440  0.70590  1.0000 0.0744573239
C   C39       1.0  0.55420  0.51820  0.61870  1.0000 -0.3213106778
C   C40       1.0  0.32530  0.30200  0.72190  1.0000 -0.1632276338
C   C41       1.0  0.79930  0.39840  0.04370  1.0000 0.6791016969
C   C42       1.0  0.85630  0.62020  0.15280  1.0000 0.5209115061
C   C43       1.0  0.30330  0.52940  0.09750  1.0000 0.6312878046
C   C44       1.0  0.69200  0.40360  0.09030  1.0000 -0.3307835546
C   C45       1.0  0.54740  0.45620  0.07250  1.0000 -0.0925303038
C   C46       1.0  0.78890  0.64560  0.20590  1.0000 0.0744573239
C   C47       1.0  0.44580  0.48180  0.11870  1.0000 -0.3213106778
C   C48       1.0  0.67470  0.69800  0.22190  1.0000 -0.1632276338
C   C49       1.0  0.79930  0.39840  0.45630  1.0000 0.6791016969
C   C50       1.0  0.85630  0.62020  0.34720  1.0000 0.5209115061
C   C51       1.0  0.30330  0.52940  0.40250  1.0000 0.6312878046
C   C52       1.0  0.69200  0.40360  0.40970  1.0000 -0.3307835546
C   C53       1.0  0.54740  0.45620  0.42750  1.0000 -0.0925303038
C   C54       1.0  0.78890  0.64560  0.29410  1.0000 0.0744573239
C   C55       1.0  0.44580  0.48180  0.38130  1.0000 -0.3213106778
C   C56       1.0  0.67470  0.69800  0.27810  1.0000 -0.1632276338
C   C57       1.0  0.20070  0.60160  0.95630  1.0000 0.6791016969
C   C58       1.0  0.14370  0.37980  0.84720  1.0000 0.5209115061
C   C59       1.0  0.69670  0.47060  0.90250  1.0000 0.6312878046
C   C60       1.0  0.30800  0.59640  0.90970  1.0000 -0.3307835546
C   C61       1.0  0.45260  0.54380  0.92750  1.0000 -0.0925303038
C   C62       1.0  0.21110  0.35440  0.79410  1.0000 0.0744573239
C   C63       1.0  0.55420  0.51820  0.88130  1.0000 -0.3213106778
C   C64       1.0  0.32530  0.30200  0.77810  1.0000 -0.1632276338
O   O1        1.0  0.38970  0.03400  0.46550  1.0000 -0.737890282
O   O2        1.0  0.28920  0.85830  0.38995  1.0000 -0.6081859891
O   O3        1.0  0.29340  0.16860  0.48950  1.0000 -0.6081859891
O   O4        1.0  0.35580  0.83440  0.50920  1.0000 -0.7823077526
O   O5        1.0  0.53420  0.73170  0.41790  1.0000 -0.7860410523
O   O6        1.0  0.70000  0.02180  0.42170  1.0000 -0.6300656137
O   O7        1.0  0.78680  0.88260  0.40070  1.0000 -0.6300656137
O   O8        1.0  0.48360  0.91810  0.34700  1.0000 -0.5754375022
O   O9        1.0  0.61030  0.96600  0.96550  1.0000 -0.737890282
O   O10       1.0  0.71080  0.14170  0.88995  1.0000 -0.6081859891
O   O11       1.0  0.70660  0.83140  0.98950  1.0000 -0.6081859891
O   O12       1.0  0.64420  0.16560  0.00920  1.0000 -0.7823077526
O   O13       1.0  0.46580  0.26830  0.91790  1.0000 -0.7860410523
O   O14       1.0  0.30000  0.97820  0.92170  1.0000 -0.6300656137
O   O15       1.0  0.21320  0.11740  0.90070  1.0000 -0.6300656137
O   O16       1.0  0.51640  0.08190  0.84700  1.0000 -0.5754375022
O   O17       1.0  0.61030  0.96600  0.53450  1.0000 -0.737890282
O   O18       1.0  0.71080  0.14170  0.61005  1.0000 -0.6081859891
O   O19       1.0  0.70660  0.83140  0.51050  1.0000 -0.6081859891
O   O20       1.0  0.64420  0.16560  0.49080  1.0000 -0.7823077526
O   O21       1.0  0.46580  0.26830  0.58210  1.0000 -0.7860410523
O   O22       1.0  0.30000  0.97820  0.57830  1.0000 -0.6300656137
O   O23       1.0  0.21320  0.11740  0.59930  1.0000 -0.6300656137
O   O24       1.0  0.51640  0.08190  0.65300  1.0000 -0.5754375022
O   O25       1.0  0.38970  0.03400  0.03450  1.0000 -0.737890282
O   O26       1.0  0.28920  0.85830  0.11005  1.0000 -0.6081859891
O   O27       1.0  0.29340  0.16860  0.01050  1.0000 -0.6081859891
O   O28       1.0  0.35580  0.83440  0.99080  1.0000 -0.7823077526
O   O29       1.0  0.53420  0.73170  0.08210  1.0000 -0.7860410523
O   O30       1.0  0.70000  0.02180  0.07830  1.0000 -0.6300656137
O   O31       1.0  0.78680  0.88260  0.09930  1.0000 -0.6300656137
O   O32       1.0  0.48360  0.91810  0.15300  1.0000 -0.5754375022
O   O33       1.0  0.36620  0.88580  0.25000  1.0000 -0.0601144286
O   O34       1.0  0.63380  0.11420  0.75000  1.0000 -0.0601144286
O   O35       1.0  0.11030  0.53400  0.53450  1.0000 -0.737890282
O   O36       1.0  0.21080  0.35830  0.61005  1.0000 -0.6081859891
O   O37       1.0  0.20660  0.66860  0.51050  1.0000 -0.6081859891
O   O38       1.0  0.14420  0.33440  0.49080  1.0000 -0.7823077526
O   O39       1.0  0.96580  0.23170  0.58210  1.0000 -0.7860410523
O   O40       1.0  0.80000  0.52180  0.57830  1.0000 -0.6300656137
O   O41       1.0  0.71320  0.38260  0.59930  1.0000 -0.6300656137
O   O42       1.0  0.01640  0.41810  0.65300  1.0000 -0.5754375022
O   O43       1.0  0.88970  0.46600  0.03450  1.0000 -0.737890282
O   O44       1.0  0.78920  0.64170  0.11005  1.0000 -0.6081859891
O   O45       1.0  0.79340  0.33140  0.01050  1.0000 -0.6081859891
O   O46       1.0  0.85580  0.66560  0.99080  1.0000 -0.7823077526
O   O47       1.0  0.03420  0.76830  0.08210  1.0000 -0.7860410523
O   O48       1.0  0.20000  0.47820  0.07830  1.0000 -0.6300656137
O   O49       1.0  0.28680  0.61740  0.09930  1.0000 -0.6300656137
O   O50       1.0  0.98360  0.58190  0.15300  1.0000 -0.5754375022
O   O51       1.0  0.88970  0.46600  0.46550  1.0000 -0.737890282
O   O52       1.0  0.78920  0.64170  0.38995  1.0000 -0.6081859891
O   O53       1.0  0.79340  0.33140  0.48950  1.0000 -0.6081859891
O   O54       1.0  0.85580  0.66560  0.50920  1.0000 -0.7823077526
O   O55       1.0  0.03420  0.76830  0.41790  1.0000 -0.7860410523
O   O56       1.0  0.20000  0.47820  0.42170  1.0000 -0.6300656137
O   O57       1.0  0.28680  0.61740  0.40070  1.0000 -0.6300656137
O   O58       1.0  0.98360  0.58190  0.34700  1.0000 -0.5754375022
O   O59       1.0  0.11030  0.53400  0.96550  1.0000 -0.737890282
O   O60       1.0  0.21080  0.35830  0.88995  1.0000 -0.6081859891
O   O61       1.0  0.20660  0.66860  0.98950  1.0000 -0.6081859891
O   O62       1.0  0.14420  0.33440  0.00920  1.0000 -0.7823077526
O   O63       1.0  0.96580  0.23170  0.91790  1.0000 -0.7860410523
O   O64       1.0  0.80000  0.52180  0.92170  1.0000 -0.6300656137
O   O65       1.0  0.71320  0.38260  0.90070  1.0000 -0.6300656137
O   O66       1.0  0.01640  0.41810  0.84700  1.0000 -0.5754375022
O   O67       1.0  0.13380  0.38580  0.75000  1.0000 -0.0601144286
O   O68       1.0  0.86620  0.61420  0.25000  1.0000 -0.0601144286
