# DDEC6 charges by PACMAN v1.1 (https://github.com/mtap-research/PACMAN-charge/)
data_2019[Zn][dmc]3[FSR]1
_chemical_formula_sum              "Zn8 H56 C80 N24 O16"
_cell_length_a       12.0687
_cell_length_b       13.9984
_cell_length_c       15.2593
_cell_angle_alpha    90
_cell_angle_beta     90
_cell_angle_gamma    90

_symmetry_space_group_name_H-M    "P 1"
_symmetry_Int_Tables_number       1

loop_
  _symmetry_equiv_pos_as_xyz
  'x, y, z'

loop_
  _atom_site_type_symbol
  _atom_site_label
  _atom_site_symmetry_multiplicity
  _atom_site_fract_x
  _atom_site_fract_y
  _atom_site_fract_z
  _atom_site_occupancy
  _atom_site_charge
Zn  Zn1       1.0  0.42181  0.91410  0.93081  1.0000 0.6539807721
Zn  Zn2       1.0  0.92181  0.58590  0.06919  1.0000 0.6539807721
Zn  Zn3       1.0  0.57819  0.08590  0.06919  1.0000 0.6539807721
Zn  Zn4       1.0  0.07819  0.41410  0.93081  1.0000 0.6539807721
Zn  Zn5       1.0  0.07819  0.91410  0.56919  1.0000 0.6539807721
Zn  Zn6       1.0  0.57819  0.58590  0.43081  1.0000 0.6539807721
Zn  Zn7       1.0  0.92181  0.08590  0.43081  1.0000 0.6539807721
Zn  Zn8       1.0  0.42181  0.41410  0.56919  1.0000 0.6539807721
H   H1        1.0  0.77330  0.93960  0.09710  1.0000 0.1107026442
H   H2        1.0  0.59790  0.74580  0.96370  1.0000 0.1203632831
H   H3        1.0  0.48070  0.09210  0.65070  1.0000 0.1369679972
H   H4        1.0  0.45290  0.06860  0.79790  1.0000 0.1107026442
H   H5        1.0  0.45480  0.79150  0.76910  1.0000 0.1107026442
H   H6        1.0  0.51910  0.90330  0.49160  1.0000 0.1203632831
H   H7        1.0  0.48920  0.80680  0.62110  1.0000 0.1369679972
H   H8        1.0  0.27330  0.56040  0.90290  1.0000 0.1107026442
H   H9        1.0  0.09790  0.75420  0.03630  1.0000 0.1203632831
H   H10       1.0  0.98070  0.40790  0.34930  1.0000 0.1369679972
H   H11       1.0  0.95290  0.43140  0.20210  1.0000 0.1107026442
H   H12       1.0  0.95480  0.70850  0.23090  1.0000 0.1107026442
H   H13       1.0  0.01910  0.59670  0.50840  1.0000 0.1203632831
H   H14       1.0  0.98920  0.69320  0.37890  1.0000 0.1369679972
H   H15       1.0  0.22670  0.06040  0.90290  1.0000 0.1107026442
H   H16       1.0  0.40210  0.25420  0.03630  1.0000 0.1203632831
H   H17       1.0  0.51930  0.90790  0.34930  1.0000 0.1369679972
H   H18       1.0  0.54710  0.93140  0.20210  1.0000 0.1107026442
H   H19       1.0  0.54520  0.20850  0.23090  1.0000 0.1107026442
H   H20       1.0  0.48090  0.09670  0.50840  1.0000 0.1203632831
H   H21       1.0  0.51080  0.19320  0.37890  1.0000 0.1369679972
H   H22       1.0  0.72670  0.43960  0.09710  1.0000 0.1107026442
H   H23       1.0  0.90210  0.24580  0.96370  1.0000 0.1203632831
H   H24       1.0  0.01930  0.59210  0.65070  1.0000 0.1369679972
H   H25       1.0  0.04710  0.56860  0.79790  1.0000 0.1107026442
H   H26       1.0  0.04520  0.29150  0.76910  1.0000 0.1107026442
H   H27       1.0  0.98090  0.40330  0.49160  1.0000 0.1203632831
H   H28       1.0  0.01080  0.30680  0.62110  1.0000 0.1369679972
H   H29       1.0  0.72670  0.93960  0.40290  1.0000 0.1107026442
H   H30       1.0  0.90210  0.74580  0.53630  1.0000 0.1203632831
H   H31       1.0  0.01930  0.09210  0.84930  1.0000 0.1369679972
H   H32       1.0  0.04710  0.06860  0.70210  1.0000 0.1107026442
H   H33       1.0  0.04520  0.79150  0.73090  1.0000 0.1107026442
H   H34       1.0  0.98090  0.90330  0.00840  1.0000 0.1203632831
H   H35       1.0  0.01080  0.80680  0.87890  1.0000 0.1369679972
H   H36       1.0  0.22670  0.56040  0.59710  1.0000 0.1107026442
H   H37       1.0  0.40210  0.75420  0.46370  1.0000 0.1203632831
H   H38       1.0  0.51930  0.40790  0.15070  1.0000 0.1369679972
H   H39       1.0  0.54710  0.43140  0.29790  1.0000 0.1107026442
H   H40       1.0  0.54520  0.70850  0.26910  1.0000 0.1107026442
H   H41       1.0  0.48090  0.59670  0.99160  1.0000 0.1203632831
H   H42       1.0  0.51080  0.69320  0.12110  1.0000 0.1369679972
H   H43       1.0  0.27330  0.06040  0.59710  1.0000 0.1107026442
H   H44       1.0  0.09790  0.25420  0.46370  1.0000 0.1203632831
H   H45       1.0  0.98070  0.90790  0.15070  1.0000 0.1369679972
H   H46       1.0  0.95290  0.93140  0.29790  1.0000 0.1107026442
H   H47       1.0  0.95480  0.20850  0.26910  1.0000 0.1107026442
H   H48       1.0  0.01910  0.09670  0.99160  1.0000 0.1203632831
H   H49       1.0  0.98920  0.19320  0.12110  1.0000 0.1369679972
H   H50       1.0  0.77330  0.43960  0.40290  1.0000 0.1107026442
H   H51       1.0  0.59790  0.24580  0.53630  1.0000 0.1203632831
H   H52       1.0  0.48070  0.59210  0.84930  1.0000 0.1369679972
H   H53       1.0  0.45290  0.56860  0.70210  1.0000 0.1107026442
H   H54       1.0  0.45480  0.29150  0.73090  1.0000 0.1107026442
H   H55       1.0  0.51910  0.40330  0.00840  1.0000 0.1203632831
H   H56       1.0  0.48920  0.30680  0.87890  1.0000 0.1369679972
C   C1        1.0  0.71674  0.90909  0.06404  1.0000 -0.0300224525
C   C2        1.0  0.62092  0.80328  0.99141  1.0000 -0.0300224525
C   C3        1.0  0.71913  0.81436  0.03743  1.0000 -0.1346262832
C   C4        1.0  0.48560  0.95124  0.61773  1.0000 0.161535646
C   C5        1.0  0.47552  0.02903  0.67321  1.0000 -0.1835449979
C   C6        1.0  0.45796  0.01415  0.76103  1.0000 0.0656657863
C   C7        1.0  0.45985  0.85380  0.74479  1.0000 0.0894341424
C   C8        1.0  0.50267  0.96025  0.52286  1.0000 -0.1197904208
C   C9        1.0  0.80583  0.74271  0.05652  1.0000 0.5601698562
C   C10       1.0  0.47965  0.86242  0.65594  1.0000 -0.1835449979
C   C11       1.0  0.21674  0.59091  0.93596  1.0000 -0.0300224525
C   C12       1.0  0.12092  0.69672  0.00859  1.0000 -0.0300224525
C   C13       1.0  0.21913  0.68564  0.96257  1.0000 -0.1346262832
C   C14       1.0  0.98560  0.54876  0.38227  1.0000 0.161535646
C   C15       1.0  0.97552  0.47097  0.32679  1.0000 -0.1835449979
C   C16       1.0  0.95796  0.48585  0.23897  1.0000 0.0656657863
C   C17       1.0  0.95985  0.64620  0.25521  1.0000 0.0894341424
C   C18       1.0  0.00267  0.53975  0.47714  1.0000 -0.1197904208
C   C19       1.0  0.30583  0.75729  0.94348  1.0000 0.5601698562
C   C20       1.0  0.97965  0.63758  0.34406  1.0000 -0.1835449979
C   C21       1.0  0.28326  0.09091  0.93596  1.0000 -0.0300224525
C   C22       1.0  0.37908  0.19672  0.00859  1.0000 -0.0300224525
C   C23       1.0  0.28087  0.18564  0.96257  1.0000 -0.1346262832
C   C24       1.0  0.51440  0.04876  0.38227  1.0000 0.161535646
C   C25       1.0  0.52448  0.97097  0.32679  1.0000 -0.1835449979
C   C26       1.0  0.54204  0.98585  0.23897  1.0000 0.0656657863
C   C27       1.0  0.54015  0.14620  0.25521  1.0000 0.0894341424
C   C28       1.0  0.49733  0.03975  0.47714  1.0000 -0.1197904208
C   C29       1.0  0.19417  0.25729  0.94348  1.0000 0.5601698562
C   C30       1.0  0.52035  0.13758  0.34406  1.0000 -0.1835449979
C   C31       1.0  0.78326  0.40909  0.06404  1.0000 -0.0300224525
C   C32       1.0  0.87908  0.30328  0.99141  1.0000 -0.0300224525
C   C33       1.0  0.78087  0.31436  0.03743  1.0000 -0.1346262832
C   C34       1.0  0.01440  0.45124  0.61773  1.0000 0.161535646
C   C35       1.0  0.02448  0.52903  0.67321  1.0000 -0.1835449979
C   C36       1.0  0.04204  0.51415  0.76103  1.0000 0.0656657863
C   C37       1.0  0.04015  0.35380  0.74479  1.0000 0.0894341424
C   C38       1.0  0.99733  0.46025  0.52286  1.0000 -0.1197904208
C   C39       1.0  0.69417  0.24271  0.05652  1.0000 0.5601698562
C   C40       1.0  0.02035  0.36242  0.65594  1.0000 -0.1835449979
C   C41       1.0  0.78326  0.90909  0.43596  1.0000 -0.0300224525
C   C42       1.0  0.87908  0.80328  0.50859  1.0000 -0.0300224525
C   C43       1.0  0.78087  0.81436  0.46257  1.0000 -0.1346262832
C   C44       1.0  0.01440  0.95124  0.88227  1.0000 0.161535646
C   C45       1.0  0.02448  0.02903  0.82679  1.0000 -0.1835449979
C   C46       1.0  0.04204  0.01415  0.73897  1.0000 0.0656657863
C   C47       1.0  0.04015  0.85380  0.75521  1.0000 0.0894341424
C   C48       1.0  0.99733  0.96025  0.97714  1.0000 -0.1197904208
C   C49       1.0  0.69417  0.74271  0.44348  1.0000 0.5601698562
C   C50       1.0  0.02035  0.86242  0.84406  1.0000 -0.1835449979
C   C51       1.0  0.28326  0.59091  0.56404  1.0000 -0.0300224525
C   C52       1.0  0.37908  0.69672  0.49141  1.0000 -0.0300224525
C   C53       1.0  0.28087  0.68564  0.53743  1.0000 -0.1346262832
C   C54       1.0  0.51440  0.54876  0.11773  1.0000 0.161535646
C   C55       1.0  0.52448  0.47097  0.17321  1.0000 -0.1835449979
C   C56       1.0  0.54204  0.48585  0.26103  1.0000 0.0656657863
C   C57       1.0  0.54015  0.64620  0.24479  1.0000 0.0894341424
C   C58       1.0  0.49733  0.53975  0.02286  1.0000 -0.1197904208
C   C59       1.0  0.19417  0.75729  0.55652  1.0000 0.5601698562
C   C60       1.0  0.52035  0.63758  0.15594  1.0000 -0.1835449979
C   C61       1.0  0.21674  0.09091  0.56404  1.0000 -0.0300224525
C   C62       1.0  0.12092  0.19672  0.49141  1.0000 -0.0300224525
C   C63       1.0  0.21913  0.18564  0.53743  1.0000 -0.1346262832
C   C64       1.0  0.98560  0.04876  0.11773  1.0000 0.161535646
C   C65       1.0  0.97552  0.97097  0.17321  1.0000 -0.1835449979
C   C66       1.0  0.95796  0.98585  0.26103  1.0000 0.0656657863
C   C67       1.0  0.95985  0.14620  0.24479  1.0000 0.0894341424
C   C68       1.0  0.00267  0.03975  0.02286  1.0000 -0.1197904208
C   C69       1.0  0.30583  0.25729  0.55652  1.0000 0.5601698562
C   C70       1.0  0.97965  0.13758  0.15594  1.0000 -0.1835449979
C   C71       1.0  0.71674  0.40909  0.43596  1.0000 -0.0300224525
C   C72       1.0  0.62092  0.30328  0.50859  1.0000 -0.0300224525
C   C73       1.0  0.71913  0.31436  0.46257  1.0000 -0.1346262832
C   C74       1.0  0.48560  0.45124  0.88227  1.0000 0.161535646
C   C75       1.0  0.47552  0.52903  0.82679  1.0000 -0.1835449979
C   C76       1.0  0.45796  0.51415  0.73897  1.0000 0.0656657863
C   C77       1.0  0.45985  0.35380  0.75521  1.0000 0.0894341424
C   C78       1.0  0.50267  0.46025  0.97714  1.0000 -0.1197904208
C   C79       1.0  0.80583  0.24271  0.44348  1.0000 0.5601698562
C   C80       1.0  0.47965  0.36242  0.84406  1.0000 -0.1835449979
N   N1        1.0  0.62355  0.95159  0.03653  1.0000 -0.1899830744
N   N2        1.0  0.56317  0.88467  0.99140  1.0000 -0.1899830744
N   N3        1.0  0.44749  0.92822  0.79801  1.0000 -0.2231835023
N   N4        1.0  0.12355  0.54841  0.96347  1.0000 -0.1899830744
N   N5        1.0  0.06317  0.61533  0.00860  1.0000 -0.1899830744
N   N6        1.0  0.94749  0.57178  0.20199  1.0000 -0.2231835023
N   N7        1.0  0.37645  0.04841  0.96347  1.0000 -0.1899830744
N   N8        1.0  0.43683  0.11533  0.00860  1.0000 -0.1899830744
N   N9        1.0  0.55251  0.07178  0.20199  1.0000 -0.2231835023
N   N10       1.0  0.87645  0.45159  0.03653  1.0000 -0.1899830744
N   N11       1.0  0.93683  0.38467  0.99140  1.0000 -0.1899830744
N   N12       1.0  0.05251  0.42822  0.79801  1.0000 -0.2231835023
N   N13       1.0  0.87645  0.95159  0.46347  1.0000 -0.1899830744
N   N14       1.0  0.93683  0.88467  0.50860  1.0000 -0.1899830744
N   N15       1.0  0.05251  0.92822  0.70199  1.0000 -0.2231835023
N   N16       1.0  0.37645  0.54841  0.53653  1.0000 -0.1899830744
N   N17       1.0  0.43683  0.61533  0.49140  1.0000 -0.1899830744
N   N18       1.0  0.55251  0.57178  0.29801  1.0000 -0.2231835023
N   N19       1.0  0.12355  0.04841  0.53653  1.0000 -0.1899830744
N   N20       1.0  0.06317  0.11533  0.49140  1.0000 -0.1899830744
N   N21       1.0  0.94749  0.07178  0.29801  1.0000 -0.2231835023
N   N22       1.0  0.62355  0.45159  0.46347  1.0000 -0.1899830744
N   N23       1.0  0.56317  0.38467  0.50860  1.0000 -0.1899830744
N   N24       1.0  0.44749  0.42822  0.70199  1.0000 -0.2231835023
O   O1        1.0  0.89478  0.76699  0.09068  1.0000 -0.5701049165
O   O2        1.0  0.78577  0.65611  0.03606  1.0000 -0.5227505238
O   O3        1.0  0.39478  0.73301  0.90932  1.0000 -0.5701049165
O   O4        1.0  0.28577  0.84389  0.96394  1.0000 -0.5227505238
O   O5        1.0  0.10522  0.23301  0.90932  1.0000 -0.5701049165
O   O6        1.0  0.21423  0.34389  0.96394  1.0000 -0.5227505238
O   O7        1.0  0.60522  0.26699  0.09068  1.0000 -0.5701049165
O   O8        1.0  0.71423  0.15611  0.03606  1.0000 -0.5227505238
O   O9        1.0  0.60522  0.76699  0.40932  1.0000 -0.5701049165
O   O10       1.0  0.71423  0.65611  0.46394  1.0000 -0.5227505238
O   O11       1.0  0.10522  0.73301  0.59068  1.0000 -0.5701049165
O   O12       1.0  0.21423  0.84389  0.53606  1.0000 -0.5227505238
O   O13       1.0  0.39478  0.23301  0.59068  1.0000 -0.5701049165
O   O14       1.0  0.28577  0.34389  0.53606  1.0000 -0.5227505238
O   O15       1.0  0.89478  0.26699  0.40932  1.0000 -0.5701049165
O   O16       1.0  0.78577  0.15611  0.46394  1.0000 -0.5227505238
