# DDEC6 charges by PACMAN v1.1 (https://github.com/mtap-research/PACMAN-charge/)
data_2019[Zn][etf]3[FSR]5
_chemical_formula_sum              "Zn6 H30 C54 N30"
_cell_length_a       13.8501
_cell_length_b       13.8501
_cell_length_c       13.8501
_cell_angle_alpha    113.557
_cell_angle_beta     113.557
_cell_angle_gamma    113.557

_symmetry_space_group_name_H-M    "P 1"
_symmetry_Int_Tables_number       1

loop_
  _symmetry_equiv_pos_as_xyz
  'x, y, z'

loop_
  _atom_site_type_symbol
  _atom_site_label
  _atom_site_symmetry_multiplicity
  _atom_site_fract_x
  _atom_site_fract_y
  _atom_site_fract_z
  _atom_site_occupancy
  _atom_site_charge
Zn  Zn1       1.0  0.38181  0.63105  0.30081  1.0000 0.6359223222
Zn  Zn2       1.0  0.63105  0.30081  0.38181  1.0000 0.6359223222
Zn  Zn3       1.0  0.30081  0.38181  0.63105  1.0000 0.6359223222
Zn  Zn4       1.0  0.88181  0.80081  0.13105  1.0000 0.6359223222
Zn  Zn5       1.0  0.13105  0.88181  0.80081  1.0000 0.6359223222
Zn  Zn6       1.0  0.80081  0.13105  0.88181  1.0000 0.6359223222
H   H1        1.0  0.52848  0.03836  0.33158  1.0000 0.1213897264
H   H2        1.0  0.80800  0.43695  0.67940  1.0000 0.0998231169
H   H3        1.0  0.85291  0.38548  0.82196  1.0000 0.1394838786
H   H4        1.0  0.45093  0.58141  0.52989  1.0000 0.1105200222
H   H5        1.0  0.63469  0.78493  0.78505  1.0000 0.1105200222
H   H6        1.0  0.03836  0.33158  0.52848  1.0000 0.1213897264
H   H7        1.0  0.43695  0.67940  0.80800  1.0000 0.0998231169
H   H8        1.0  0.38548  0.82196  0.85291  1.0000 0.1394838786
H   H9        1.0  0.58141  0.52989  0.45093  1.0000 0.1105200222
H   H10       1.0  0.78493  0.78505  0.63469  1.0000 0.1105200222
H   H11       1.0  0.33158  0.52848  0.03836  1.0000 0.1213897264
H   H12       1.0  0.67940  0.80800  0.43695  1.0000 0.0998231169
H   H13       1.0  0.82196  0.85291  0.38548  1.0000 0.1394838786
H   H14       1.0  0.52989  0.45093  0.58141  1.0000 0.1105200222
H   H15       1.0  0.78505  0.63469  0.78493  1.0000 0.1105200222
H   H16       1.0  0.02848  0.83158  0.53836  1.0000 0.1213897264
H   H17       1.0  0.30800  0.17940  0.93695  1.0000 0.0998231169
H   H18       1.0  0.35291  0.32196  0.88548  1.0000 0.1394838786
H   H19       1.0  0.95093  0.02989  0.08141  1.0000 0.1105200222
H   H20       1.0  0.13469  0.28505  0.28493  1.0000 0.1105200222
H   H21       1.0  0.53836  0.02848  0.83158  1.0000 0.1213897264
H   H22       1.0  0.93695  0.30800  0.17940  1.0000 0.0998231169
H   H23       1.0  0.88548  0.35291  0.32196  1.0000 0.1394838786
H   H24       1.0  0.08141  0.95093  0.02989  1.0000 0.1105200222
H   H25       1.0  0.28493  0.13469  0.28505  1.0000 0.1105200222
H   H26       1.0  0.83158  0.53836  0.02848  1.0000 0.1213897264
H   H27       1.0  0.17940  0.93695  0.30800  1.0000 0.0998231169
H   H28       1.0  0.32196  0.88548  0.35291  1.0000 0.1394838786
H   H29       1.0  0.02989  0.08141  0.95093  1.0000 0.1105200222
H   H30       1.0  0.28505  0.28493  0.13469  1.0000 0.1105200222
C   C1        1.0  0.59310  0.10670  0.42960  1.0000 -0.0193803292
C   C2        1.0  0.75920  0.34300  0.63740  1.0000 0.0226283938
C   C3        1.0  0.78780  0.31430  0.72420  1.0000 -0.2170331532
C   C4        1.0  0.71330  0.17220  0.65760  1.0000 0.1920432991
C   C5        1.0  0.61480  0.06680  0.50750  1.0000 0.0998231169
C   C6        1.0  0.61720  0.96560  0.58740  1.0000 0.2501361763
C   C7        1.0  0.59270  0.86520  0.60640  1.0000 0.2208695035
C   C8        1.0  0.50520  0.67580  0.57250  1.0000 -0.0566565858
C   C9        1.0  0.60780  0.78920  0.71470  1.0000 -0.0430563221
C   C10       1.0  0.10670  0.42960  0.59310  1.0000 -0.0193803292
C   C11       1.0  0.34300  0.63740  0.75920  1.0000 0.0226283938
C   C12       1.0  0.31430  0.72420  0.78780  1.0000 -0.2170331532
C   C13       1.0  0.17220  0.65760  0.71330  1.0000 0.1920432991
C   C14       1.0  0.06680  0.50750  0.61480  1.0000 0.0998231169
C   C15       1.0  0.96560  0.58740  0.61720  1.0000 0.2501361763
C   C16       1.0  0.86520  0.60640  0.59270  1.0000 0.2208695035
C   C17       1.0  0.67580  0.57250  0.50520  1.0000 -0.0566565858
C   C18       1.0  0.78920  0.71470  0.60780  1.0000 -0.0430563221
C   C19       1.0  0.42960  0.59310  0.10670  1.0000 -0.0193803292
C   C20       1.0  0.63740  0.75920  0.34300  1.0000 0.0226283938
C   C21       1.0  0.72420  0.78780  0.31430  1.0000 -0.2170331532
C   C22       1.0  0.65760  0.71330  0.17220  1.0000 0.1920432991
C   C23       1.0  0.50750  0.61480  0.06680  1.0000 0.0998231169
C   C24       1.0  0.58740  0.61720  0.96560  1.0000 0.2501361763
C   C25       1.0  0.60640  0.59270  0.86520  1.0000 0.2208695035
C   C26       1.0  0.57250  0.50520  0.67580  1.0000 -0.0566565858
C   C27       1.0  0.71470  0.60780  0.78920  1.0000 -0.0430563221
C   C28       1.0  0.09310  0.92960  0.60670  1.0000 -0.0193803292
C   C29       1.0  0.25920  0.13740  0.84300  1.0000 0.0226283938
C   C30       1.0  0.28780  0.22420  0.81430  1.0000 -0.2170331532
C   C31       1.0  0.21330  0.15760  0.67220  1.0000 0.1920432991
C   C32       1.0  0.11480  0.00750  0.56680  1.0000 0.0998231169
C   C33       1.0  0.11720  0.08740  0.46560  1.0000 0.2501361763
C   C34       1.0  0.09270  0.10640  0.36520  1.0000 0.2208695035
C   C35       1.0  0.00520  0.07250  0.17580  1.0000 -0.0566565858
C   C36       1.0  0.10780  0.21470  0.28920  1.0000 -0.0430563221
C   C37       1.0  0.60670  0.09310  0.92960  1.0000 -0.0193803292
C   C38       1.0  0.84300  0.25920  0.13740  1.0000 0.0226283938
C   C39       1.0  0.81430  0.28780  0.22420  1.0000 -0.2170331532
C   C40       1.0  0.67220  0.21330  0.15760  1.0000 0.1920432991
C   C41       1.0  0.56680  0.11480  0.00750  1.0000 0.0998231169
C   C42       1.0  0.46560  0.11720  0.08740  1.0000 0.2501361763
C   C43       1.0  0.36520  0.09270  0.10640  1.0000 0.2208695035
C   C44       1.0  0.17580  0.00520  0.07250  1.0000 -0.0566565858
C   C45       1.0  0.28920  0.10780  0.21470  1.0000 -0.0430563221
C   C46       1.0  0.92960  0.60670  0.09310  1.0000 -0.0193803292
C   C47       1.0  0.13740  0.84300  0.25920  1.0000 0.0226283938
C   C48       1.0  0.22420  0.81430  0.28780  1.0000 -0.2170331532
C   C49       1.0  0.15760  0.67220  0.21330  1.0000 0.1920432991
C   C50       1.0  0.00750  0.56680  0.11480  1.0000 0.0998231169
C   C51       1.0  0.08740  0.46560  0.11720  1.0000 0.2501361763
C   C52       1.0  0.10640  0.36520  0.09270  1.0000 0.2208695035
C   C53       1.0  0.07250  0.17580  0.00520  1.0000 -0.0566565858
C   C54       1.0  0.21470  0.28920  0.10780  1.0000 -0.0430563221
N   N1        1.0  0.66426  0.24307  0.49417  1.0000 -0.2267601395
N   N2        1.0  0.55443  0.93479  0.46558  1.0000 -0.4059400165
N   N3        1.0  0.71479  0.10637  0.70904  1.0000 -0.3962434534
N   N4        1.0  0.49606  0.72500  0.50334  1.0000 -0.3104984367
N   N5        1.0  0.66455  0.91048  0.73617  1.0000 -0.3275911415
N   N6        1.0  0.24307  0.49417  0.66426  1.0000 -0.2267601395
N   N7        1.0  0.93479  0.46558  0.55443  1.0000 -0.4059400165
N   N8        1.0  0.10637  0.70904  0.71479  1.0000 -0.3962434534
N   N9        1.0  0.72500  0.50334  0.49606  1.0000 -0.3104984367
N   N10       1.0  0.91048  0.73617  0.66455  1.0000 -0.3275911415
N   N11       1.0  0.49417  0.66426  0.24307  1.0000 -0.2267601395
N   N12       1.0  0.46558  0.55443  0.93479  1.0000 -0.4059400165
N   N13       1.0  0.70904  0.71479  0.10637  1.0000 -0.3962434534
N   N14       1.0  0.50334  0.49606  0.72500  1.0000 -0.3104984367
N   N15       1.0  0.73617  0.66455  0.91048  1.0000 -0.3275911415
N   N16       1.0  0.16426  0.99417  0.74307  1.0000 -0.2267601395
N   N17       1.0  0.05443  0.96558  0.43479  1.0000 -0.4059400165
N   N18       1.0  0.21479  0.20904  0.60637  1.0000 -0.3962434534
N   N19       1.0  0.99606  0.00334  0.22500  1.0000 -0.3104984367
N   N20       1.0  0.16455  0.23617  0.41048  1.0000 -0.3275911415
N   N21       1.0  0.74307  0.16426  0.99417  1.0000 -0.2267601395
N   N22       1.0  0.43479  0.05443  0.96558  1.0000 -0.4059400165
N   N23       1.0  0.60637  0.21479  0.20904  1.0000 -0.3962434534
N   N24       1.0  0.22500  0.99606  0.00334  1.0000 -0.3104984367
N   N25       1.0  0.41048  0.16455  0.23617  1.0000 -0.3275911415
N   N26       1.0  0.99417  0.74307  0.16426  1.0000 -0.2267601395
N   N27       1.0  0.96558  0.43479  0.05443  1.0000 -0.4059400165
N   N28       1.0  0.20904  0.60637  0.21479  1.0000 -0.3962434534
N   N29       1.0  0.00334  0.22500  0.99606  1.0000 -0.3104984367
N   N30       1.0  0.23617  0.41048  0.16455  1.0000 -0.3275911415
