# DDEC6 charges by PACMAN v1.1 (https://github.com/mtap-research/PACMAN-charge/)
data_2019[Cd][nan]3[FSR]10
_chemical_formula_sum              "Cd4 H40 C58 O20"
_cell_length_a       14.1846
_cell_length_b       14.1846
_cell_length_c       12.6987
_cell_angle_alpha    65.7983
_cell_angle_beta     114.202
_cell_angle_gamma    79.8821

_symmetry_space_group_name_H-M    "P 1"
_symmetry_Int_Tables_number       1

loop_
  _symmetry_equiv_pos_as_xyz
  'x, y, z'

loop_
  _atom_site_type_symbol
  _atom_site_label
  _atom_site_symmetry_multiplicity
  _atom_site_fract_x
  _atom_site_fract_y
  _atom_site_fract_z
  _atom_site_occupancy
  _atom_site_charge
Cd  Cd1       1.0  0.50000  0.00000  0.00000  1.0000 1.1110898314
Cd  Cd2       1.0  0.00000  0.50000  0.50000  1.0000 1.1110898314
Cd  Cd3       1.0  0.67491  0.67491  0.25000  1.0000 0.9861142694
Cd  Cd4       1.0  0.32509  0.32509  0.75000  1.0000 0.9861142694
H   H1        1.0  0.83520  0.07140  0.81520  1.0000 0.1163886918
H   H2        1.0  0.75170  0.01970  0.94160  1.0000 0.1163886918
H   H3        1.0  0.85550  0.70370  0.01360  1.0000 0.1132057517
H   H4        1.0  0.93940  0.75500  0.88860  1.0000 0.1163886918
H   H5        1.0  0.09810  0.79010  0.02350  1.0000 0.1132057517
H   H6        1.0  0.29510  0.72050  0.16020  1.0000 0.1256134308
H   H7        1.0  0.30050  0.93090  0.83340  1.0000 0.1163886918
H   H8        1.0  0.10440  0.00020  0.69630  1.0000 0.1132057517
H   H9        1.0  0.52700  0.98360  0.23670  1.0000 0.3887997179
H   H10       1.0  0.61680  0.87820  0.27930  1.0000 0.3731266915
H   H11       1.0  0.07140  0.83520  0.68480  1.0000 0.1163886918
H   H12       1.0  0.01970  0.75170  0.55840  1.0000 0.1163886918
H   H13       1.0  0.70370  0.85550  0.48640  1.0000 0.1132057517
H   H14       1.0  0.75500  0.93940  0.61140  1.0000 0.1163886918
H   H15       1.0  0.79010  0.09810  0.47650  1.0000 0.1132057517
H   H16       1.0  0.72050  0.29510  0.33980  1.0000 0.1256134308
H   H17       1.0  0.93090  0.30050  0.66667  1.0000 0.1163886918
H   H18       1.0  0.00020  0.10440  0.80370  1.0000 0.1132057517
H   H19       1.0  0.98360  0.52700  0.26330  1.0000 0.3887997179
H   H20       1.0  0.87820  0.61680  0.22070  1.0000 0.3731266915
H   H21       1.0  0.16480  0.92860  0.18480  1.0000 0.1163886918
H   H22       1.0  0.24830  0.98030  0.05840  1.0000 0.1163886918
H   H23       1.0  0.14450  0.29630  0.98640  1.0000 0.1132057517
H   H24       1.0  0.06060  0.24500  0.11140  1.0000 0.1163886918
H   H25       1.0  0.90190  0.20990  0.97650  1.0000 0.1132057517
H   H26       1.0  0.70490  0.27950  0.83980  1.0000 0.1256134308
H   H27       1.0  0.69950  0.06910  0.16660  1.0000 0.1163886918
H   H28       1.0  0.89560  0.99980  0.30370  1.0000 0.1132057517
H   H29       1.0  0.47300  0.01640  0.76330  1.0000 0.3887997179
H   H30       1.0  0.38320  0.12180  0.72070  1.0000 0.3731266915
H   H31       1.0  0.92860  0.16480  0.31520  1.0000 0.1163886918
H   H32       1.0  0.98030  0.24830  0.44160  1.0000 0.1163886918
H   H33       1.0  0.29630  0.14450  0.51360  1.0000 0.1132057517
H   H34       1.0  0.24500  0.06060  0.38860  1.0000 0.1163886918
H   H35       1.0  0.20990  0.90190  0.52350  1.0000 0.1132057517
H   H36       1.0  0.27950  0.70490  0.66020  1.0000 0.1256134308
H   H37       1.0  0.06910  0.69950  0.33340  1.0000 0.1163886918
H   H38       1.0  0.99980  0.89560  0.19630  1.0000 0.1132057517
H   H39       1.0  0.01640  0.47300  0.73670  1.0000 0.3887997179
H   H40       1.0  0.12180  0.38320  0.77930  1.0000 0.3731266915
C   C1        1.0  0.89512  0.91952  0.83600  1.0000 0.0698908477
C   C2        1.0  0.83927  0.99647  0.85470  1.0000 -0.1495280021
C   C3        1.0  0.78933  0.96573  0.93020  1.0000 -0.0937092544
C   C4        1.0  0.79377  0.85697  0.98880  1.0000 -0.0298885934
C   C5        1.0  0.85076  0.77876  0.97290  1.0000 -0.1220004444
C   C6        1.0  0.90054  0.80974  0.89800  1.0000 -0.1594975887
C   C7        1.0  0.73620  0.82600  0.06710  1.0000 0.5944292008
C   C8        1.0  0.08009  0.90189  0.84570  1.0000 0.0698908477
C   C9        1.0  0.13873  0.81893  0.98400  1.0000 -0.1594975887
C   C10       1.0  0.25634  0.77754  0.06580  1.0000 -0.0975135022
C   C11       1.0  0.31725  0.81905  0.01050  1.0000 -0.0298885934
C   C12       1.0  0.25964  0.90204  0.87230  1.0000 -0.0975135022
C   C13       1.0  0.14279  0.94319  0.79070  1.0000 -0.1495280021
C   C14       1.0  0.44330  0.77550  0.09930  1.0000 0.5773740469
C   C15       1.0  0.91952  0.89512  0.66400  1.0000 0.0698908477
C   C16       1.0  0.99647  0.83927  0.64530  1.0000 -0.1495280021
C   C17       1.0  0.96573  0.78933  0.56980  1.0000 -0.0937092544
C   C18       1.0  0.85697  0.79377  0.51120  1.0000 -0.0298885934
C   C19       1.0  0.77876  0.85076  0.52710  1.0000 -0.1220004444
C   C20       1.0  0.80974  0.90054  0.60200  1.0000 -0.1594975887
C   C21       1.0  0.82600  0.73620  0.43290  1.0000 0.5944292008
C   C22       1.0  0.90189  0.08009  0.65430  1.0000 0.0698908477
C   C23       1.0  0.81893  0.13873  0.51600  1.0000 -0.1594975887
C   C24       1.0  0.77754  0.25634  0.43420  1.0000 -0.0975135022
C   C25       1.0  0.81905  0.31725  0.48950  1.0000 -0.0298885934
C   C26       1.0  0.90204  0.25964  0.62770  1.0000 -0.0975135022
C   C27       1.0  0.94319  0.14279  0.70930  1.0000 -0.1495280021
C   C28       1.0  0.77550  0.44330  0.40070  1.0000 0.5773740469
C   C29       1.0  0.10488  0.08048  0.16400  1.0000 0.0698908477
C   C30       1.0  0.16073  0.00353  0.14530  1.0000 -0.1495280021
C   C31       1.0  0.21067  0.03427  0.06980  1.0000 -0.0937092544
C   C32       1.0  0.20623  0.14303  0.01120  1.0000 -0.0298885934
C   C33       1.0  0.14924  0.22124  0.02710  1.0000 -0.1220004444
C   C34       1.0  0.09946  0.19026  0.10200  1.0000 -0.1594975887
C   C35       1.0  0.26380  0.17400  0.93290  1.0000 0.5944292008
C   C36       1.0  0.91991  0.09811  0.15430  1.0000 0.0698908477
C   C37       1.0  0.86127  0.18107  0.01600  1.0000 -0.1594975887
C   C38       1.0  0.74366  0.22246  0.93420  1.0000 -0.0975135022
C   C39       1.0  0.68275  0.18095  0.98950  1.0000 -0.0298885934
C   C40       1.0  0.74036  0.09796  0.12770  1.0000 -0.0975135022
C   C41       1.0  0.85721  0.05681  0.20930  1.0000 -0.1495280021
C   C42       1.0  0.55670  0.22450  0.90070  1.0000 0.5773740469
C   C43       1.0  0.08048  0.10488  0.33600  1.0000 0.0698908477
C   C44       1.0  0.00353  0.16073  0.35470  1.0000 -0.1495280021
C   C45       1.0  0.03427  0.21067  0.43020  1.0000 -0.0937092544
C   C46       1.0  0.14303  0.20623  0.48880  1.0000 -0.0298885934
C   C47       1.0  0.22124  0.14924  0.47290  1.0000 -0.1220004444
C   C48       1.0  0.19026  0.09946  0.39800  1.0000 -0.1594975887
C   C49       1.0  0.17400  0.26380  0.56710  1.0000 0.5944292008
C   C50       1.0  0.09811  0.91991  0.34570  1.0000 0.0698908477
C   C51       1.0  0.18107  0.86127  0.48400  1.0000 -0.1594975887
C   C52       1.0  0.22246  0.74366  0.56580  1.0000 -0.0975135022
C   C53       1.0  0.18095  0.68275  0.51050  1.0000 -0.0298885934
C   C54       1.0  0.09796  0.74036  0.37230  1.0000 -0.0975135022
C   C55       1.0  0.05681  0.85721  0.29070  1.0000 -0.1495280021
C   C56       1.0  0.22450  0.55670  0.59930  1.0000 0.5773740469
C   C57       1.0  0.94930  0.94930  0.75000  1.0000 -0.0129207901
C   C58       1.0  0.05070  0.05070  0.25000  1.0000 -0.0129207901
O   O1        1.0  0.54490  0.95070  0.20940  1.0000 -0.6891341151
O   O2        1.0  0.74652  0.72352  0.12050  1.0000 -0.5595768632
O   O3        1.0  0.68315  0.89981  0.07550  1.0000 -0.584776038
O   O4        1.0  0.49620  0.69020  0.21870  1.0000 -0.5084040255
O   O5        1.0  0.49523  0.82523  0.05130  1.0000 -0.6159823478
O   O6        1.0  0.95070  0.54490  0.29060  1.0000 -0.6891341151
O   O7        1.0  0.72352  0.74652  0.37950  1.0000 -0.5595768632
O   O8        1.0  0.89981  0.68315  0.42450  1.0000 -0.584776038
O   O9        1.0  0.69020  0.49620  0.28130  1.0000 -0.5084040255
O   O10       1.0  0.82523  0.49523  0.44870  1.0000 -0.6159823478
O   O11       1.0  0.45510  0.04930  0.79060  1.0000 -0.6891341151
O   O12       1.0  0.25348  0.27648  0.87950  1.0000 -0.5595768632
O   O13       1.0  0.31685  0.10019  0.92450  1.0000 -0.584776038
O   O14       1.0  0.50380  0.30980  0.78130  1.0000 -0.5084040255
O   O15       1.0  0.50477  0.17477  0.94870  1.0000 -0.6159823478
O   O16       1.0  0.04930  0.45510  0.70940  1.0000 -0.6891341151
O   O17       1.0  0.27648  0.25348  0.62050  1.0000 -0.5595768632
O   O18       1.0  0.10019  0.31685  0.57550  1.0000 -0.584776038
O   O19       1.0  0.30980  0.50380  0.71870  1.0000 -0.5084040255
O   O20       1.0  0.17477  0.50477  0.55130  1.0000 -0.6159823478
