# DDEC6 charges by PACMAN v1.1 (https://github.com/mtap-research/PACMAN-charge/)
data_2019[Eu][nan]3[FSR]2
_chemical_formula_sum              "Eu16 H116 C92 S12 O120"
_cell_length_a       13.4515
_cell_length_b       13.4515
_cell_length_c       30.071
_cell_angle_alpha    72.8719
_cell_angle_beta     107.128
_cell_angle_gamma    119.943

_symmetry_space_group_name_H-M    "P 1"
_symmetry_Int_Tables_number       1

loop_
  _symmetry_equiv_pos_as_xyz
  'x, y, z'

loop_
  _atom_site_type_symbol
  _atom_site_label
  _atom_site_symmetry_multiplicity
  _atom_site_fract_x
  _atom_site_fract_y
  _atom_site_fract_z
  _atom_site_occupancy
  _atom_site_charge
Eu  Eu1       1.0  0.47991  0.00069  0.65177  1.0000 2.1297115361
Eu  Eu2       1.0  0.49769  0.71939  0.65843  1.0000 2.210372356
Eu  Eu3       1.0  0.20681  0.71487  0.66025  1.0000 2.2373577034
Eu  Eu4       1.0  0.33431  0.83839  0.54364  1.0000 2.215820757
Eu  Eu5       1.0  0.00069  0.47991  0.84823  1.0000 2.1297115361
Eu  Eu6       1.0  0.71939  0.49769  0.84157  1.0000 2.210372356
Eu  Eu7       1.0  0.71487  0.20681  0.83975  1.0000 2.2373577034
Eu  Eu8       1.0  0.83839  0.33431  0.95636  1.0000 2.215820757
Eu  Eu9       1.0  0.52009  0.99931  0.34823  1.0000 2.1297115361
Eu  Eu10      1.0  0.50231  0.28061  0.34157  1.0000 2.210372356
Eu  Eu11      1.0  0.79319  0.28513  0.33975  1.0000 2.2373577034
Eu  Eu12      1.0  0.66569  0.16161  0.45636  1.0000 2.215820757
Eu  Eu13      1.0  0.99931  0.52009  0.15177  1.0000 2.1297115361
Eu  Eu14      1.0  0.28061  0.50231  0.15843  1.0000 2.210372356
Eu  Eu15      1.0  0.28513  0.79319  0.16025  1.0000 2.2373577034
Eu  Eu16      1.0  0.16161  0.66569  0.04364  1.0000 2.215820757
H   H1        1.0  0.56874  0.52510  0.71521  1.0000 0.3683991184
H   H2        1.0  0.60878  0.55946  0.67398  1.0000 0.342580763
H   H3        1.0  0.43382  0.63146  0.56803  1.0000 0.3923393239
H   H4        1.0  0.49897  0.57435  0.59956  1.0000 0.3923393239
H   H5        1.0  0.08117  0.65743  0.73722  1.0000 0.313419866
H   H6        1.0  0.06930  0.56116  0.73969  1.0000 0.313419866
H   H7        1.0  0.05140  0.83894  0.60795  1.0000 0.2929446374
H   H8        1.0  0.98330  0.73720  0.60853  1.0000 0.313419866
H   H9        1.0  0.16407  0.58125  0.53554  1.0000 0.3683991184
H   H10       1.0  0.17646  0.63746  0.49080  1.0000 0.3683991184
H   H11       1.0  0.15128  0.90650  0.51833  1.0000 0.4083250438
H   H12       1.0  0.08718  0.79614  0.50093  1.0000 0.4270743405
H   H13       1.0  0.31807  0.84299  0.44122  1.0000 0.3973979497
H   H14       1.0  0.27145  0.91411  0.44517  1.0000 0.3819796492
H   H15       1.0  0.57313  0.94151  0.59326  1.0000 0.3973979497
H   H16       1.0  0.26302  0.93818  0.59549  1.0000 0.3923393239
H   H17       1.0  0.27161  0.61153  0.60576  1.0000 0.3973979497
H   H18       1.0  0.41566  0.78554  0.72153  1.0000 0.3973979497
H   H19       1.0  0.73195  0.79043  0.80185  1.0000 0.1388740167
H   H20       1.0  0.02568  0.01312  0.87329  1.0000 0.1302879036
H   H21       1.0  0.03457  0.16171  0.80984  1.0000 0.1200566913
H   H22       1.0  0.88455  0.07093  0.68161  1.0000 0.1200566913
H   H23       1.0  0.93197  0.21657  0.61673  1.0000 0.1302879036
H   H24       1.0  0.97857  0.44393  0.69186  1.0000 0.1388740167
H   H25       1.0  0.24137  0.48529  0.80856  1.0000 0.1519121801
H   H26       1.0  0.27955  0.19865  0.88091  1.0000 0.1388740167
H   H27       1.0  0.31598  0.18096  0.81407  1.0000 0.1200566913
H   H28       1.0  0.71349  0.30797  0.62116  1.0000 0.1068900724
H   H29       1.0  0.41895  0.18379  0.50618  1.0000 0.094096144
H   H30       1.0  0.52510  0.56874  0.78479  1.0000 0.3683991184
H   H31       1.0  0.55946  0.60878  0.82602  1.0000 0.342580763
H   H32       1.0  0.63146  0.43382  0.93197  1.0000 0.3923393239
H   H33       1.0  0.57435  0.49897  0.90044  1.0000 0.3923393239
H   H34       1.0  0.65743  0.08117  0.76278  1.0000 0.313419866
H   H35       1.0  0.56116  0.06930  0.76031  1.0000 0.313419866
H   H36       1.0  0.83894  0.05140  0.89205  1.0000 0.2929446374
H   H37       1.0  0.73720  0.98330  0.89147  1.0000 0.313419866
H   H38       1.0  0.58125  0.16407  0.96446  1.0000 0.3683991184
H   H39       1.0  0.63746  0.17646  0.00920  1.0000 0.3683991184
H   H40       1.0  0.90650  0.15128  0.98167  1.0000 0.4083250438
H   H41       1.0  0.79614  0.08718  0.99907  1.0000 0.4270743405
H   H42       1.0  0.84299  0.31807  0.05878  1.0000 0.3973979497
H   H43       1.0  0.91411  0.27145  0.05483  1.0000 0.3819796492
H   H44       1.0  0.94151  0.57313  0.90674  1.0000 0.3973979497
H   H45       1.0  0.93818  0.26302  0.90451  1.0000 0.3923393239
H   H46       1.0  0.61153  0.27161  0.89424  1.0000 0.3973979497
H   H47       1.0  0.78554  0.41566  0.77847  1.0000 0.3973979497
H   H48       1.0  0.79043  0.73195  0.69815  1.0000 0.1388740167
H   H49       1.0  0.01312  0.02568  0.62671  1.0000 0.1302879036
H   H50       1.0  0.16171  0.03457  0.69016  1.0000 0.1200566913
H   H51       1.0  0.07093  0.88455  0.81839  1.0000 0.1200566913
H   H52       1.0  0.21657  0.93197  0.88327  1.0000 0.1302879036
H   H53       1.0  0.44393  0.97857  0.80814  1.0000 0.1388740167
H   H54       1.0  0.48529  0.24137  0.69144  1.0000 0.1519121801
H   H55       1.0  0.19865  0.27955  0.61909  1.0000 0.1388740167
H   H56       1.0  0.18096  0.31598  0.68593  1.0000 0.1200566913
H   H57       1.0  0.30797  0.71349  0.87884  1.0000 0.1068900724
H   H58       1.0  0.18379  0.41895  0.99382  1.0000 0.094096144
H   H59       1.0  0.43126  0.47490  0.28479  1.0000 0.3683991184
H   H60       1.0  0.39122  0.44054  0.32602  1.0000 0.342580763
H   H61       1.0  0.56618  0.36854  0.43197  1.0000 0.3923393239
H   H62       1.0  0.50103  0.42565  0.40044  1.0000 0.3923393239
H   H63       1.0  0.91883  0.34257  0.26278  1.0000 0.313419866
H   H64       1.0  0.93070  0.43884  0.26031  1.0000 0.313419866
H   H65       1.0  0.94860  0.16106  0.39205  1.0000 0.2929446374
H   H66       1.0  0.01670  0.26280  0.39147  1.0000 0.313419866
H   H67       1.0  0.83593  0.41875  0.46446  1.0000 0.3683991184
H   H68       1.0  0.82354  0.36254  0.50920  1.0000 0.3683991184
H   H69       1.0  0.84872  0.09350  0.48167  1.0000 0.4083250438
H   H70       1.0  0.91282  0.20386  0.49907  1.0000 0.4270743405
H   H71       1.0  0.68193  0.15701  0.55878  1.0000 0.3973979497
H   H72       1.0  0.72855  0.08589  0.55483  1.0000 0.3819796492
H   H73       1.0  0.42687  0.05849  0.40674  1.0000 0.3973979497
H   H74       1.0  0.73698  0.06182  0.40451  1.0000 0.3923393239
H   H75       1.0  0.72839  0.38847  0.39424  1.0000 0.3973979497
H   H76       1.0  0.58434  0.21446  0.27847  1.0000 0.3973979497
H   H77       1.0  0.26805  0.20957  0.19815  1.0000 0.1388740167
H   H78       1.0  0.97432  0.98688  0.12671  1.0000 0.1302879036
H   H79       1.0  0.96543  0.83829  0.19016  1.0000 0.1200566913
H   H80       1.0  0.11545  0.92907  0.31839  1.0000 0.1200566913
H   H81       1.0  0.06803  0.78343  0.38327  1.0000 0.1302879036
H   H82       1.0  0.02143  0.55607  0.30814  1.0000 0.1388740167
H   H83       1.0  0.75863  0.51471  0.19144  1.0000 0.1519121801
H   H84       1.0  0.72045  0.80135  0.11909  1.0000 0.1388740167
H   H85       1.0  0.68402  0.81904  0.18593  1.0000 0.1200566913
H   H86       1.0  0.28651  0.69203  0.37884  1.0000 0.1068900724
H   H87       1.0  0.58105  0.81621  0.49382  1.0000 0.094096144
H   H88       1.0  0.47490  0.43126  0.21521  1.0000 0.3683991184
H   H89       1.0  0.44054  0.39122  0.17398  1.0000 0.342580763
H   H90       1.0  0.36854  0.56618  0.06803  1.0000 0.3923393239
H   H91       1.0  0.42565  0.50103  0.09956  1.0000 0.3923393239
H   H92       1.0  0.34257  0.91883  0.23722  1.0000 0.313419866
H   H93       1.0  0.43884  0.93070  0.23969  1.0000 0.313419866
H   H94       1.0  0.16106  0.94860  0.10795  1.0000 0.2929446374
H   H95       1.0  0.26280  0.01670  0.10853  1.0000 0.313419866
H   H96       1.0  0.41875  0.83593  0.03554  1.0000 0.3683991184
H   H97       1.0  0.36254  0.82354  0.99080  1.0000 0.3683991184
H   H98       1.0  0.09350  0.84872  0.01833  1.0000 0.4083250438
H   H99       1.0  0.20386  0.91282  0.00093  1.0000 0.4270743405
H   H100      1.0  0.15701  0.68193  0.94122  1.0000 0.3973979497
H   H101      1.0  0.08589  0.72855  0.94517  1.0000 0.3819796492
H   H102      1.0  0.05849  0.42687  0.09326  1.0000 0.3973979497
H   H103      1.0  0.06182  0.73698  0.09549  1.0000 0.3923393239
H   H104      1.0  0.38847  0.72839  0.10576  1.0000 0.3973979497
H   H105      1.0  0.21446  0.58434  0.22153  1.0000 0.3973979497
H   H106      1.0  0.20957  0.26805  0.30185  1.0000 0.1388740167
H   H107      1.0  0.98688  0.97432  0.37329  1.0000 0.1302879036
H   H108      1.0  0.83829  0.96543  0.30984  1.0000 0.1200566913
H   H109      1.0  0.92907  0.11545  0.18161  1.0000 0.1200566913
H   H110      1.0  0.78343  0.06803  0.11673  1.0000 0.1302879036
H   H111      1.0  0.55607  0.02143  0.19186  1.0000 0.1388740167
H   H112      1.0  0.51471  0.75863  0.30856  1.0000 0.1519121801
H   H113      1.0  0.80135  0.72045  0.38091  1.0000 0.1388740167
H   H114      1.0  0.81904  0.68402  0.31407  1.0000 0.1200566913
H   H115      1.0  0.69203  0.28651  0.12116  1.0000 0.1068900724
H   H116      1.0  0.81621  0.58105  0.00618  1.0000 0.094096144
C   C1        1.0  0.69120  0.92700  0.72522  1.0000 0.6405916636
C   C2        1.0  0.79370  0.95670  0.76580  1.0000 -0.058878727
C   C3        1.0  0.79150  0.86570  0.80354  1.0000 -0.1010894773
C   C4        1.0  0.87730  0.88690  0.84323  1.0000 -0.0892640871
C   C5        1.0  0.96860  0.99880  0.84624  1.0000 -0.1109282562
C   C6        1.0  0.97250  0.08770  0.80847  1.0000 -0.1109282562
C   C7        1.0  0.88550  0.06930  0.76799  1.0000 0.0667578293
C   C8        1.0  0.90380  0.16680  0.72665  1.0000 0.0667578293
C   C9        1.0  0.90410  0.14630  0.68383  1.0000 -0.1109282562
C   C10       1.0  0.93210  0.23270  0.64477  1.0000 -0.1010894773
C   C11       1.0  0.96070  0.34490  0.64840  1.0000 -0.1010894773
C   C12       1.0  0.95990  0.36850  0.69019  1.0000 -0.1109282562
C   C13       1.0  0.93170  0.28070  0.72973  1.0000 -0.058878727
C   C14       1.0  0.92920  0.31340  0.77305  1.0000 0.6320283686
C   C15       1.0  0.30470  0.51690  0.72910  1.0000 0.6405916636
C   C16       1.0  0.28490  0.41790  0.77037  1.0000 -0.0716306685
C   C17       1.0  0.25750  0.42490  0.80955  1.0000 -0.1010894773
C   C18       1.0  0.25370  0.34230  0.85074  1.0000 -0.058878727
C   C19       1.0  0.27880  0.25200  0.85303  1.0000 -0.0892640871
C   C20       1.0  0.30250  0.24310  0.81314  1.0000 -0.1207317176
C   C21       1.0  0.30700  0.32420  0.77166  1.0000 0.0556704116
C   C22       1.0  0.65740  0.23280  0.63050  1.0000 0.4825540085
C   C23       1.0  0.45350  0.14330  0.50165  1.0000 0.5946823929
C   C24       1.0  0.92700  0.69120  0.77478  1.0000 0.6405916636
C   C25       1.0  0.95670  0.79370  0.73420  1.0000 -0.058878727
C   C26       1.0  0.86570  0.79150  0.69646  1.0000 -0.1010894773
C   C27       1.0  0.88690  0.87730  0.65677  1.0000 -0.0892640871
C   C28       1.0  0.99880  0.96860  0.65376  1.0000 -0.1109282562
C   C29       1.0  0.08770  0.97250  0.69153  1.0000 -0.1109282562
C   C30       1.0  0.06930  0.88550  0.73201  1.0000 0.0667578293
C   C31       1.0  0.16680  0.90380  0.77335  1.0000 0.0667578293
C   C32       1.0  0.14630  0.90410  0.81617  1.0000 -0.1109282562
C   C33       1.0  0.23270  0.93210  0.85523  1.0000 -0.1010894773
C   C34       1.0  0.34490  0.96070  0.85160  1.0000 -0.1010894773
C   C35       1.0  0.36850  0.95990  0.80981  1.0000 -0.1109282562
C   C36       1.0  0.28070  0.93170  0.77027  1.0000 -0.058878727
C   C37       1.0  0.31340  0.92920  0.72695  1.0000 0.6320283686
C   C38       1.0  0.51690  0.30470  0.77090  1.0000 0.6405916636
C   C39       1.0  0.41790  0.28490  0.72963  1.0000 -0.0716306685
C   C40       1.0  0.42490  0.25750  0.69045  1.0000 -0.1010894773
C   C41       1.0  0.34230  0.25370  0.64926  1.0000 -0.058878727
C   C42       1.0  0.25200  0.27880  0.64697  1.0000 -0.0892640871
C   C43       1.0  0.24310  0.30250  0.68686  1.0000 -0.1207317176
C   C44       1.0  0.32420  0.30700  0.72834  1.0000 0.0556704116
C   C45       1.0  0.23280  0.65740  0.86950  1.0000 0.4825540085
C   C46       1.0  0.14330  0.45350  0.99835  1.0000 0.5946823929
C   C47       1.0  0.30880  0.07300  0.27478  1.0000 0.6405916636
C   C48       1.0  0.20630  0.04330  0.23420  1.0000 -0.058878727
C   C49       1.0  0.20850  0.13430  0.19646  1.0000 -0.1010894773
C   C50       1.0  0.12270  0.11310  0.15677  1.0000 -0.0892640871
C   C51       1.0  0.03140  0.00120  0.15376  1.0000 -0.1109282562
C   C52       1.0  0.02750  0.91230  0.19153  1.0000 -0.1109282562
C   C53       1.0  0.11450  0.93070  0.23201  1.0000 0.0667578293
C   C54       1.0  0.09620  0.83320  0.27335  1.0000 0.0667578293
C   C55       1.0  0.09590  0.85370  0.31617  1.0000 -0.1109282562
C   C56       1.0  0.06790  0.76730  0.35523  1.0000 -0.1010894773
C   C57       1.0  0.03930  0.65510  0.35160  1.0000 -0.1010894773
C   C58       1.0  0.04010  0.63150  0.30981  1.0000 -0.1109282562
C   C59       1.0  0.06830  0.71930  0.27027  1.0000 -0.058878727
C   C60       1.0  0.07080  0.68660  0.22695  1.0000 0.6320283686
C   C61       1.0  0.69530  0.48310  0.27090  1.0000 0.6405916636
C   C62       1.0  0.71510  0.58210  0.22963  1.0000 -0.0716306685
C   C63       1.0  0.74250  0.57510  0.19045  1.0000 -0.1010894773
C   C64       1.0  0.74630  0.65770  0.14926  1.0000 -0.058878727
C   C65       1.0  0.72120  0.74800  0.14697  1.0000 -0.0892640871
C   C66       1.0  0.69750  0.75690  0.18686  1.0000 -0.1207317176
C   C67       1.0  0.69300  0.67580  0.22834  1.0000 0.0556704116
C   C68       1.0  0.34260  0.76720  0.36950  1.0000 0.4825540085
C   C69       1.0  0.54650  0.85670  0.49835  1.0000 0.5946823929
C   C70       1.0  0.07300  0.30880  0.22522  1.0000 0.6405916636
C   C71       1.0  0.04330  0.20630  0.26580  1.0000 -0.058878727
C   C72       1.0  0.13430  0.20850  0.30354  1.0000 -0.1010894773
C   C73       1.0  0.11310  0.12270  0.34323  1.0000 -0.0892640871
C   C74       1.0  0.00120  0.03140  0.34624  1.0000 -0.1109282562
C   C75       1.0  0.91230  0.02750  0.30847  1.0000 -0.1109282562
C   C76       1.0  0.93070  0.11450  0.26799  1.0000 0.0667578293
C   C77       1.0  0.83320  0.09620  0.22665  1.0000 0.0667578293
C   C78       1.0  0.85370  0.09590  0.18383  1.0000 -0.1109282562
C   C79       1.0  0.76730  0.06790  0.14477  1.0000 -0.1010894773
C   C80       1.0  0.65510  0.03930  0.14840  1.0000 -0.1010894773
C   C81       1.0  0.63150  0.04010  0.19019  1.0000 -0.1109282562
C   C82       1.0  0.71930  0.06830  0.22973  1.0000 -0.058878727
C   C83       1.0  0.68660  0.07080  0.27305  1.0000 0.6320283686
C   C84       1.0  0.48310  0.69530  0.22910  1.0000 0.6405916636
C   C85       1.0  0.58210  0.71510  0.27037  1.0000 -0.0716306685
C   C86       1.0  0.57510  0.74250  0.30955  1.0000 -0.1010894773
C   C87       1.0  0.65770  0.74630  0.35074  1.0000 -0.058878727
C   C88       1.0  0.74800  0.72120  0.35303  1.0000 -0.0892640871
C   C89       1.0  0.75690  0.69750  0.31314  1.0000 -0.1207317176
C   C90       1.0  0.67580  0.69300  0.27166  1.0000 0.0556704116
C   C91       1.0  0.76720  0.34260  0.13050  1.0000 0.4825540085
C   C92       1.0  0.85670  0.54650  0.00165  1.0000 0.5946823929
S   S1        1.0  0.87561  0.77281  0.89177  1.0000 1.21072605
S   S2        1.0  0.99984  0.45920  0.59970  1.0000 1.2018485044
S   S3        1.0  0.22120  0.35658  0.90102  1.0000 1.2018485044
S   S4        1.0  0.77281  0.87561  0.60823  1.0000 1.21072605
S   S5        1.0  0.45920  0.99984  0.90030  1.0000 1.2018485044
S   S6        1.0  0.35658  0.22120  0.59898  1.0000 1.2018485044
S   S7        1.0  0.12439  0.22719  0.10823  1.0000 1.21072605
S   S8        1.0  0.00016  0.54080  0.40030  1.0000 1.2018485044
S   S9        1.0  0.77880  0.64342  0.09898  1.0000 1.2018485044
S   S10       1.0  0.22719  0.12439  0.39177  1.0000 1.21072605
S   S11       1.0  0.54080  0.00016  0.09970  1.0000 1.2018485044
S   S12       1.0  0.64342  0.77880  0.40102  1.0000 1.2018485044
O   O1        1.0  0.78211  0.66489  0.87691  1.0000 -0.7276590193
O   O2        1.0  0.85610  0.79590  0.93075  1.0000 -0.5787172193
O   O3        1.0  0.98760  0.77400  0.89930  1.0000 -0.5902559186
O   O4        1.0  0.58414  0.58066  0.69116  1.0000 -0.7682568754
O   O5        1.0  0.89440  0.43980  0.56511  1.0000 -0.5787172193
O   O6        1.0  0.44188  0.59672  0.59708  1.0000 -0.7806002523
O   O7        1.0  0.08850  0.45350  0.58368  1.0000 -0.5902559186
O   O8        1.0  0.09002  0.62838  0.72158  1.0000 -0.739573213
O   O9        1.0  0.04671  0.56689  0.61720  1.0000 -0.7276590193
O   O10       1.0  0.05234  0.77446  0.62353  1.0000 -0.7567729379
O   O11       1.0  0.64993  0.99867  0.70751  1.0000 -0.6392100081
O   O12       1.0  0.20420  0.64780  0.51964  1.0000 -0.8150517668
O   O13       1.0  0.65277  0.83163  0.71252  1.0000 -0.6599313691
O   O14       1.0  0.14770  0.84090  0.51817  1.0000 -0.7957986767
O   O15       1.0  0.99738  0.41662  0.78042  1.0000 -0.6392100081
O   O16       1.0  0.28766  0.85654  0.45882  1.0000 -0.8150517668
O   O17       1.0  0.85920  0.23780  0.79946  1.0000 -0.6599313691
O   O18       1.0  0.32020  0.45900  0.91812  1.0000 -0.6066082443
O   O19       1.0  0.20448  0.25152  0.93493  1.0000 -0.5996958936
O   O20       1.0  0.11706  0.37374  0.88413  1.0000 -0.7226361658
O   O21       1.0  0.22542  0.54578  0.70929  1.0000 -0.6392100081
O   O22       1.0  0.40425  0.56655  0.71836  1.0000 -0.6735280479
O   O23       1.0  0.61961  0.15879  0.60468  1.0000 -0.5996958936
O   O24       1.0  0.62289  0.21011  0.66817  1.0000 -0.5648697342
O   O25       1.0  0.53103  0.19977  0.47698  1.0000 -0.6516278561
O   O26       1.0  0.41723  0.04017  0.52074  1.0000 -0.6599313691
O   O27       1.0  0.50702  0.89638  0.60717  1.0000 -1.1415270294
O   O28       1.0  0.29783  0.88857  0.60607  1.0000 -1.1623614753
O   O29       1.0  0.30525  0.68555  0.61311  1.0000 -1.1767270292
O   O30       1.0  0.41070  0.79970  0.68894  1.0000 -1.1863354171
O   O31       1.0  0.66489  0.78211  0.62309  1.0000 -0.7276590193
O   O32       1.0  0.79590  0.85610  0.56925  1.0000 -0.5787172193
O   O33       1.0  0.77400  0.98760  0.60070  1.0000 -0.5902559186
O   O34       1.0  0.58066  0.58414  0.80884  1.0000 -0.7682568754
O   O35       1.0  0.43980  0.89440  0.93489  1.0000 -0.5787172193
O   O36       1.0  0.59672  0.44188  0.90292  1.0000 -0.7806002523
O   O37       1.0  0.45350  0.08850  0.91632  1.0000 -0.5902559186
O   O38       1.0  0.62838  0.09002  0.77842  1.0000 -0.739573213
O   O39       1.0  0.56689  0.04671  0.88280  1.0000 -0.7276590193
O   O40       1.0  0.77446  0.05234  0.87647  1.0000 -0.7567729379
O   O41       1.0  0.99867  0.64993  0.79249  1.0000 -0.6392100081
O   O42       1.0  0.64780  0.20420  0.98036  1.0000 -0.814157101
O   O43       1.0  0.83163  0.65277  0.78748  1.0000 -0.6599313691
O   O44       1.0  0.84090  0.14770  0.98183  1.0000 -0.7957986767
O   O45       1.0  0.41662  0.99738  0.71958  1.0000 -0.6392100081
O   O46       1.0  0.85654  0.28766  0.04118  1.0000 -0.8150517668
O   O47       1.0  0.23780  0.85920  0.70054  1.0000 -0.6599313691
O   O48       1.0  0.45900  0.32020  0.58188  1.0000 -0.6066082443
O   O49       1.0  0.25152  0.20448  0.56507  1.0000 -0.5996958936
O   O50       1.0  0.37374  0.11706  0.61587  1.0000 -0.7226361658
O   O51       1.0  0.54578  0.22542  0.79071  1.0000 -0.6392100081
O   O52       1.0  0.56655  0.40425  0.78164  1.0000 -0.6735280479
O   O53       1.0  0.15879  0.61961  0.89532  1.0000 -0.5996958936
O   O54       1.0  0.21011  0.62289  0.83183  1.0000 -0.5648697342
O   O55       1.0  0.19977  0.53103  0.02302  1.0000 -0.6516278561
O   O56       1.0  0.04017  0.41723  0.97926  1.0000 -0.6599313691
O   O57       1.0  0.89638  0.50702  0.89283  1.0000 -1.1415270294
O   O58       1.0  0.88857  0.29783  0.89393  1.0000 -1.1623614753
O   O59       1.0  0.68555  0.30525  0.88689  1.0000 -1.1767270292
O   O60       1.0  0.79970  0.41070  0.81106  1.0000 -1.1863354171
O   O61       1.0  0.21789  0.33511  0.12309  1.0000 -0.7276590193
O   O62       1.0  0.14390  0.20410  0.06925  1.0000 -0.5787172193
O   O63       1.0  0.01240  0.22600  0.10070  1.0000 -0.5902559186
O   O64       1.0  0.41586  0.41934  0.30884  1.0000 -0.7682568754
O   O65       1.0  0.10560  0.56020  0.43489  1.0000 -0.5787172193
O   O66       1.0  0.55812  0.40328  0.40292  1.0000 -0.7806002523
O   O67       1.0  0.91150  0.54650  0.41632  1.0000 -0.5902559186
O   O68       1.0  0.90998  0.37162  0.27842  1.0000 -0.739573213
O   O69       1.0  0.95329  0.43311  0.38280  1.0000 -0.7276590193
O   O70       1.0  0.94766  0.22554  0.37647  1.0000 -0.7567729379
O   O71       1.0  0.35007  0.00133  0.29249  1.0000 -0.6392100081
O   O72       1.0  0.79580  0.35220  0.48036  1.0000 -0.8150517668
O   O73       1.0  0.34723  0.16837  0.28748  1.0000 -0.6599313691
O   O74       1.0  0.85230  0.15910  0.48183  1.0000 -0.7957986767
O   O75       1.0  0.00262  0.58338  0.21958  1.0000 -0.6392100081
O   O76       1.0  0.71234  0.14346  0.54118  1.0000 -0.8150517668
O   O77       1.0  0.14080  0.76220  0.20054  1.0000 -0.6599313691
O   O78       1.0  0.67980  0.54100  0.08188  1.0000 -0.6066082443
O   O79       1.0  0.79552  0.74848  0.06507  1.0000 -0.5996958936
O   O80       1.0  0.88294  0.62626  0.11587  1.0000 -0.7226361658
O   O81       1.0  0.77458  0.45422  0.29071  1.0000 -0.6392100081
O   O82       1.0  0.59575  0.43345  0.28164  1.0000 -0.6735280479
O   O83       1.0  0.38039  0.84121  0.39532  1.0000 -0.5996958936
O   O84       1.0  0.37711  0.78989  0.33183  1.0000 -0.5648697342
O   O85       1.0  0.46897  0.80023  0.52302  1.0000 -0.6516278561
O   O86       1.0  0.58277  0.95983  0.47926  1.0000 -0.6599313691
O   O87       1.0  0.49298  0.10362  0.39283  1.0000 -1.1415270294
O   O88       1.0  0.70217  0.11143  0.39393  1.0000 -1.1623614753
O   O89       1.0  0.69475  0.31445  0.38689  1.0000 -1.1767270292
O   O90       1.0  0.58930  0.20030  0.31106  1.0000 -1.1863354171
O   O91       1.0  0.33511  0.21789  0.37691  1.0000 -0.7276590193
O   O92       1.0  0.20410  0.14390  0.43075  1.0000 -0.5787172193
O   O93       1.0  0.22600  0.01240  0.39930  1.0000 -0.5902559186
O   O94       1.0  0.41934  0.41586  0.19116  1.0000 -0.7682568754
O   O95       1.0  0.56020  0.10560  0.06511  1.0000 -0.5787172193
O   O96       1.0  0.40328  0.55812  0.09708  1.0000 -0.7806002523
O   O97       1.0  0.54650  0.91150  0.08368  1.0000 -0.5902559186
O   O98       1.0  0.37162  0.90998  0.22158  1.0000 -0.739573213
O   O99       1.0  0.43311  0.95329  0.11720  1.0000 -0.7276590193
O   O100      1.0  0.22554  0.94766  0.12353  1.0000 -0.7567729379
O   O101      1.0  0.00133  0.35007  0.20751  1.0000 -0.6392100081
O   O102      1.0  0.35220  0.79580  0.01964  1.0000 -0.814157101
O   O103      1.0  0.16837  0.34723  0.21252  1.0000 -0.6599313691
O   O104      1.0  0.15910  0.85230  0.01817  1.0000 -0.7957986767
O   O105      1.0  0.58338  0.00262  0.28042  1.0000 -0.6392100081
O   O106      1.0  0.14346  0.71234  0.95882  1.0000 -0.8150517668
O   O107      1.0  0.76220  0.14080  0.29946  1.0000 -0.6599313691
O   O108      1.0  0.54100  0.67980  0.41812  1.0000 -0.6066082443
O   O109      1.0  0.74848  0.79552  0.43493  1.0000 -0.5996958936
O   O110      1.0  0.62626  0.88294  0.38413  1.0000 -0.7226361658
O   O111      1.0  0.45422  0.77458  0.20929  1.0000 -0.6392100081
O   O112      1.0  0.43345  0.59575  0.21836  1.0000 -0.6735280479
O   O113      1.0  0.84121  0.38039  0.10468  1.0000 -0.5996958936
O   O114      1.0  0.78989  0.37711  0.16817  1.0000 -0.5648697342
O   O115      1.0  0.80023  0.46897  0.97698  1.0000 -0.6516278561
O   O116      1.0  0.95983  0.58277  0.02074  1.0000 -0.6599313691
O   O117      1.0  0.10362  0.49298  0.10717  1.0000 -1.1415270294
O   O118      1.0  0.11143  0.70217  0.10607  1.0000 -1.1623614753
O   O119      1.0  0.31445  0.69475  0.11311  1.0000 -1.1767270292
O   O120      1.0  0.20030  0.58930  0.18894  1.0000 -1.1863354171
