# DDEC6 charges by PACMAN v1.1 (https://github.com/mtap-research/PACMAN-charge/)
data_2019[Cd][sql]2[FSR]11
_chemical_formula_sum              "Cd2 H38 C60 N10 O16"
_cell_length_a       10.2177
_cell_length_b       13.5465
_cell_length_c       13.6853
_cell_angle_alpha    73.534
_cell_angle_beta     85.278
_cell_angle_gamma    83.793

_symmetry_space_group_name_H-M    "P 1"
_symmetry_Int_Tables_number       1

loop_
  _symmetry_equiv_pos_as_xyz
  'x, y, z'

loop_
  _atom_site_type_symbol
  _atom_site_label
  _atom_site_symmetry_multiplicity
  _atom_site_fract_x
  _atom_site_fract_y
  _atom_site_fract_z
  _atom_site_occupancy
  _atom_site_charge
Cd  Cd1       1.0  0.37310  0.40056  0.99639  1.0000 0.866866367
Cd  Cd2       1.0  0.62690  0.59944  0.00361  1.0000 0.866866367
H   H1        1.0  0.89018  0.39578  0.00121  1.0000 0.1305191791
H   H2        1.0  0.55924  0.16129  0.36506  1.0000 0.2854828406
H   H3        1.0  0.11990  0.65074  0.58604  1.0000 0.2751843501
H   H4        1.0  0.70779  0.13510  0.06101  1.0000 0.1389669497
H   H5        1.0  0.10093  0.11921  0.07407  1.0000 0.1305191791
H   H6        1.0  0.50700  0.26585  0.20465  1.0000 0.1205980331
H   H7        1.0  0.23005  0.57429  0.82291  1.0000 0.1205980331
H   H8        1.0  0.50688  0.36632  0.78369  1.0000 0.1205980331
H   H9        1.0  0.32385  0.54739  0.54244  1.0000 0.1305191791
H   H10       1.0  0.20939  0.47338  0.17490  1.0000 0.1205980331
H   H11       1.0  0.47906  0.41337  0.61190  1.0000 0.1305191791
H   H12       1.0  0.65350  0.02227  0.44446  1.0000 0.1205980331
H   H13       1.0  0.03020  0.90654  0.70441  1.0000 0.1205980331
H   H14       1.0  0.33507  0.33333  0.45199  1.0000 0.1305191791
H   H15       1.0  0.18948  0.45148  0.34620  1.0000 0.1205980331
H   H16       1.0  0.96520  0.74264  0.52117  1.0000 0.1099090297
H   H17       1.0  0.72239  0.18752  0.62619  1.0000 0.1205980331
H   H18       1.0  0.79379  0.85893  0.45379  1.0000 0.1305191791
H   H19       1.0  0.88627  0.06905  0.69930  1.0000 0.1305191791
H   H20       1.0  0.10982  0.60422  0.99879  1.0000 0.1305191791
H   H21       1.0  0.44076  0.83871  0.63494  1.0000 0.2854828406
H   H22       1.0  0.88010  0.34926  0.41396  1.0000 0.2751843501
H   H23       1.0  0.29221  0.86490  0.93899  1.0000 0.1389669497
H   H24       1.0  0.89907  0.88079  0.92593  1.0000 0.1305191791
H   H25       1.0  0.49300  0.73415  0.79535  1.0000 0.1205980331
H   H26       1.0  0.76995  0.42571  0.17709  1.0000 0.1205980331
H   H27       1.0  0.49312  0.63368  0.21631  1.0000 0.1205980331
H   H28       1.0  0.67615  0.45261  0.45756  1.0000 0.1305191791
H   H29       1.0  0.79061  0.52662  0.82510  1.0000 0.1205980331
H   H30       1.0  0.52094  0.58663  0.38810  1.0000 0.1305191791
H   H31       1.0  0.34650  0.97773  0.55554  1.0000 0.1205980331
H   H32       1.0  0.96980  0.09346  0.29559  1.0000 0.1205980331
H   H33       1.0  0.66493  0.66667  0.54801  1.0000 0.1305191791
H   H34       1.0  0.81052  0.54852  0.65380  1.0000 0.1205980331
H   H35       1.0  0.03480  0.25736  0.47883  1.0000 0.1099090297
H   H36       1.0  0.27761  0.81248  0.37381  1.0000 0.1205980331
H   H37       1.0  0.20621  0.14107  0.54621  1.0000 0.1305191791
H   H38       1.0  0.11373  0.93095  0.30070  1.0000 0.1305191791
C   C1        1.0  0.64670  0.33502  0.00721  1.0000 0.5464848745
C   C2        1.0  0.77910  0.27495  0.02637  1.0000 -0.0068022759
C   C3        1.0  0.89400  0.32408  0.01774  1.0000 -0.1045009326
C   C4        1.0  0.01460  0.26540  0.03396  1.0000 0.0110809971
C   C5        1.0  0.78430  0.16838  0.05480  1.0000 -0.142113351
C   C6        1.0  0.14190  0.31640  0.01780  1.0000 0.5337017346
C   C7        1.0  0.90450  0.11226  0.07400  1.0000 0.0603865528
C   C8        1.0  0.02050  0.15880  0.06260  1.0000 -0.142113351
C   C9        1.0  0.44230  0.30370  0.23430  1.0000 -0.0374537986
C   C10       1.0  0.28100  0.54210  0.77930  1.0000 -0.0047256449
C   C11       1.0  0.26050  0.57670  0.67580  1.0000 0.1786834654
C   C12       1.0  0.44320  0.41940  0.75660  1.0000 0.0603865528
C   C13       1.0  0.43720  0.28550  0.33880  1.0000 0.1786834654
C   C14       1.0  0.56720  0.19910  0.48760  1.0000 0.4559666161
C   C15       1.0  0.33550  0.52720  0.61220  1.0000 -0.1597192567
C   C16       1.0  0.26790  0.42540  0.21640  1.0000 0.0603865528
C   C17       1.0  0.01390  0.81350  0.62120  1.0000 -0.0068022759
C   C18       1.0  0.67160  0.11440  0.52800  1.0000 -0.0177112492
C   C19       1.0  0.12970  0.73960  0.67040  1.0000 0.4559666161
C   C20       1.0  0.42770  0.44770  0.65360  1.0000 -0.1218600627
C   C21       1.0  0.80540  0.95600  0.53800  1.0000 0.0813646596
C   C22       1.0  0.87600  0.97290  0.61270  1.0000 0.0813646596
C   C23       1.0  0.70110  0.03180  0.49570  1.0000 -0.1869971584
C   C24       1.0  0.98230  0.89670  0.65350  1.0000 -0.142113351
C   C25       1.0  0.34160  0.34230  0.38190  1.0000 -0.142113351
C   C26       1.0  0.25560  0.41280  0.31880  1.0000 -0.142113351
C   C27       1.0  0.94320  0.80020  0.54550  1.0000 -0.1468659546
C   C28       1.0  0.74290  0.12860  0.60400  1.0000 -0.1218600627
C   C29       1.0  0.84030  0.87020  0.50470  1.0000 -0.142113351
C   C30       1.0  0.84170  0.05880  0.64690  1.0000 -0.1218600627
C   C31       1.0  0.35330  0.66498  0.99279  1.0000 0.5464848745
C   C32       1.0  0.22090  0.72505  0.97363  1.0000 -0.0068022759
C   C33       1.0  0.10600  0.67592  0.98226  1.0000 -0.1052598785
C   C34       1.0  0.98540  0.73460  0.96604  1.0000 0.0110809971
C   C35       1.0  0.21570  0.83162  0.94520  1.0000 -0.142113351
C   C36       1.0  0.85810  0.68360  0.98220  1.0000 0.5337017346
C   C37       1.0  0.09550  0.88774  0.92600  1.0000 0.0603865528
C   C38       1.0  0.97950  0.84120  0.93740  1.0000 -0.142113351
C   C39       1.0  0.55770  0.69630  0.76570  1.0000 -0.0374537986
C   C40       1.0  0.71900  0.45790  0.22070  1.0000 -0.0047256449
C   C41       1.0  0.73950  0.42330  0.32420  1.0000 0.1786834654
C   C42       1.0  0.55680  0.58060  0.24340  1.0000 0.0603865528
C   C43       1.0  0.56280  0.71450  0.66120  1.0000 0.1786834654
C   C44       1.0  0.43280  0.80090  0.51240  1.0000 0.4559666161
C   C45       1.0  0.66450  0.47280  0.38780  1.0000 -0.1597192567
C   C46       1.0  0.73210  0.57460  0.78360  1.0000 0.0603865528
C   C47       1.0  0.98610  0.18650  0.37880  1.0000 -0.0068022759
C   C48       1.0  0.32840  0.88560  0.47200  1.0000 -0.0177112492
C   C49       1.0  0.87030  0.26040  0.32960  1.0000 0.4559666161
C   C50       1.0  0.57230  0.55230  0.34640  1.0000 -0.1218600627
C   C51       1.0  0.19460  0.04400  0.46200  1.0000 0.0813646596
C   C52       1.0  0.12400  0.02710  0.38730  1.0000 0.0813646596
C   C53       1.0  0.29890  0.96820  0.50430  1.0000 -0.1869971584
C   C54       1.0  0.01770  0.10330  0.34650  1.0000 -0.142113351
C   C55       1.0  0.65840  0.65770  0.61810  1.0000 -0.142113351
C   C56       1.0  0.74440  0.58720  0.68120  1.0000 -0.142113351
C   C57       1.0  0.05680  0.19980  0.45450  1.0000 -0.1468659546
C   C58       1.0  0.25710  0.87140  0.39600  1.0000 -0.1218600627
C   C59       1.0  0.15970  0.12980  0.49530  1.0000 -0.142113351
C   C60       1.0  0.15830  0.94120  0.35310  1.0000 -0.1218600627
N   N1        1.0  0.37040  0.46509  0.81919  1.0000 -0.2096511554
N   N2        1.0  0.36010  0.37214  0.17351  1.0000 -0.2024286594
N   N3        1.0  0.91000  0.99894  0.10690  1.0000 0.487523349
N   N4        1.0  0.52680  0.20790  0.39393  1.0000 -0.3728635516
N   N5        1.0  0.16210  0.65610  0.63590  1.0000 -0.3728635516
N   N6        1.0  0.62960  0.53491  0.18081  1.0000 -0.2096511554
N   N7        1.0  0.63990  0.62786  0.82649  1.0000 -0.2024286594
N   N8        1.0  0.09000  0.00106  0.89310  1.0000 0.487523349
N   N9        1.0  0.47320  0.79210  0.60607  1.0000 -0.3728635516
N   N10       1.0  0.83790  0.34390  0.36410  1.0000 -0.3728635516
O   O1        1.0  0.55339  0.28734  0.99615  1.0000 -0.5200050901
O   O2        1.0  0.63330  0.42797  0.00367  1.0000 -0.5722977947
O   O3        1.0  0.13781  0.41116  0.00345  1.0000 -0.5453760456
O   O4        1.0  0.24687  0.25988  0.01887  1.0000 -0.527374668
O   O5        1.0  0.01540  0.95032  0.13140  1.0000 -0.333207516
O   O6        1.0  0.18960  0.75557  0.73667  1.0000 -0.4343612622
O   O7        1.0  0.81040  0.95794  0.10500  1.0000 -0.3006782066
O   O8        1.0  0.52410  0.25810  0.53702  1.0000 -0.4654823374
O   O9        1.0  0.44661  0.71266  0.00385  1.0000 -0.5200050901
O   O10       1.0  0.36670  0.57203  0.99633  1.0000 -0.5722977947
O   O11       1.0  0.86219  0.58884  0.99655  1.0000 -0.5453760456
O   O12       1.0  0.75313  0.74012  0.98113  1.0000 -0.527374668
O   O13       1.0  0.98460  0.04968  0.86860  1.0000 -0.333207516
O   O14       1.0  0.81040  0.24443  0.26333  1.0000 -0.4343612622
O   O15       1.0  0.18960  0.04206  0.89500  1.0000 -0.3006782066
O   O16       1.0  0.47590  0.74190  0.46298  1.0000 -0.4654823374
