# DDEC6 charges by PACMAN v1.1 (https://github.com/mtap-research/PACMAN-charge/)
data_2019[Zn][dia]3[FSR]5
_chemical_formula_sum              "Zn2 H32 C48 S4 N8 O8"
_cell_length_a       15.1655
_cell_length_b       15.1655
_cell_length_c       17.4579
_cell_angle_alpha    57.3722
_cell_angle_beta     122.628
_cell_angle_gamma    151.825

_symmetry_space_group_name_H-M    "P 1"
_symmetry_Int_Tables_number       1

loop_
  _symmetry_equiv_pos_as_xyz
  'x, y, z'

loop_
  _atom_site_type_symbol
  _atom_site_label
  _atom_site_symmetry_multiplicity
  _atom_site_fract_x
  _atom_site_fract_y
  _atom_site_fract_z
  _atom_site_occupancy
  _atom_site_charge
Zn  Zn1       1.0  0.04878  0.04878  0.25000  1.0000 0.7383963691
Zn  Zn2       1.0  0.95122  0.95122  0.75000  1.0000 0.7383963691
H   H1        1.0  0.50270  0.63270  0.03090  1.0000 0.1225583346
H   H2        1.0  0.26880  0.08500  0.13920  1.0000 0.1469620304
H   H3        1.0  0.10670  0.01890  0.05470  1.0000 0.1416588651
H   H4        1.0  0.25110  0.07370  0.04480  1.0000 0.129836415
H   H5        1.0  0.87460  0.09940  0.07100  1.0000 0.1225583346
H   H6        1.0  0.59020  0.95300  0.00490  1.0000 0.1469620304
H   H7        1.0  0.37600  0.55760  0.23600  1.0000 0.1416588651
H   H8        1.0  0.66980  0.72300  0.29800  1.0000 0.1093046555
H   H9        1.0  0.63270  0.50270  0.46910  1.0000 0.1225583346
H   H10       1.0  0.08500  0.26880  0.36080  1.0000 0.1469620304
H   H11       1.0  0.01890  0.10670  0.44530  1.0000 0.1416588651
H   H12       1.0  0.07370  0.25110  0.45520  1.0000 0.129836415
H   H13       1.0  0.09940  0.87460  0.42900  1.0000 0.1225583346
H   H14       1.0  0.95300  0.59020  0.49510  1.0000 0.1469620304
H   H15       1.0  0.55760  0.37600  0.26400  1.0000 0.1416588651
H   H16       1.0  0.72300  0.66980  0.20200  1.0000 0.1093046555
H   H17       1.0  0.49730  0.36730  0.96910  1.0000 0.1225583346
H   H18       1.0  0.73120  0.91500  0.86080  1.0000 0.1469620304
H   H19       1.0  0.89330  0.98110  0.94530  1.0000 0.1469620304
H   H20       1.0  0.74890  0.92630  0.95520  1.0000 0.129836415
H   H21       1.0  0.12540  0.90060  0.92900  1.0000 0.1225583346
H   H22       1.0  0.40980  0.04700  0.99510  1.0000 0.1469620304
H   H23       1.0  0.62400  0.44240  0.76400  1.0000 0.1416588651
H   H24       1.0  0.33020  0.27700  0.70200  1.0000 0.1093046555
H   H25       1.0  0.36730  0.49730  0.53090  1.0000 0.1225583346
H   H26       1.0  0.91500  0.73120  0.63920  1.0000 0.1469620304
H   H27       1.0  0.98110  0.89330  0.55470  1.0000 0.1469620304
H   H28       1.0  0.92630  0.74890  0.54480  1.0000 0.129836415
H   H29       1.0  0.90060  0.12540  0.57100  1.0000 0.1225583346
H   H30       1.0  0.04700  0.40980  0.50490  1.0000 0.1469620304
H   H31       1.0  0.44240  0.62400  0.73600  1.0000 0.1416588651
H   H32       1.0  0.27700  0.33020  0.79800  1.0000 0.1093046555
C   C1        1.0  0.24629  0.28671  0.11216  1.0000 0.5541650879
C   C2        1.0  0.37415  0.39025  0.05390  1.0000 -0.0854174716
C   C3        1.0  0.36990  0.30630  0.03632  1.0000 0.1703375357
C   C4        1.0  0.50239  0.57921  0.01781  1.0000 -0.197740264
C   C5        1.0  0.23749  0.10311  0.07186  1.0000 -0.4554098917
C   C6        1.0  0.77207  0.98873  0.10479  1.0000 0.0694221782
C   C7        1.0  0.60260  0.90140  0.06460  1.0000 -0.1489884814
C   C8        1.0  0.45037  0.73703  0.11267  1.0000 0.1093046555
C   C9        1.0  0.47683  0.66937  0.20117  1.0000 -0.1653213573
C   C10       1.0  0.65153  0.76747  0.23706  1.0000 0.0803392606
C   C11       1.0  0.26792  0.63888  0.06995  1.0000 0.129836415
C   C12       1.0  0.05759  0.57841  0.96759  1.0000 0.0530913046
C   C13       1.0  0.28671  0.24629  0.38784  1.0000 0.5541650879
C   C14       1.0  0.39025  0.37415  0.44610  1.0000 -0.0854174716
C   C15       1.0  0.30630  0.36990  0.46368  1.0000 0.1703375357
C   C16       1.0  0.57921  0.50239  0.48219  1.0000 -0.197740264
C   C17       1.0  0.10311  0.23749  0.42814  1.0000 -0.4554098917
C   C18       1.0  0.98873  0.77207  0.39521  1.0000 0.0694221782
C   C19       1.0  0.90140  0.60260  0.43540  1.0000 -0.1489884814
C   C20       1.0  0.73703  0.45037  0.38733  1.0000 0.1093046555
C   C21       1.0  0.66937  0.47683  0.29883  1.0000 -0.1653213573
C   C22       1.0  0.76747  0.65153  0.26294  1.0000 0.0803392606
C   C23       1.0  0.63888  0.26792  0.43005  1.0000 0.1225583346
C   C24       1.0  0.57841  0.05759  0.53241  1.0000 0.0530913046
C   C25       1.0  0.75371  0.71329  0.88784  1.0000 0.5541650879
C   C26       1.0  0.62585  0.60975  0.94610  1.0000 -0.0854174716
C   C27       1.0  0.63010  0.69370  0.96368  1.0000 0.1703375357
C   C28       1.0  0.49761  0.42079  0.98219  1.0000 -0.197740264
C   C29       1.0  0.76251  0.89689  0.92814  1.0000 -0.4554098917
C   C30       1.0  0.22793  0.01127  0.89521  1.0000 0.0694221782
C   C31       1.0  0.39740  0.09860  0.93540  1.0000 -0.1489884814
C   C32       1.0  0.54963  0.26297  0.88733  1.0000 0.1093046555
C   C33       1.0  0.52317  0.33063  0.79883  1.0000 -0.1653213573
C   C34       1.0  0.34847  0.23253  0.76294  1.0000 0.0803392606
C   C35       1.0  0.73208  0.36112  0.93005  1.0000 0.1225583346
C   C36       1.0  0.94241  0.42159  0.03241  1.0000 0.0530913046
C   C37       1.0  0.71329  0.75371  0.61216  1.0000 0.5541650879
C   C38       1.0  0.60975  0.62585  0.55390  1.0000 -0.0854174716
C   C39       1.0  0.69370  0.63010  0.53632  1.0000 0.1703375357
C   C40       1.0  0.42079  0.49761  0.51781  1.0000 -0.197740264
C   C41       1.0  0.89689  0.76251  0.57186  1.0000 -0.4554098917
C   C42       1.0  0.01127  0.22793  0.60479  1.0000 0.0694221782
C   C43       1.0  0.09860  0.39740  0.56460  1.0000 -0.1489884814
C   C44       1.0  0.26297  0.54963  0.61267  1.0000 0.1093046555
C   C45       1.0  0.33063  0.52317  0.70117  1.0000 -0.1653213573
C   C46       1.0  0.23253  0.34847  0.73706  1.0000 0.0803392606
C   C47       1.0  0.36112  0.73208  0.56995  1.0000 0.1225583346
C   C48       1.0  0.42159  0.94241  0.46759  1.0000 0.0530913046
S   S1        1.0  0.07142  0.42614  0.12686  1.0000 0.0897971692
S   S2        1.0  0.42614  0.07142  0.37314  1.0000 0.0897971692
S   S3        1.0  0.92858  0.57386  0.87314  1.0000 0.0897971692
S   S4        1.0  0.57386  0.92858  0.62686  1.0000 0.0897971692
N   N1        1.0  0.79760  0.92322  0.18995  1.0000 -0.2361684142
N   N2        1.0  0.24147  0.70257  0.98735  1.0000 -0.3136679304
N   N3        1.0  0.92322  0.79760  0.31005  1.0000 -0.2361684142
N   N4        1.0  0.70257  0.24147  0.51265  1.0000 -0.3136679304
N   N5        1.0  0.20240  0.07678  0.81005  1.0000 -0.2361684142
N   N6        1.0  0.75853  0.29743  0.01265  1.0000 -0.3136679304
N   N7        1.0  0.07678  0.20240  0.68995  1.0000 -0.2361684142
N   N8        1.0  0.29743  0.75853  0.48735  1.0000 -0.3136679304
O   O1        1.0  0.19325  0.15397  0.17509  1.0000 -0.5353304518
O   O2        1.0  0.20345  0.33571  0.09789  1.0000 -0.546140082
O   O3        1.0  0.15397  0.19325  0.32491  1.0000 -0.5353304518
O   O4        1.0  0.33571  0.20345  0.40211  1.0000 -0.546140082
O   O5        1.0  0.80675  0.84603  0.82491  1.0000 -0.5353304518
O   O6        1.0  0.79655  0.66429  0.90211  1.0000 -0.546140082
O   O7        1.0  0.84603  0.80675  0.67509  1.0000 -0.5353304518
O   O8        1.0  0.66429  0.79655  0.59789  1.0000 -0.546140082
