# DDEC6 charges by PACMAN v1.1 (https://github.com/mtap-research/PACMAN-charge/)
data_2019[Zn][nan]2[FSR]6
_chemical_formula_sum              "Zn8 H108 C172 N16 O48"
_cell_length_a       11.303
_cell_length_b       28.6552
_cell_length_c       18.2345
_cell_angle_alpha    90
_cell_angle_beta     126.153
_cell_angle_gamma    90

_symmetry_space_group_name_H-M    "P 1"
_symmetry_Int_Tables_number       1

loop_
  _symmetry_equiv_pos_as_xyz
  'x, y, z'

loop_
  _atom_site_type_symbol
  _atom_site_label
  _atom_site_symmetry_multiplicity
  _atom_site_fract_x
  _atom_site_fract_y
  _atom_site_fract_z
  _atom_site_occupancy
  _atom_site_charge
Zn  Zn1       1.0  0.22766  0.67223  0.65295  1.0000 0.8317695859
Zn  Zn2       1.0  0.76576  0.67149  0.48250  1.0000 0.8317695859
Zn  Zn3       1.0  0.77234  0.17223  0.84705  1.0000 0.8317695859
Zn  Zn4       1.0  0.23424  0.17149  0.01750  1.0000 0.8317695859
Zn  Zn5       1.0  0.77234  0.32777  0.34705  1.0000 0.8317695859
Zn  Zn6       1.0  0.23424  0.32851  0.51750  1.0000 0.8317695859
Zn  Zn7       1.0  0.22766  0.82777  0.15295  1.0000 0.8317695859
Zn  Zn8       1.0  0.76576  0.82851  0.98250  1.0000 0.8317695859
H   H1        1.0  0.52109  0.66172  0.84662  1.0000 0.120392237
H   H2        1.0  0.75969  0.64175  0.90738  1.0000 0.1324098933
H   H3        1.0  0.66453  0.65703  0.65604  1.0000 0.1324098933
H   H4        1.0  0.42554  0.67656  0.60220  1.0000 0.1119199662
H   H5        1.0  0.98749  0.64505  0.95640  1.0000 0.1485005937
H   H6        1.0  0.22150  0.62131  0.00638  1.0000 0.1324098933
H   H7        1.0  0.07814  0.58891  0.75470  1.0000 0.1403220001
H   H8        1.0  0.84179  0.61064  0.70053  1.0000 0.1563321206
H   H9        1.0  0.35532  0.61036  0.89390  1.0000 0.1485005937
H   H10       1.0  0.38625  0.59096  0.98613  1.0000 0.1119199662
H   H11       1.0  0.34796  0.55897  0.79457  1.0000 0.1403220001
H   H12       1.0  0.36170  0.48267  0.75084  1.0000 0.1403220001
H   H13       1.0  0.31798  0.43038  0.93526  1.0000 0.120392237
H   H14       1.0  0.30656  0.50462  0.98063  1.0000 0.120392237
H   H15       1.0  0.40779  0.38019  0.85430  1.0000 0.1324098933
H   H16       1.0  0.35984  0.40206  0.75929  1.0000 0.1485005937
H   H17       1.0  0.11026  0.40315  0.63531  1.0000 0.1324098933
H   H18       1.0  0.86454  0.38421  0.56753  1.0000 0.1485005937
H   H19       1.0  0.98651  0.33447  0.81045  1.0000 0.1485005937
H   H20       1.0  0.22716  0.35471  0.87256  1.0000 0.120392237
H   H21       1.0  0.65562  0.39519  0.54126  1.0000 0.1485005937
H   H22       1.0  0.41380  0.38328  0.48622  1.0000 0.120392237
H   H23       1.0  0.53278  0.28985  0.67700  1.0000 0.1324098933
H   H24       1.0  0.77773  0.30140  0.73870  1.0000 0.1403220001
H   H25       1.0  0.74340  0.73746  0.20856  1.0000 0.120392237
H   H26       1.0  0.23611  0.77244  0.42919  1.0000 0.120392237
H   H27       1.0  0.24004  0.50570  0.54454  1.0000 0.120392237
H   H28       1.0  0.47891  0.16172  0.65338  1.0000 0.120392237
H   H29       1.0  0.24031  0.14175  0.59262  1.0000 0.1324098933
H   H30       1.0  0.33547  0.15703  0.84396  1.0000 0.1324098933
H   H31       1.0  0.57446  0.17656  0.89780  1.0000 0.1119199662
H   H32       1.0  0.01251  0.14505  0.54360  1.0000 0.1485005937
H   H33       1.0  0.77850  0.12131  0.49362  1.0000 0.1324098933
H   H34       1.0  0.92186  0.08891  0.74530  1.0000 0.1403220001
H   H35       1.0  0.15821  0.11064  0.79947  1.0000 0.1563321206
H   H36       1.0  0.64468  0.11036  0.60610  1.0000 0.1485005937
H   H37       1.0  0.61375  0.09096  0.51387  1.0000 0.1119199662
H   H38       1.0  0.65204  0.05897  0.70543  1.0000 0.1403220001
H   H39       1.0  0.63830  0.98267  0.74916  1.0000 0.1403220001
H   H40       1.0  0.68202  0.93038  0.56474  1.0000 0.120392237
H   H41       1.0  0.69344  0.00462  0.51937  1.0000 0.120392237
H   H42       1.0  0.59221  0.88019  0.64570  1.0000 0.1324098933
H   H43       1.0  0.64016  0.90206  0.74071  1.0000 0.1485005937
H   H44       1.0  0.88974  0.90315  0.86469  1.0000 0.1324098933
H   H45       1.0  0.13546  0.88421  0.93247  1.0000 0.1485005937
H   H46       1.0  0.01349  0.83447  0.68955  1.0000 0.1485005937
H   H47       1.0  0.77284  0.85471  0.62744  1.0000 0.120392237
H   H48       1.0  0.34438  0.89519  0.95874  1.0000 0.1485005937
H   H49       1.0  0.58620  0.88328  0.01378  1.0000 0.120392237
H   H50       1.0  0.46722  0.78985  0.82300  1.0000 0.1324098933
H   H51       1.0  0.22227  0.80140  0.76130  1.0000 0.1403220001
H   H52       1.0  0.25660  0.23746  0.29144  1.0000 0.120392237
H   H53       1.0  0.76389  0.27244  0.07081  1.0000 0.120392237
H   H54       1.0  0.75996  0.00570  0.95546  1.0000 0.120392237
H   H55       1.0  0.47891  0.33828  0.15338  1.0000 0.120392237
H   H56       1.0  0.24031  0.35825  0.09262  1.0000 0.1324098933
H   H57       1.0  0.33547  0.34297  0.34396  1.0000 0.1324098933
H   H58       1.0  0.57446  0.32344  0.39780  1.0000 0.1119199662
H   H59       1.0  0.01251  0.35495  0.04360  1.0000 0.1485005937
H   H60       1.0  0.77850  0.37869  0.99362  1.0000 0.1324098933
H   H61       1.0  0.92186  0.41109  0.24530  1.0000 0.1403220001
H   H62       1.0  0.15821  0.38936  0.29947  1.0000 0.1563321206
H   H63       1.0  0.64468  0.38964  0.10610  1.0000 0.1485005937
H   H64       1.0  0.61375  0.40904  0.01387  1.0000 0.1119199662
H   H65       1.0  0.65204  0.44103  0.20543  1.0000 0.1403220001
H   H66       1.0  0.63830  0.51733  0.24916  1.0000 0.1403220001
H   H67       1.0  0.68202  0.56962  0.06474  1.0000 0.120392237
H   H68       1.0  0.69344  0.49538  0.01937  1.0000 0.120392237
H   H69       1.0  0.59221  0.61981  0.14570  1.0000 0.1324098933
H   H70       1.0  0.64016  0.59794  0.24071  1.0000 0.1485005937
H   H71       1.0  0.88974  0.59685  0.36469  1.0000 0.1324098933
H   H72       1.0  0.13546  0.61579  0.43247  1.0000 0.1485005937
H   H73       1.0  0.01349  0.66553  0.18955  1.0000 0.1485005937
H   H74       1.0  0.77284  0.64529  0.12744  1.0000 0.120392237
H   H75       1.0  0.34438  0.60481  0.45874  1.0000 0.1485005937
H   H76       1.0  0.58620  0.61672  0.51378  1.0000 0.120392237
H   H77       1.0  0.46722  0.71015  0.32300  1.0000 0.1324098933
H   H78       1.0  0.22227  0.69860  0.26130  1.0000 0.1403220001
H   H79       1.0  0.25660  0.26254  0.79144  1.0000 0.120392237
H   H80       1.0  0.76389  0.22756  0.57081  1.0000 0.120392237
H   H81       1.0  0.75996  0.49430  0.45546  1.0000 0.120392237
H   H82       1.0  0.52109  0.83828  0.34662  1.0000 0.120392237
H   H83       1.0  0.75969  0.85825  0.40738  1.0000 0.1324098933
H   H84       1.0  0.66453  0.84297  0.15604  1.0000 0.1324098933
H   H85       1.0  0.42554  0.82344  0.10220  1.0000 0.1119199662
H   H86       1.0  0.98749  0.85495  0.45640  1.0000 0.1485005937
H   H87       1.0  0.22150  0.87869  0.50638  1.0000 0.1324098933
H   H88       1.0  0.07814  0.91109  0.25470  1.0000 0.1403220001
H   H89       1.0  0.84179  0.88936  0.20053  1.0000 0.1563321206
H   H90       1.0  0.35532  0.88964  0.39390  1.0000 0.1485005937
H   H91       1.0  0.38625  0.90904  0.48613  1.0000 0.1119199662
H   H92       1.0  0.34796  0.94103  0.29457  1.0000 0.1403220001
H   H93       1.0  0.36170  0.01733  0.25084  1.0000 0.1403220001
H   H94       1.0  0.31798  0.06962  0.43526  1.0000 0.120392237
H   H95       1.0  0.30656  0.99538  0.48063  1.0000 0.120392237
H   H96       1.0  0.40779  0.11981  0.35430  1.0000 0.1324098933
H   H97       1.0  0.35984  0.09794  0.25929  1.0000 0.1485005937
H   H98       1.0  0.11026  0.09685  0.13531  1.0000 0.1324098933
H   H99       1.0  0.86454  0.11579  0.06753  1.0000 0.1485005937
H   H100      1.0  0.98651  0.16553  0.31045  1.0000 0.1485005937
H   H101      1.0  0.22716  0.14529  0.37256  1.0000 0.120392237
H   H102      1.0  0.65562  0.10481  0.04126  1.0000 0.1485005937
H   H103      1.0  0.41380  0.11672  0.98622  1.0000 0.120392237
H   H104      1.0  0.53278  0.21015  0.17700  1.0000 0.1324098933
H   H105      1.0  0.77773  0.19860  0.23870  1.0000 0.1403220001
H   H106      1.0  0.74340  0.76254  0.70856  1.0000 0.120392237
H   H107      1.0  0.23611  0.72756  0.92919  1.0000 0.120392237
H   H108      1.0  0.24004  0.99430  0.04454  1.0000 0.120392237
C   C1        1.0  0.55040  0.66030  0.80740  1.0000 0.0921098593
C   C2        1.0  0.69290  0.64810  0.84430  1.0000 -0.1915254739
C   C3        1.0  0.73770  0.64520  0.78780  1.0000 0.120392237
C   C4        1.0  0.63660  0.65710  0.69600  1.0000 -0.1687458048
C   C5        1.0  0.49440  0.66910  0.66460  1.0000 0.1119199662
C   C6        1.0  0.88890  0.62950  0.82310  1.0000 0.1119199662
C   C7        1.0  0.00360  0.63300  0.91440  1.0000 -0.1687458048
C   C8        1.0  0.14250  0.61890  0.94380  1.0000 0.0301713234
C   C9        1.0  0.05820  0.59960  0.79570  1.0000 0.0599320115
C   C10       1.0  0.91860  0.61280  0.76360  1.0000 -0.1306769286
C   C11       1.0  0.32010  0.58840  0.91910  1.0000 -0.1970531453
C   C12       1.0  0.32490  0.53870  0.89090  1.0000 0.095047057
C   C13       1.0  0.34160  0.53270  0.82380  1.0000 -0.1306769286
C   C14       1.0  0.34940  0.48710  0.79760  1.0000 -0.1448661533
C   C15       1.0  0.33960  0.45020  0.83870  1.0000 0.0921098593
C   C16       1.0  0.32410  0.45680  0.90610  1.0000 -0.1687458048
C   C17       1.0  0.31700  0.50070  0.93300  1.0000 -0.1459963095
C   C18       1.0  0.33540  0.40060  0.80320  1.0000 -0.1915254739
C   C19       1.0  0.08300  0.38960  0.67090  1.0000 0.0690545443
C   C20       1.0  0.93700  0.37850  0.63030  1.0000 -0.1459963095
C   C21       1.0  0.89900  0.35860  0.68370  1.0000 0.120392237
C   C22       1.0  0.00940  0.34930  0.77360  1.0000 -0.1687458048
C   C23       1.0  0.15190  0.36110  0.81040  1.0000 0.0301713234
C   C24       1.0  0.74240  0.34950  0.64580  1.0000 0.1119199662
C   C25       1.0  0.63250  0.37360  0.57060  1.0000 -0.1615143918
C   C26       1.0  0.48900  0.36630  0.53790  1.0000 0.0790882114
C   C27       1.0  0.55840  0.31190  0.64970  1.0000 0.1119199662
C   C28       1.0  0.70420  0.31830  0.68620  1.0000 -0.1687458048
C   C29       1.0  0.13940  0.73180  0.50900  1.0000 0.5799837563
C   C30       1.0  0.05520  0.74430  0.41040  1.0000 -0.0336913299
C   C31       1.0  0.90590  0.73410  0.34360  1.0000 -0.0455735677
C   C32       1.0  0.84370  0.74460  0.25360  1.0000 -0.1615143918
C   C33       1.0  0.92530  0.76540  0.22790  1.0000 -0.0336913299
C   C34       1.0  0.07330  0.77490  0.29230  1.0000 -0.068772867
C   C35       1.0  0.13620  0.76490  0.38420  1.0000 -0.1687458048
C   C36       1.0  0.80880  0.71230  0.36660  1.0000 0.5474261794
C   C37       1.0  0.84350  0.77720  0.12800  1.0000 0.5718934837
C   C38       1.0  0.16890  0.79570  0.26970  1.0000 0.555538893
C   C39       1.0  0.17710  0.58300  0.59140  1.0000 0.5474261794
C   C40       1.0  0.08240  0.54040  0.54450  1.0000 -0.0437120681
C   C41       1.0  0.14260  0.50330  0.52690  1.0000 -0.1687458048
C   C42       1.0  0.93750  0.53740  0.51600  1.0000 -0.0336913299
C   C43       1.0  0.85730  0.57710  0.52320  1.0000 0.5799837563
C   C44       1.0  0.44960  0.16030  0.69260  1.0000 0.0921098593
C   C45       1.0  0.30710  0.14810  0.65570  1.0000 -0.1915254739
C   C46       1.0  0.26230  0.14520  0.71220  1.0000 0.120392237
C   C47       1.0  0.36340  0.15710  0.80400  1.0000 -0.1687458048
C   C48       1.0  0.50560  0.16910  0.83540  1.0000 0.1119199662
C   C49       1.0  0.11110  0.12950  0.67690  1.0000 0.1119199662
C   C50       1.0  0.99640  0.13300  0.58560  1.0000 -0.1687458048
C   C51       1.0  0.85750  0.11890  0.55620  1.0000 0.0301713234
C   C52       1.0  0.94180  0.09960  0.70430  1.0000 0.0599320115
C   C53       1.0  0.08140  0.11280  0.73640  1.0000 -0.1306769286
C   C54       1.0  0.67990  0.08840  0.58090  1.0000 -0.1970531453
C   C55       1.0  0.67510  0.03870  0.60910  1.0000 0.095047057
C   C56       1.0  0.65840  0.03270  0.67620  1.0000 -0.1306769286
C   C57       1.0  0.65060  0.98710  0.70240  1.0000 -0.1448661533
C   C58       1.0  0.66040  0.95020  0.66130  1.0000 0.0921098593
C   C59       1.0  0.67590  0.95680  0.59390  1.0000 -0.1687458048
C   C60       1.0  0.68300  0.00070  0.56700  1.0000 -0.1448661533
C   C61       1.0  0.66460  0.90060  0.69680  1.0000 -0.1915254739
C   C62       1.0  0.91700  0.88960  0.82910  1.0000 0.0690545443
C   C63       1.0  0.06300  0.87850  0.86970  1.0000 -0.1459963095
C   C64       1.0  0.10100  0.85860  0.81630  1.0000 0.120392237
C   C65       1.0  0.99060  0.84930  0.72640  1.0000 -0.1687458048
C   C66       1.0  0.84810  0.86110  0.68960  1.0000 0.0301713234
C   C67       1.0  0.25760  0.84950  0.85420  1.0000 0.1119199662
C   C68       1.0  0.36750  0.87360  0.92940  1.0000 -0.1615143918
C   C69       1.0  0.51100  0.86630  0.96210  1.0000 0.0790882114
C   C70       1.0  0.44160  0.81190  0.85030  1.0000 0.1119199662
C   C71       1.0  0.29580  0.81830  0.81380  1.0000 -0.1687458048
C   C72       1.0  0.86060  0.23180  0.99100  1.0000 0.5799837563
C   C73       1.0  0.94480  0.24430  0.08960  1.0000 -0.0336913299
C   C74       1.0  0.09410  0.23410  0.15640  1.0000 -0.0455735677
C   C75       1.0  0.15630  0.24460  0.24640  1.0000 -0.1615143918
C   C76       1.0  0.07470  0.26540  0.27210  1.0000 -0.0336913299
C   C77       1.0  0.92670  0.27490  0.20770  1.0000 -0.068772867
C   C78       1.0  0.86380  0.26490  0.11580  1.0000 -0.1687458048
C   C79       1.0  0.19120  0.21230  0.13340  1.0000 0.5474261794
C   C80       1.0  0.15650  0.27720  0.37200  1.0000 0.5718934837
C   C81       1.0  0.83110  0.29570  0.23030  1.0000 0.555538893
C   C82       1.0  0.82290  0.08300  0.90860  1.0000 0.5474261794
C   C83       1.0  0.91760  0.04040  0.95550  1.0000 -0.0437120681
C   C84       1.0  0.85740  0.00330  0.97310  1.0000 -0.1687458048
C   C85       1.0  0.06250  0.03740  0.98400  1.0000 -0.0336913299
C   C86       1.0  0.14270  0.07710  0.97680  1.0000 0.5799837563
C   C87       1.0  0.44960  0.33970  0.19260  1.0000 0.0921098593
C   C88       1.0  0.30710  0.35190  0.15570  1.0000 -0.1915254739
C   C89       1.0  0.26230  0.35480  0.21220  1.0000 0.120392237
C   C90       1.0  0.36340  0.34290  0.30400  1.0000 -0.1687458048
C   C91       1.0  0.50560  0.33090  0.33540  1.0000 0.1119199662
C   C92       1.0  0.11110  0.37050  0.17690  1.0000 0.1119199662
C   C93       1.0  0.99640  0.36700  0.08560  1.0000 -0.1687458048
C   C94       1.0  0.85750  0.38110  0.05620  1.0000 0.0301713234
C   C95       1.0  0.94180  0.40040  0.20430  1.0000 0.0599320115
C   C96       1.0  0.08140  0.38720  0.23640  1.0000 -0.1306769286
C   C97       1.0  0.67990  0.41160  0.08090  1.0000 -0.1970531453
C   C98       1.0  0.67510  0.46130  0.10910  1.0000 0.095047057
C   C99       1.0  0.65840  0.46730  0.17620  1.0000 -0.1306769286
C   C100      1.0  0.65060  0.51290  0.20240  1.0000 -0.1448661533
C   C101      1.0  0.66040  0.54980  0.16130  1.0000 0.0921098593
C   C102      1.0  0.67590  0.54320  0.09390  1.0000 -0.1687458048
C   C103      1.0  0.68300  0.49930  0.06700  1.0000 -0.1459963095
C   C104      1.0  0.66460  0.59940  0.19680  1.0000 -0.1915254739
C   C105      1.0  0.91700  0.61040  0.32910  1.0000 0.0690545443
C   C106      1.0  0.06300  0.62150  0.36970  1.0000 -0.1459963095
C   C107      1.0  0.10100  0.64140  0.31630  1.0000 0.120392237
C   C108      1.0  0.99060  0.65070  0.22640  1.0000 -0.1687458048
C   C109      1.0  0.84810  0.63890  0.18960  1.0000 0.0301713234
C   C110      1.0  0.25760  0.65050  0.35420  1.0000 0.1119199662
C   C111      1.0  0.36750  0.62640  0.42940  1.0000 -0.1615143918
C   C112      1.0  0.51100  0.63370  0.46210  1.0000 0.0790882114
C   C113      1.0  0.44160  0.68810  0.35030  1.0000 0.1119199662
C   C114      1.0  0.29580  0.68170  0.31380  1.0000 -0.1687458048
C   C115      1.0  0.86060  0.26820  0.49100  1.0000 0.5799837563
C   C116      1.0  0.94480  0.25570  0.58960  1.0000 -0.0336913299
C   C117      1.0  0.09410  0.26590  0.65640  1.0000 -0.0455735677
C   C118      1.0  0.15630  0.25540  0.74640  1.0000 -0.1615143918
C   C119      1.0  0.07470  0.23460  0.77210  1.0000 -0.0336913299
C   C120      1.0  0.92670  0.22510  0.70770  1.0000 -0.068772867
C   C121      1.0  0.86380  0.23510  0.61580  1.0000 -0.1687458048
C   C122      1.0  0.19120  0.28770  0.63340  1.0000 0.5474261794
C   C123      1.0  0.15650  0.22280  0.87200  1.0000 0.5718934837
C   C124      1.0  0.83110  0.20430  0.73030  1.0000 0.555538893
C   C125      1.0  0.82290  0.41700  0.40860  1.0000 0.5474261794
C   C126      1.0  0.91760  0.45960  0.45550  1.0000 -0.0437120681
C   C127      1.0  0.85740  0.49670  0.47310  1.0000 -0.1687458048
C   C128      1.0  0.06250  0.46260  0.48400  1.0000 -0.0336913299
C   C129      1.0  0.14270  0.42290  0.47680  1.0000 0.5799837563
C   C130      1.0  0.55040  0.83970  0.30740  1.0000 0.0921098593
C   C131      1.0  0.69290  0.85190  0.34430  1.0000 -0.1915254739
C   C132      1.0  0.73770  0.85480  0.28780  1.0000 0.120392237
C   C133      1.0  0.63660  0.84290  0.19600  1.0000 -0.1687458048
C   C134      1.0  0.49440  0.83090  0.16460  1.0000 0.1119199662
C   C135      1.0  0.88890  0.87050  0.32310  1.0000 0.1119199662
C   C136      1.0  0.00360  0.86700  0.41440  1.0000 -0.1687458048
C   C137      1.0  0.14250  0.88110  0.44380  1.0000 0.0301713234
C   C138      1.0  0.05820  0.90040  0.29570  1.0000 0.0599320115
C   C139      1.0  0.91860  0.88720  0.26360  1.0000 -0.1306769286
C   C140      1.0  0.32010  0.91160  0.41910  1.0000 -0.1970531453
C   C141      1.0  0.32490  0.96130  0.39090  1.0000 0.095047057
C   C142      1.0  0.34160  0.96730  0.32380  1.0000 -0.1306769286
C   C143      1.0  0.34940  0.01290  0.29760  1.0000 -0.1448661533
C   C144      1.0  0.33960  0.04980  0.33870  1.0000 0.0921098593
C   C145      1.0  0.32410  0.04320  0.40610  1.0000 -0.1687458048
C   C146      1.0  0.31700  0.99930  0.43300  1.0000 -0.1459963095
C   C147      1.0  0.33540  0.09940  0.30320  1.0000 -0.1915254739
C   C148      1.0  0.08300  0.11040  0.17090  1.0000 0.0690545443
C   C149      1.0  0.93700  0.12150  0.13030  1.0000 -0.1448661533
C   C150      1.0  0.89900  0.14140  0.18370  1.0000 0.120392237
C   C151      1.0  0.00940  0.15070  0.27360  1.0000 -0.1687458048
C   C152      1.0  0.15190  0.13890  0.31040  1.0000 0.0301713234
C   C153      1.0  0.74240  0.15050  0.14580  1.0000 0.1119199662
C   C154      1.0  0.63250  0.12640  0.07060  1.0000 -0.1615143918
C   C155      1.0  0.48900  0.13370  0.03790  1.0000 0.0790882114
C   C156      1.0  0.55840  0.18810  0.14970  1.0000 0.1119199662
C   C157      1.0  0.70420  0.18170  0.18620  1.0000 -0.1687458048
C   C158      1.0  0.13940  0.76820  0.00900  1.0000 0.5799837563
C   C159      1.0  0.05520  0.75570  0.91040  1.0000 -0.0336913299
C   C160      1.0  0.90590  0.76590  0.84360  1.0000 -0.0455735677
C   C161      1.0  0.84370  0.75540  0.75360  1.0000 -0.1615143918
C   C162      1.0  0.92530  0.73460  0.72790  1.0000 -0.0336913299
C   C163      1.0  0.07330  0.72510  0.79230  1.0000 -0.068772867
C   C164      1.0  0.13620  0.73510  0.88420  1.0000 -0.1687458048
C   C165      1.0  0.80880  0.78770  0.86660  1.0000 0.5474261794
C   C166      1.0  0.84350  0.72280  0.62800  1.0000 0.5718934837
C   C167      1.0  0.16890  0.70430  0.76970  1.0000 0.555538893
C   C168      1.0  0.17710  0.91700  0.09140  1.0000 0.5474261794
C   C169      1.0  0.08240  0.95960  0.04450  1.0000 -0.0437120681
C   C170      1.0  0.14260  0.99670  0.02690  1.0000 -0.1687458048
C   C171      1.0  0.93750  0.96260  0.01600  1.0000 -0.0336913299
C   C172      1.0  0.85730  0.92290  0.02320  1.0000 0.5799837563
N   N1        1.0  0.45030  0.67050  0.71940  1.0000 -0.2299139645
N   N2        1.0  0.16740  0.60180  0.88580  1.0000 0.1119199662
N   N3        1.0  0.18450  0.38160  0.75820  1.0000 0.1119199662
N   N4        1.0  0.45290  0.33560  0.57790  1.0000 -0.2212359492
N   N5        1.0  0.54970  0.17050  0.78060  1.0000 -0.2299139645
N   N6        1.0  0.83260  0.10180  0.61420  1.0000 0.1119199662
N   N7        1.0  0.81550  0.88160  0.74180  1.0000 0.1119199662
N   N8        1.0  0.54710  0.83560  0.92210  1.0000 -0.2212359492
N   N9        1.0  0.54970  0.32950  0.28060  1.0000 -0.2299139645
N   N10       1.0  0.83260  0.39820  0.11420  1.0000 0.1119199662
N   N11       1.0  0.81550  0.61840  0.24180  1.0000 0.1119199662
N   N12       1.0  0.54710  0.66440  0.42210  1.0000 -0.2212359492
N   N13       1.0  0.45030  0.82950  0.21940  1.0000 -0.2299139645
N   N14       1.0  0.16740  0.89820  0.38580  1.0000 0.1119199662
N   N15       1.0  0.18450  0.11840  0.25820  1.0000 0.1119199662
N   N16       1.0  0.45290  0.16440  0.07790  1.0000 -0.2212359492
O   O1        1.0  0.15940  0.68950  0.53020  1.0000 -0.529829472
O   O2        1.0  0.19170  0.76460  0.56570  1.0000 -0.5781894174
O   O3        1.0  0.85390  0.71650  0.44810  1.0000 -0.5066785511
O   O4        1.0  0.69560  0.69230  0.30660  1.0000 -0.5598353244
O   O5        1.0  0.77300  0.74620  0.06950  1.0000 -0.5781894174
O   O6        1.0  0.84650  0.82030  0.11100  1.0000 -0.5406895724
O   O7        1.0  0.13380  0.78690  0.19050  1.0000 -0.5066785511
O   O8        1.0  0.28230  0.81800  0.32850  1.0000 -0.592057347
O   O9        1.0  0.14630  0.60850  0.63630  1.0000 -0.551049411
O   O10       1.0  0.27560  0.59060  0.58350  1.0000 -0.5406895724
O   O11       1.0  0.83480  0.61100  0.47120  1.0000 -0.5598353244
O   O12       1.0  0.80950  0.57370  0.56900  1.0000 -0.5598353244
O   O13       1.0  0.84060  0.18950  0.96980  1.0000 -0.529829472
O   O14       1.0  0.80830  0.26460  0.93430  1.0000 -0.5781894174
O   O15       1.0  0.14610  0.21650  0.05190  1.0000 -0.5066785511
O   O16       1.0  0.30440  0.19230  0.19340  1.0000 -0.5598353244
O   O17       1.0  0.22700  0.24620  0.43050  1.0000 -0.5781894174
O   O18       1.0  0.15350  0.32030  0.38900  1.0000 -0.5406895724
O   O19       1.0  0.86620  0.28690  0.30950  1.0000 -0.5066785511
O   O20       1.0  0.71770  0.31800  0.17150  1.0000 -0.592057347
O   O21       1.0  0.85370  0.10850  0.86370  1.0000 -0.551049411
O   O22       1.0  0.72440  0.09060  0.91650  1.0000 -0.5406895724
O   O23       1.0  0.16520  0.11100  0.02880  1.0000 -0.5598353244
O   O24       1.0  0.19050  0.07370  0.93100  1.0000 -0.5598353244
O   O25       1.0  0.84060  0.31050  0.46980  1.0000 -0.529829472
O   O26       1.0  0.80830  0.23540  0.43430  1.0000 -0.5781894174
O   O27       1.0  0.14610  0.28350  0.55190  1.0000 -0.5066785511
O   O28       1.0  0.30440  0.30770  0.69340  1.0000 -0.5598353244
O   O29       1.0  0.22700  0.25380  0.93050  1.0000 -0.5781894174
O   O30       1.0  0.15350  0.17970  0.88900  1.0000 -0.5406895724
O   O31       1.0  0.86620  0.21310  0.80950  1.0000 -0.5066785511
O   O32       1.0  0.71770  0.18200  0.67150  1.0000 -0.592057347
O   O33       1.0  0.85370  0.39150  0.36370  1.0000 -0.551049411
O   O34       1.0  0.72440  0.40940  0.41650  1.0000 -0.5406895724
O   O35       1.0  0.16520  0.38900  0.52880  1.0000 -0.5598353244
O   O36       1.0  0.19050  0.42630  0.43100  1.0000 -0.5598353244
O   O37       1.0  0.15940  0.81050  0.03020  1.0000 -0.529829472
O   O38       1.0  0.19170  0.73540  0.06570  1.0000 -0.5781894174
O   O39       1.0  0.85390  0.78350  0.94810  1.0000 -0.5066785511
O   O40       1.0  0.69560  0.80770  0.80660  1.0000 -0.5598353244
O   O41       1.0  0.77300  0.75380  0.56950  1.0000 -0.5781894174
O   O42       1.0  0.84650  0.67970  0.61100  1.0000 -0.5406895724
O   O43       1.0  0.13380  0.71310  0.69050  1.0000 -0.5066785511
O   O44       1.0  0.28230  0.68200  0.82850  1.0000 -0.592057347
O   O45       1.0  0.14630  0.89150  0.13630  1.0000 -0.551049411
O   O46       1.0  0.27560  0.90940  0.08350  1.0000 -0.5406895724
O   O47       1.0  0.83480  0.88900  0.97120  1.0000 -0.5598353244
O   O48       1.0  0.80950  0.92630  0.06900  1.0000 -0.5598353244
