# DDEC6 charges by PACMAN v1.1 (https://github.com/mtap-research/PACMAN-charge/)
data_2019[Cd][sql]2[FSR]13
_chemical_formula_sum              "Cd2 H42 C62 N18 O8"
_cell_length_a       8.736
_cell_length_b       11.972
_cell_length_c       17.13
_cell_angle_alpha    72.856
_cell_angle_beta     81.463
_cell_angle_gamma    80.998

_symmetry_space_group_name_H-M    "P 1"
_symmetry_Int_Tables_number       1

loop_
  _symmetry_equiv_pos_as_xyz
  'x, y, z'

loop_
  _atom_site_type_symbol
  _atom_site_label
  _atom_site_symmetry_multiplicity
  _atom_site_fract_x
  _atom_site_fract_y
  _atom_site_fract_z
  _atom_site_occupancy
  _atom_site_charge
Cd  Cd1       1.0  0.81173  0.43932  0.56253  1.0000 0.8878538399
Cd  Cd2       1.0  0.18827  0.56068  0.43747  1.0000 0.8878538399
H   H1        1.0  0.94472  0.27222  0.94066  1.0000 0.2904076665
H   H2        1.0  0.71484  0.31776  0.33140  1.0000 0.1118991721
H   H3        1.0  0.76729  0.27701  0.20619  1.0000 0.1197260975
H   H4        1.0  0.12649  0.46919  0.14858  1.0000 0.1197260975
H   H5        1.0  0.07208  0.51051  0.27383  1.0000 0.1197260975
H   H6        1.0  0.37019  0.43221  0.94113  1.0000 0.1197260975
H   H7        1.0  0.56779  0.44552  0.83403  1.0000 0.1197260975
H   H8        1.0  0.34005  0.27092  0.73057  1.0000 0.1118991721
H   H9        1.0  0.14627  0.25094  0.84045  1.0000 0.1118991721
H   H10       1.0  0.96531  0.21664  0.48614  1.0000 0.1118991721
H   H11       1.0  0.06673  0.24362  0.69343  1.0000 0.1282877663
H   H12       1.0  0.24102  0.07635  0.66352  1.0000 0.1282877663
H   H13       1.0  0.30203  0.83862  0.28440  1.0000 0.1118991721
H   H14       1.0  0.11040  0.16379  0.26757  1.0000 0.1282877663
H   H15       1.0  0.09327  0.11642  0.14188  1.0000 0.1197260975
H   H16       1.0  0.54586  0.81828  0.64467  1.0000 0.1282877663
H   H17       1.0  0.55407  0.67050  0.46401  1.0000 0.1282877663
H   H18       1.0  0.73416  0.64154  0.66667  1.0000 0.1197260975
H   H19       1.0  0.09787  0.11125  0.41085  1.0000 0.1375222593
H   H20       1.0  0.42240  0.83913  0.39229  1.0000 0.1473520785
H   H21       1.0  0.32890  0.92995  0.60432  1.0000 0.1375222593
H   H22       1.0  0.05528  0.72778  0.05934  1.0000 0.2904076665
H   H23       1.0  0.28516  0.68224  0.66860  1.0000 0.1118991721
H   H24       1.0  0.23271  0.72299  0.79381  1.0000 0.1197260975
H   H25       1.0  0.87351  0.53081  0.85142  1.0000 0.1197260975
H   H26       1.0  0.92792  0.48949  0.72617  1.0000 0.1197260975
H   H27       1.0  0.62981  0.56779  0.05887  1.0000 0.1197260975
H   H28       1.0  0.43221  0.55448  0.16597  1.0000 0.1197260975
H   H29       1.0  0.65995  0.72908  0.26943  1.0000 0.1197260975
H   H30       1.0  0.85373  0.74906  0.15955  1.0000 0.1118991721
H   H31       1.0  0.03469  0.78336  0.51386  1.0000 0.1118991721
H   H32       1.0  0.93327  0.75638  0.30657  1.0000 0.1282877663
H   H33       1.0  0.75898  0.92365  0.33648  1.0000 0.1282877663
H   H34       1.0  0.69797  0.16138  0.71560  1.0000 0.1118991721
H   H35       1.0  0.88960  0.83621  0.73243  1.0000 0.1282877663
H   H36       1.0  0.90673  0.88358  0.85812  1.0000 0.1197260975
H   H37       1.0  0.45414  0.18172  0.35533  1.0000 0.1282877663
H   H38       1.0  0.44593  0.32950  0.53599  1.0000 0.1282877663
H   H39       1.0  0.26584  0.35846  0.33333  1.0000 0.1197260975
H   H40       1.0  0.90213  0.88875  0.58915  1.0000 0.1375222593
H   H41       1.0  0.57760  0.16087  0.60771  1.0000 0.1473520785
H   H42       1.0  0.67110  0.07005  0.39568  1.0000 0.1375222593
C   C1        1.0  0.86120  0.43760  0.39959  1.0000 0.551907578
C   C2        1.0  0.88990  0.41660  0.31617  1.0000 -0.0317530335
C   C3        1.0  0.79790  0.34790  0.29473  1.0000 -0.118844463
C   C4        1.0  0.82870  0.32410  0.21954  1.0000 -0.1406000615
C   C5        1.0  0.95140  0.37020  0.16346  1.0000 0.0342300566
C   C6        1.0  0.04320  0.43900  0.18506  1.0000 -0.1406000615
C   C7        1.0  0.01140  0.46300  0.26047  1.0000 -0.1095343768
C   C8        1.0  0.98790  0.34660  0.08287  1.0000 0.2466653674
C   C9        1.0  0.11590  0.33470  0.97084  1.0000 0.262866178
C   C10       1.0  0.23800  0.34020  0.90171  1.0000 0.0201391368
C   C11       1.0  0.36450  0.39860  0.89927  1.0000 -0.1095343768
C   C12       1.0  0.48250  0.40730  0.83479  1.0000 -0.100786543
C   C13       1.0  0.47390  0.35930  0.77151  1.0000 -0.0195246395
C   C14       1.0  0.34720  0.30220  0.77337  1.0000 -0.1095343768
C   C15       1.0  0.23000  0.29120  0.83892  1.0000 -0.1493157507
C   C16       1.0  0.59940  0.37220  0.70076  1.0000 0.5367472558
C   C17       1.0  0.01200  0.20280  0.53404  1.0000 0.1013570069
C   C18       1.0  0.06840  0.21690  0.64752  1.0000 -0.0094793765
C   C19       1.0  0.16540  0.12390  0.63160  1.0000 -0.1095343768
C   C20       1.0  0.25180  0.91410  0.26417  1.0000 0.1118991721
C   C21       1.0  0.14690  0.09240  0.25610  1.0000 -0.118844463
C   C22       1.0  0.13850  0.06530  0.18700  1.0000 -0.0195246395
C   C23       1.0  0.57040  0.76800  0.61117  1.0000 -0.118844463
C   C24       1.0  0.57640  0.68510  0.51126  1.0000 0.1282877663
C   C25       1.0  0.67420  0.67020  0.62281  1.0000 -0.0317530335
C   C26       1.0  0.20470  0.03410  0.51353  1.0000 0.1943996488
C   C27       1.0  0.17240  0.05080  0.43400  1.0000 -0.3088332624
C   C28       1.0  0.25250  0.97620  0.38908  1.0000 0.2034572302
C   C29       1.0  0.36540  0.88670  0.42322  1.0000 -0.2857059748
C   C30       1.0  0.39150  0.86960  0.50354  1.0000 0.2125821351
C   C31       1.0  0.31120  0.94260  0.55001  1.0000 -0.2975844057
C   C32       1.0  0.13880  0.56240  0.60041  1.0000 0.551907578
C   C33       1.0  0.11010  0.58340  0.68383  1.0000 -0.0317530335
C   C34       1.0  0.20210  0.65210  0.70527  1.0000 -0.118844463
C   C35       1.0  0.17130  0.67590  0.78046  1.0000 -0.1493157507
C   C36       1.0  0.04860  0.62980  0.83654  1.0000 0.0342300566
C   C37       1.0  0.95680  0.56100  0.81494  1.0000 -0.1406000615
C   C38       1.0  0.98860  0.53700  0.73953  1.0000 -0.1095343768
C   C39       1.0  0.01210  0.65340  0.91713  1.0000 0.2466653674
C   C40       1.0  0.88410  0.66530  0.02916  1.0000 0.262866178
C   C41       1.0  0.76200  0.65980  0.09829  1.0000 0.0201391368
C   C42       1.0  0.63550  0.60140  0.10073  1.0000 -0.1095343768
C   C43       1.0  0.51750  0.59270  0.16521  1.0000 -0.100786543
C   C44       1.0  0.52610  0.64070  0.22849  1.0000 -0.0195246395
C   C45       1.0  0.65280  0.69780  0.22663  1.0000 -0.1095343768
C   C46       1.0  0.77000  0.70880  0.16108  1.0000 -0.1493157507
C   C47       1.0  0.40060  0.62780  0.29924  1.0000 0.5367472558
C   C48       1.0  0.98800  0.79720  0.46596  1.0000 0.1013570069
C   C49       1.0  0.93160  0.78310  0.35248  1.0000 -0.0094793765
C   C50       1.0  0.83460  0.87610  0.36840  1.0000 -0.1095343768
C   C51       1.0  0.74820  0.08590  0.73583  1.0000 0.1118991721
C   C52       1.0  0.85310  0.90760  0.74390  1.0000 -0.118844463
C   C53       1.0  0.86150  0.93470  0.81300  1.0000 -0.0195246395
C   C54       1.0  0.42960  0.23200  0.38883  1.0000 -0.118844463
C   C55       1.0  0.42360  0.31490  0.48874  1.0000 0.1282877663
C   C56       1.0  0.32580  0.32980  0.37719  1.0000 -0.0317530335
C   C57       1.0  0.79530  0.96590  0.48647  1.0000 0.1943996488
C   C58       1.0  0.82760  0.94920  0.56600  1.0000 -0.3088332624
C   C59       1.0  0.74750  0.02380  0.61092  1.0000 0.2034572302
C   C60       1.0  0.63460  0.11330  0.57678  1.0000 -0.2823010396
C   C61       1.0  0.60850  0.13040  0.49646  1.0000 0.2125821351
C   C62       1.0  0.68880  0.05740  0.44999  1.0000 -0.2975844057
N   N1        1.0  0.12730  0.36750  0.03712  1.0000 -0.4064767868
N   N2        1.0  0.97610  0.29727  0.97703  1.0000 -0.1493157507
N   N3        1.0  0.89140  0.30469  0.04905  1.0000 -0.2616448612
N   N4        1.0  0.97380  0.26537  0.58637  1.0000 -0.2740483941
N   N5        1.0  0.12880  0.11449  0.55831  1.0000 -0.0041049788
N   N6        1.0  0.20480  0.95290  0.19092  1.0000 -0.2975844057
N   N7        1.0  0.22050  0.99360  0.30741  1.0000 -0.0094793765
N   N8        1.0  0.67830  0.61897  0.55979  1.0000 -0.2823010396
N   N9        1.0  0.50750  0.77852  0.53957  1.0000 -0.0094793765
N   N10       1.0  0.87270  0.63250  0.96288  1.0000 -0.4064767868
N   N11       1.0  0.02390  0.70273  0.02297  1.0000 -0.1493157507
N   N12       1.0  0.10860  0.69531  0.95095  1.0000 -0.2616448612
N   N13       1.0  0.02620  0.73463  0.41363  1.0000 -0.2740483941
N   N14       1.0  0.87120  0.88551  0.44169  1.0000 -0.0041049788
N   N15       1.0  0.79520  0.04710  0.80908  1.0000 -0.2975844057
N   N16       1.0  0.77950  0.00640  0.69259  1.0000 -0.0094793765
N   N17       1.0  0.32170  0.38103  0.44021  1.0000 -0.2823010396
N   N18       1.0  0.49250  0.22148  0.46043  1.0000 -0.0094793765
O   O1        1.0  0.74971  0.39403  0.44881  1.0000 -0.5363896103
O   O2        1.0  0.95183  0.49420  0.41970  1.0000 -0.5692542405
O   O3        1.0  0.57305  0.35646  0.63487  1.0000 -0.5576307984
O   O4        1.0  0.73028  0.39736  0.71009  1.0000 -0.5576307984
O   O5        1.0  0.25029  0.60597  0.55119  1.0000 -0.5363896103
O   O6        1.0  0.04817  0.50580  0.58030  1.0000 -0.5692542405
O   O7        1.0  0.42695  0.64354  0.36513  1.0000 -0.5576307984
O   O8        1.0  0.26972  0.60264  0.28991  1.0000 -0.5576307984
