# DDEC6 charges by PACMAN v1.1 (https://github.com/mtap-research/PACMAN-charge/)
data_2019[Zn][ths]3[FSR]1
_chemical_formula_sum              "Zn2 H16 C26 N2 O10"
_cell_length_a       10.7728
_cell_length_b       10.7728
_cell_length_c       11.8878
_cell_angle_alpha    61.2433
_cell_angle_beta     118.757
_cell_angle_gamma    132.265

_symmetry_space_group_name_H-M    "P 1"
_symmetry_Int_Tables_number       1

loop_
  _symmetry_equiv_pos_as_xyz
  'x, y, z'

loop_
  _atom_site_type_symbol
  _atom_site_label
  _atom_site_symmetry_multiplicity
  _atom_site_fract_x
  _atom_site_fract_y
  _atom_site_fract_z
  _atom_site_occupancy
  _atom_site_charge
Zn  Zn1       1.0  0.81175  0.34007  0.35802  1.0000 0.8397084056
Zn  Zn2       1.0  0.65993  0.18825  0.85802  1.0000 0.8397084056
H   H1        1.0  0.21030  0.23930  0.66970  1.0000 0.1315333773
H   H2        1.0  0.87750  0.09970  0.83910  1.0000 0.1381893038
H   H3        1.0  0.03270  0.03110  0.04270  1.0000 0.123106192
H   H4        1.0  0.26920  0.73980  0.38630  1.0000 0.1575706183
H   H5        1.0  0.10800  0.80500  0.17930  1.0000 0.1315333773
H   H6        1.0  0.54210  0.26990  0.10860  1.0000 0.123106192
H   H7        1.0  0.54860  0.95400  0.45510  1.0000 0.1315333773
H   H8        1.0  0.88100  0.50960  0.14220  1.0000 0.3660816132
H   H9        1.0  0.76070  0.78970  0.16970  1.0000 0.1315333773
H   H10       1.0  0.90030  0.12250  0.33910  1.0000 0.1381893038
H   H11       1.0  0.96890  0.96730  0.54270  1.0000 0.123106192
H   H12       1.0  0.26020  0.73080  0.88630  1.0000 0.1575706183
H   H13       1.0  0.19500  0.89200  0.67930  1.0000 0.1315333773
H   H14       1.0  0.73010  0.45790  0.60860  1.0000 0.123106192
H   H15       1.0  0.04600  0.45140  0.95510  1.0000 0.1315333773
H   H16       1.0  0.49040  0.11900  0.64220  1.0000 0.3660816132
C   C1        1.0  0.92190  0.21810  0.59570  1.0000 0.5421304732
C   C2        1.0  0.02640  0.17620  0.73070  1.0000 0.0102305455
C   C3        1.0  0.17310  0.19490  0.74500  1.0000 -0.1255360217
C   C4        1.0  0.21600  0.08760  0.98320  1.0000 0.0525055482
C   C5        1.0  0.97540  0.11340  0.84530  1.0000 -0.077759345
C   C6        1.0  0.06880  0.07140  0.96790  1.0000 -0.1372397513
C   C7        1.0  0.26710  0.15050  0.86610  1.0000 -0.0403596805
C   C8        1.0  0.32070  0.84910  0.32970  1.0000 -0.1009005652
C   C9        1.0  0.22660  0.88540  0.20420  1.0000 -0.068157588
C   C10       1.0  0.31030  0.04170  0.11630  1.0000 0.040321204
C   C11       1.0  0.48450  0.16190  0.16480  1.0000 0.0681318222
C   C12       1.0  0.48850  0.97530  0.36830  1.0000 0.0782821058
C   C13       1.0  0.41610  0.16150  0.87020  1.0000 0.5421304732
C   C14       1.0  0.78190  0.07810  0.09570  1.0000 0.5421304732
C   C15       1.0  0.82380  0.97360  0.23070  1.0000 0.0102305455
C   C16       1.0  0.80510  0.82690  0.24500  1.0000 -0.1255360217
C   C17       1.0  0.91240  0.78400  0.48320  1.0000 0.0525055482
C   C18       1.0  0.88660  0.02460  0.34530  1.0000 -0.077759345
C   C19       1.0  0.92860  0.93120  0.46790  1.0000 -0.1372397513
C   C20       1.0  0.84950  0.73290  0.36610  1.0000 -0.0403596805
C   C21       1.0  0.15090  0.67930  0.82970  1.0000 -0.1009005652
C   C22       1.0  0.11460  0.77340  0.70420  1.0000 -0.068157588
C   C23       1.0  0.95830  0.68970  0.61630  1.0000 0.040321204
C   C24       1.0  0.83810  0.51550  0.66480  1.0000 0.0681318222
C   C25       1.0  0.02470  0.51150  0.86830  1.0000 0.0782821058
C   C26       1.0  0.83850  0.58390  0.37020  1.0000 0.5421304732
N   N1        1.0  0.57220  0.13020  0.28670  1.0000 -0.2035504253
N   N2        1.0  0.86980  0.42780  0.78670  1.0000 -0.2035504253
O   O1        1.0  0.78500  0.18960  0.58860  1.0000 -0.5175077141
O   O2        1.0  0.52890  0.30230  0.80940  1.0000 -0.5175077141
O   O3        1.0  0.97590  0.27550  0.49850  1.0000 -0.4896344067
O   O4        1.0  0.42110  0.03690  0.92360  1.0000 -0.4647260428
O   O5        1.0  0.90970  0.44530  0.19980  1.0000 -0.7332153739
O   O6        1.0  0.81040  0.21500  0.08860  1.0000 -0.5175077141
O   O7        1.0  0.69770  0.47110  0.30940  1.0000 -0.5175077141
O   O8        1.0  0.72450  0.02410  0.99850  1.0000 -0.4896344067
O   O9        1.0  0.96310  0.57890  0.42360  1.0000 -0.4647260428
O   O10       1.0  0.55470  0.09030  0.69980  1.0000 -0.7332153739
