# DDEC6 charges by PACMAN v1.1 (https://github.com/mtap-research/PACMAN-charge/)
data_2019[Cu][hxg]3[FSR]1
_chemical_formula_sum              "Cu24 H48 C96 N48 O56"
_cell_length_a       21.3991
_cell_length_b       21.3253
_cell_length_c       21.094
_cell_angle_alpha    60.5888
_cell_angle_beta     60.2405
_cell_angle_gamma    59.1708

_symmetry_space_group_name_H-M    "P 1"
_symmetry_Int_Tables_number       1

loop_
  _symmetry_equiv_pos_as_xyz
  'x, y, z'

loop_
  _atom_site_type_symbol
  _atom_site_label
  _atom_site_symmetry_multiplicity
  _atom_site_fract_x
  _atom_site_fract_y
  _atom_site_fract_z
  _atom_site_occupancy
  _atom_site_charge
Cu  Cu1       1.0  0.76352  0.93224  0.38016  1.0000 0.8103377623
Cu  Cu2       1.0  0.86103  0.75481  0.37127  1.0000 0.8284016056
Cu  Cu3       1.0  0.94843  0.84721  0.37269  1.0000 0.846281114
Cu  Cu4       1.0  0.92408  0.38016  0.93224  1.0000 0.8103377623
Cu  Cu5       1.0  0.01289  0.37127  0.75481  1.0000 0.8284016056
Cu  Cu6       1.0  0.83167  0.37269  0.84721  1.0000 0.8430652135
Cu  Cu7       1.0  0.93224  0.76352  0.92408  1.0000 0.8103377623
Cu  Cu8       1.0  0.75481  0.86103  0.01289  1.0000 0.8284016056
Cu  Cu9       1.0  0.84721  0.94843  0.83167  1.0000 0.8430652135
Cu  Cu10      1.0  0.38016  0.92408  0.76352  1.0000 0.8103377623
Cu  Cu11      1.0  0.37127  0.01289  0.86103  1.0000 0.8284016056
Cu  Cu12      1.0  0.37269  0.83167  0.94843  1.0000 0.8430652135
Cu  Cu13      1.0  0.48648  0.31776  0.86984  1.0000 0.8103377623
Cu  Cu14      1.0  0.38897  0.49519  0.87873  1.0000 0.8284016056
Cu  Cu15      1.0  0.30157  0.40279  0.87731  1.0000 0.8430652135
Cu  Cu16      1.0  0.32592  0.86984  0.31776  1.0000 0.8103377623
Cu  Cu17      1.0  0.23711  0.87873  0.49519  1.0000 0.8284016056
Cu  Cu18      1.0  0.41833  0.87731  0.40279  1.0000 0.8430652135
Cu  Cu19      1.0  0.31776  0.48648  0.32592  1.0000 0.8103377623
Cu  Cu20      1.0  0.49519  0.38897  0.23711  1.0000 0.8284016056
Cu  Cu21      1.0  0.40279  0.30157  0.41833  1.0000 0.8430652135
Cu  Cu22      1.0  0.86984  0.32592  0.48648  1.0000 0.8103377623
Cu  Cu23      1.0  0.87873  0.23711  0.38897  1.0000 0.8284016056
Cu  Cu24      1.0  0.87731  0.41833  0.30157  1.0000 0.8430652135
H   H1        1.0  0.60110  0.94270  0.39750  1.0000 0.137691061
H   H2        1.0  0.71320  0.72180  0.40760  1.0000 0.1318509693
H   H3        1.0  0.01820  0.61660  0.32140  1.0000 0.1318509693
H   H4        1.0  0.11570  0.71230  0.35030  1.0000 0.137691061
H   H5        1.0  0.95810  0.99410  0.37390  1.0000 0.137691061
H   H6        1.0  0.73420  0.08940  0.39280  1.0000 0.1318509693
H   H7        1.0  0.05870  0.39750  0.94270  1.0000 0.137691061
H   H8        1.0  0.15740  0.40760  0.72180  1.0000 0.1318509693
H   H9        1.0  0.04380  0.32140  0.61660  1.0000 0.1318509693
H   H10       1.0  0.82170  0.35030  0.71230  1.0000 0.137691061
H   H11       1.0  0.67390  0.37390  0.99410  1.0000 0.137691061
H   H12       1.0  0.78360  0.39280  0.08940  1.0000 0.1318509693
H   H13       1.0  0.94270  0.60110  0.05870  1.0000 0.137691061
H   H14       1.0  0.72180  0.71320  0.15740  1.0000 0.1318509693
H   H15       1.0  0.61660  0.01820  0.04380  1.0000 0.1318509693
H   H16       1.0  0.71230  0.11570  0.82170  1.0000 0.137691061
H   H17       1.0  0.99410  0.95810  0.67390  1.0000 0.137691061
H   H18       1.0  0.08940  0.73420  0.78360  1.0000 0.1318509693
H   H19       1.0  0.39750  0.05870  0.60110  1.0000 0.137691061
H   H20       1.0  0.40760  0.15740  0.71320  1.0000 0.1318509693
H   H21       1.0  0.32140  0.04380  0.01820  1.0000 0.1318509693
H   H22       1.0  0.35030  0.82170  0.11570  1.0000 0.137691061
H   H23       1.0  0.37390  0.67390  0.95810  1.0000 0.137691061
H   H24       1.0  0.39280  0.78360  0.73420  1.0000 0.1318509693
H   H25       1.0  0.64890  0.30730  0.85250  1.0000 0.137691061
H   H26       1.0  0.53680  0.52820  0.84240  1.0000 0.1318509693
H   H27       1.0  0.23180  0.63340  0.92860  1.0000 0.1318509693
H   H28       1.0  0.13430  0.53770  0.89970  1.0000 0.137691061
H   H29       1.0  0.29190  0.25590  0.87610  1.0000 0.137691061
H   H30       1.0  0.51580  0.16060  0.85720  1.0000 0.1318509693
H   H31       1.0  0.19130  0.85250  0.30730  1.0000 0.137691061
H   H32       1.0  0.09260  0.84240  0.52820  1.0000 0.1318509693
H   H33       1.0  0.20620  0.92860  0.63340  1.0000 0.1318509693
H   H34       1.0  0.42830  0.89970  0.53770  1.0000 0.137691061
H   H35       1.0  0.57610  0.87610  0.25590  1.0000 0.137691061
H   H36       1.0  0.46640  0.85720  0.16060  1.0000 0.1318509693
H   H37       1.0  0.30730  0.64890  0.19130  1.0000 0.137691061
H   H38       1.0  0.52820  0.53680  0.09260  1.0000 0.1318509693
H   H39       1.0  0.63340  0.23180  0.20620  1.0000 0.1318509693
H   H40       1.0  0.53770  0.13430  0.42830  1.0000 0.137691061
H   H41       1.0  0.25590  0.29190  0.57610  1.0000 0.137691061
H   H42       1.0  0.16060  0.51580  0.46640  1.0000 0.1318509693
H   H43       1.0  0.85250  0.19130  0.64890  1.0000 0.137691061
H   H44       1.0  0.84240  0.09260  0.53680  1.0000 0.1318509693
H   H45       1.0  0.92860  0.20620  0.23180  1.0000 0.1318509693
H   H46       1.0  0.89970  0.42830  0.13430  1.0000 0.137691061
H   H47       1.0  0.87610  0.57610  0.29190  1.0000 0.137691061
H   H48       1.0  0.85720  0.46640  0.51580  1.0000 0.1318509693
C   C1        1.0  0.63873  0.89417  0.39711  1.0000 -0.00266436
C   C2        1.0  0.62758  0.83088  0.40432  1.0000 -0.0912055103
C   C3        1.0  0.70100  0.77240  0.40200  1.0000 0.0018556538
C   C4        1.0  0.02652  0.65012  0.32996  1.0000 0.0258688859
C   C5        1.0  0.09645  0.64135  0.32699  1.0000 -0.1033545715
C   C6        1.0  0.08007  0.70319  0.34599  1.0000 0.0180000322
C   C7        1.0  0.90927  0.00243  0.37809  1.0000 -0.010362806
C   C8        1.0  0.84452  0.06892  0.38532  1.0000 -0.0843342441
C   C9        1.0  0.78462  0.05520  0.38842  1.0000 0.0374469077
C   C10       1.0  0.17182  0.57750  0.31276  1.0000 0.5758578284
C   C11       1.0  0.84219  0.13861  0.38697  1.0000 0.5657364455
C   C12       1.0  0.55720  0.82640  0.41380  1.0000 0.5614541796
C   C13       1.0  0.06999  0.39711  0.89417  1.0000 -0.00266436
C   C14       1.0  0.13722  0.40432  0.83088  1.0000 -0.0912055103
C   C15       1.0  0.12460  0.40200  0.77240  1.0000 0.0018556538
C   C16       1.0  0.99340  0.32996  0.65012  1.0000 0.0180000322
C   C17       1.0  0.93521  0.32699  0.64135  1.0000 -0.1033545715
C   C18       1.0  0.87075  0.34599  0.70319  1.0000 0.0180000322
C   C19       1.0  0.71021  0.37809  0.00243  1.0000 -0.010362806
C   C20       1.0  0.70124  0.38532  0.06892  1.0000 -0.0912055103
C   C21       1.0  0.77176  0.38842  0.05520  1.0000 0.0374469077
C   C22       1.0  0.93792  0.31276  0.57750  1.0000 0.5758578284
C   C23       1.0  0.63223  0.38697  0.13861  1.0000 0.5657364455
C   C24       1.0  0.20260  0.41380  0.82640  1.0000 0.5614541796
C   C25       1.0  0.89417  0.63873  0.06999  1.0000 -0.00266436
C   C26       1.0  0.83088  0.62758  0.13722  1.0000 -0.0912055103
C   C27       1.0  0.77240  0.70100  0.12460  1.0000 0.0018556538
C   C28       1.0  0.65012  0.02652  0.99340  1.0000 0.0258688859
C   C29       1.0  0.64135  0.09645  0.93521  1.0000 -0.1033545715
C   C30       1.0  0.70319  0.08007  0.87075  1.0000 0.0180000322
C   C31       1.0  0.00243  0.90927  0.71021  1.0000 -0.010362806
C   C32       1.0  0.06892  0.84452  0.70124  1.0000 -0.0843342441
C   C33       1.0  0.05520  0.78462  0.77176  1.0000 0.0374469077
C   C34       1.0  0.57750  0.17182  0.93792  1.0000 0.5758578284
C   C35       1.0  0.13861  0.84219  0.63223  1.0000 0.5657364455
C   C36       1.0  0.82640  0.55720  0.20260  1.0000 0.5614541796
C   C37       1.0  0.39711  0.06999  0.63873  1.0000 -0.00266436
C   C38       1.0  0.40432  0.13722  0.62758  1.0000 -0.0912055103
C   C39       1.0  0.40200  0.12460  0.70100  1.0000 0.0018556538
C   C40       1.0  0.32996  0.99340  0.02652  1.0000 0.0258688859
C   C41       1.0  0.32699  0.93521  0.09645  1.0000 -0.1033545715
C   C42       1.0  0.34599  0.87075  0.08007  1.0000 0.0180000322
C   C43       1.0  0.37809  0.71021  0.90927  1.0000 -0.010362806
C   C44       1.0  0.38532  0.70124  0.84452  1.0000 -0.0912055103
C   C45       1.0  0.38842  0.77176  0.78462  1.0000 0.0374469077
C   C46       1.0  0.31276  0.93792  0.17182  1.0000 0.5758578284
C   C47       1.0  0.38697  0.63223  0.84219  1.0000 0.5657364455
C   C48       1.0  0.41380  0.20260  0.55720  1.0000 0.5614541796
C   C49       1.0  0.61127  0.35583  0.85289  1.0000 -0.00266436
C   C50       1.0  0.62242  0.41912  0.84568  1.0000 -0.0912055103
C   C51       1.0  0.54900  0.47760  0.84800  1.0000 0.0018556538
C   C52       1.0  0.22348  0.59988  0.92004  1.0000 0.0258688859
C   C53       1.0  0.15355  0.60865  0.92301  1.0000 -0.1033545715
C   C54       1.0  0.16993  0.54681  0.90401  1.0000 0.0180000322
C   C55       1.0  0.34073  0.24757  0.87191  1.0000 -0.010362806
C   C56       1.0  0.40548  0.18108  0.86468  1.0000 -0.0843342441
C   C57       1.0  0.46538  0.19480  0.86158  1.0000 0.0374469077
C   C58       1.0  0.07818  0.67250  0.93724  1.0000 0.5758578284
C   C59       1.0  0.40781  0.11139  0.86303  1.0000 0.5657364455
C   C60       1.0  0.69280  0.42360  0.83620  1.0000 0.5614541796
C   C61       1.0  0.18001  0.85289  0.35583  1.0000 -0.00266436
C   C62       1.0  0.11278  0.84568  0.41912  1.0000 -0.0912055103
C   C63       1.0  0.12540  0.84800  0.47760  1.0000 0.0018556538
C   C64       1.0  0.25660  0.92004  0.59988  1.0000 0.0258688859
C   C65       1.0  0.31479  0.92301  0.60865  1.0000 -0.1052629398
C   C66       1.0  0.37925  0.90401  0.54681  1.0000 0.0180000322
C   C67       1.0  0.53979  0.87191  0.24757  1.0000 -0.010362806
C   C68       1.0  0.54876  0.86468  0.18108  1.0000 -0.0912055103
C   C69       1.0  0.47824  0.86158  0.19480  1.0000 0.0374469077
C   C70       1.0  0.31208  0.93724  0.67250  1.0000 0.5758578284
C   C71       1.0  0.61777  0.86303  0.11139  1.0000 0.5657364455
C   C72       1.0  0.04740  0.83620  0.42360  1.0000 0.5614541796
C   C73       1.0  0.35583  0.61127  0.18001  1.0000 -0.00266436
C   C74       1.0  0.41912  0.62242  0.11278  1.0000 -0.0912055103
C   C75       1.0  0.47760  0.54900  0.12540  1.0000 0.0018556538
C   C76       1.0  0.59988  0.22348  0.25660  1.0000 0.0258688859
C   C77       1.0  0.60865  0.15355  0.31479  1.0000 -0.1033545715
C   C78       1.0  0.54681  0.16993  0.37925  1.0000 0.0180000322
C   C79       1.0  0.24757  0.34073  0.53979  1.0000 -0.010362806
C   C80       1.0  0.18108  0.40548  0.54876  1.0000 -0.0843342441
C   C81       1.0  0.19480  0.46538  0.47824  1.0000 0.0374469077
C   C82       1.0  0.67250  0.07818  0.31208  1.0000 0.5758578284
C   C83       1.0  0.11139  0.40781  0.61777  1.0000 0.5657364455
C   C84       1.0  0.42360  0.69280  0.04740  1.0000 0.5614541796
C   C85       1.0  0.85289  0.18001  0.61127  1.0000 -0.00266436
C   C86       1.0  0.84568  0.11278  0.62242  1.0000 -0.0912055103
C   C87       1.0  0.84800  0.12540  0.54900  1.0000 0.0018556538
C   C88       1.0  0.92004  0.25660  0.22348  1.0000 0.0258688859
C   C89       1.0  0.92301  0.31479  0.15355  1.0000 -0.1033545715
C   C90       1.0  0.90401  0.37925  0.16993  1.0000 0.0180000322
C   C91       1.0  0.87191  0.53979  0.34073  1.0000 -0.010362806
C   C92       1.0  0.86468  0.54876  0.40548  1.0000 -0.0912055103
C   C93       1.0  0.86158  0.47824  0.46538  1.0000 0.0374469077
C   C94       1.0  0.93724  0.31208  0.07818  1.0000 0.5758578284
C   C95       1.0  0.86303  0.61777  0.40781  1.0000 0.5657364455
C   C96       1.0  0.83620  0.04740  0.69280  1.0000 0.5614541796
N   N1        1.0  0.75079  0.80107  0.39031  1.0000 -0.1372724166
N   N2        1.0  0.71198  0.87348  0.38960  1.0000 -0.123286902
N   N3        1.0  0.81291  0.98553  0.38391  1.0000 -0.1286279047
N   N4        1.0  0.88801  0.95163  0.37823  1.0000 -0.160141686
N   N5        1.0  0.00637  0.74739  0.35697  1.0000 -0.160141686
N   N6        1.0  0.97276  0.71434  0.34702  1.0000 -0.1666903873
N   N7        1.0  0.05783  0.39031  0.80107  1.0000 -0.1372724166
N   N8        1.0  0.02494  0.38960  0.87348  1.0000 -0.123286902
N   N9        1.0  0.81765  0.38391  0.98553  1.0000 -0.1286279047
N   N10       1.0  0.78213  0.37823  0.95163  1.0000 -0.1541898223
N   N11       1.0  0.88927  0.35697  0.74739  1.0000 -0.160141686
N   N12       1.0  0.96588  0.34702  0.71434  1.0000 -0.160141686
N   N13       1.0  0.80107  0.75079  0.05783  1.0000 -0.1372724166
N   N14       1.0  0.87348  0.71198  0.02494  1.0000 -0.123286902
N   N15       1.0  0.98553  0.81291  0.81765  1.0000 -0.1286279047
N   N16       1.0  0.95163  0.88801  0.78213  1.0000 -0.160141686
N   N17       1.0  0.74739  0.00637  0.88927  1.0000 -0.160141686
N   N18       1.0  0.71434  0.97276  0.96588  1.0000 -0.1666903873
N   N19       1.0  0.39031  0.05783  0.75079  1.0000 -0.1372724166
N   N20       1.0  0.38960  0.02494  0.71198  1.0000 -0.123286902
N   N21       1.0  0.38391  0.81765  0.81291  1.0000 -0.1286279047
N   N22       1.0  0.37823  0.78213  0.88801  1.0000 -0.160141686
N   N23       1.0  0.35697  0.88927  0.00637  1.0000 -0.160141686
N   N24       1.0  0.34702  0.96588  0.97276  1.0000 -0.1666903873
N   N25       1.0  0.49921  0.44893  0.85969  1.0000 -0.1372724166
N   N26       1.0  0.53802  0.37652  0.86040  1.0000 -0.123286902
N   N27       1.0  0.43709  0.26447  0.86609  1.0000 -0.1286279047
N   N28       1.0  0.36199  0.29837  0.87177  1.0000 -0.160141686
N   N29       1.0  0.24363  0.50261  0.89303  1.0000 -0.160141686
N   N30       1.0  0.27724  0.53566  0.90298  1.0000 -0.1666903873
N   N31       1.0  0.19217  0.85969  0.44893  1.0000 -0.1372724166
N   N32       1.0  0.22506  0.86040  0.37652  1.0000 -0.123286902
N   N33       1.0  0.43235  0.86609  0.26447  1.0000 -0.1286279047
N   N34       1.0  0.46787  0.87177  0.29837  1.0000 -0.160141686
N   N35       1.0  0.36073  0.89303  0.50261  1.0000 -0.160141686
N   N36       1.0  0.28412  0.90298  0.53566  1.0000 -0.1666903873
N   N37       1.0  0.44893  0.49921  0.19217  1.0000 -0.1372724166
N   N38       1.0  0.37652  0.53802  0.22506  1.0000 -0.123286902
N   N39       1.0  0.26447  0.43709  0.43235  1.0000 -0.1286279047
N   N40       1.0  0.29837  0.36199  0.46787  1.0000 -0.160141686
N   N41       1.0  0.50261  0.24363  0.36073  1.0000 -0.160141686
N   N42       1.0  0.53566  0.27724  0.28412  1.0000 -0.1666903873
N   N43       1.0  0.85969  0.19217  0.49921  1.0000 -0.1372724166
N   N44       1.0  0.86040  0.22506  0.53802  1.0000 -0.123286902
N   N45       1.0  0.86609  0.43235  0.43709  1.0000 -0.1286279047
N   N46       1.0  0.87177  0.46787  0.36199  1.0000 -0.160141686
N   N47       1.0  0.89303  0.36073  0.24363  1.0000 -0.160141686
N   N48       1.0  0.90298  0.28412  0.27724  1.0000 -0.1666903873
O   O1        1.0  0.22503  0.57869  0.32225  1.0000 -0.5325463089
O   O2        1.0  0.17830  0.52704  0.29384  1.0000 -0.4792193743
O   O3        1.0  0.90262  0.13762  0.38104  1.0000 -0.4869271137
O   O4        1.0  0.77786  0.19572  0.39306  1.0000 -0.5504306602
O   O5        1.0  0.50452  0.89144  0.39746  1.0000 -0.5195410447
O   O6        1.0  0.55177  0.76567  0.43313  1.0000 -0.4792193743
O   O7        1.0  0.85049  0.83309  0.40509  1.0000 -0.8596645342
O   O8        1.0  0.87403  0.32225  0.57869  1.0000 -0.5325463089
O   O9        1.0  0.00082  0.29384  0.52704  1.0000 -0.4792193743
O   O10       1.0  0.57872  0.38104  0.13762  1.0000 -0.4869271137
O   O11       1.0  0.63336  0.39306  0.19572  1.0000 -0.5504306602
O   O12       1.0  0.20658  0.39746  0.89144  1.0000 -0.5195410447
O   O13       1.0  0.24943  0.43313  0.76567  1.0000 -0.4731341622
O   O14       1.0  0.91133  0.40509  0.83309  1.0000 -0.8596645342
O   O15       1.0  0.57869  0.22503  0.87403  1.0000 -0.5325463089
O   O16       1.0  0.52704  0.17830  0.00082  1.0000 -0.4792193743
O   O17       1.0  0.13762  0.90262  0.57872  1.0000 -0.4869271137
O   O18       1.0  0.19572  0.77786  0.63336  1.0000 -0.5504306602
O   O19       1.0  0.89144  0.50452  0.20658  1.0000 -0.5195410447
O   O20       1.0  0.76567  0.55177  0.24943  1.0000 -0.4731341622
O   O21       1.0  0.83309  0.85049  0.91133  1.0000 -0.8596645342
O   O22       1.0  0.32225  0.87403  0.22503  1.0000 -0.5325463089
O   O23       1.0  0.29384  0.00082  0.17830  1.0000 -0.4869271137
O   O24       1.0  0.38104  0.57872  0.90262  1.0000 -0.4869271137
O   O25       1.0  0.39306  0.63336  0.77786  1.0000 -0.5504306602
O   O26       1.0  0.39746  0.20658  0.50452  1.0000 -0.5195410447
O   O27       1.0  0.43313  0.24943  0.55177  1.0000 -0.4731341622
O   O28       1.0  0.40509  0.91133  0.85049  1.0000 -0.8596645342
O   O29       1.0  0.02497  0.67131  0.92775  1.0000 -0.5325463089
O   O30       1.0  0.07170  0.72296  0.95616  1.0000 -0.4869271137
O   O31       1.0  0.34738  0.11238  0.86896  1.0000 -0.4869271137
O   O32       1.0  0.47214  0.05428  0.85694  1.0000 -0.5504306602
O   O33       1.0  0.74548  0.35856  0.85254  1.0000 -0.5195410447
O   O34       1.0  0.69823  0.48433  0.81687  1.0000 -0.4731341622
O   O35       1.0  0.39951  0.41691  0.84491  1.0000 -0.8596645342
O   O36       1.0  0.37597  0.92775  0.67131  1.0000 -0.5325463089
O   O37       1.0  0.24918  0.95616  0.72296  1.0000 -0.4792193743
O   O38       1.0  0.67128  0.86896  0.11238  1.0000 -0.4869271137
O   O39       1.0  0.61664  0.85694  0.05428  1.0000 -0.5504306602
O   O40       1.0  0.04342  0.85254  0.35856  1.0000 -0.5195410447
O   O41       1.0  0.00057  0.81687  0.48433  1.0000 -0.4731341622
O   O42       1.0  0.33867  0.84491  0.41691  1.0000 -0.8596645342
O   O43       1.0  0.67131  0.02497  0.37597  1.0000 -0.5325463089
O   O44       1.0  0.72296  0.07170  0.24918  1.0000 -0.4869271137
O   O45       1.0  0.11238  0.34738  0.67128  1.0000 -0.4792193743
O   O46       1.0  0.05428  0.47214  0.61664  1.0000 -0.5504306602
O   O47       1.0  0.35856  0.74548  0.04342  1.0000 -0.5195410447
O   O48       1.0  0.48433  0.69823  0.00057  1.0000 -0.4792193743
O   O49       1.0  0.41691  0.39951  0.33867  1.0000 -0.8596645342
O   O50       1.0  0.92775  0.37597  0.02497  1.0000 -0.5325463089
O   O51       1.0  0.95616  0.24918  0.07170  1.0000 -0.4869271137
O   O52       1.0  0.86896  0.67128  0.34738  1.0000 -0.4869271137
O   O53       1.0  0.85694  0.61664  0.47214  1.0000 -0.5504306602
O   O54       1.0  0.85254  0.04342  0.74548  1.0000 -0.5195410447
O   O55       1.0  0.81687  0.00057  0.69823  1.0000 -0.4731341622
O   O56       1.0  0.84491  0.33867  0.39951  1.0000 -0.8596645342
