# DDEC6 charges by PACMAN v1.1 (https://github.com/mtap-research/PACMAN-charge/)
data_2019[Zn][nan]3[FSR]10
_chemical_formula_sum              "Zn7 H28 C56 S4 O32"
_cell_length_a       8.2668
_cell_length_b       14.552
_cell_length_c       16.0522
_cell_angle_alpha    62.5821
_cell_angle_beta     82.0291
_cell_angle_gamma    84.92

_symmetry_space_group_name_H-M    "P 1"
_symmetry_Int_Tables_number       1

loop_
  _symmetry_equiv_pos_as_xyz
  'x, y, z'

loop_
  _atom_site_type_symbol
  _atom_site_label
  _atom_site_symmetry_multiplicity
  _atom_site_fract_x
  _atom_site_fract_y
  _atom_site_fract_z
  _atom_site_occupancy
  _atom_site_charge
Zn  Zn1       1.0  0.09797  0.95291  0.08603  1.0000 1.0255160129
Zn  Zn2       1.0  0.60910  0.20726  0.99154  1.0000 1.0255160129
Zn  Zn3       1.0  0.00985  0.77432  0.02163  1.0000 1.0702339208
Zn  Zn4       1.0  0.90203  0.04709  0.91397  1.0000 1.0255160129
Zn  Zn5       1.0  0.39090  0.79274  0.00846  1.0000 1.0222896135
Zn  Zn6       1.0  0.99015  0.22568  0.97837  1.0000 1.0702339208
Zn  Zn7       1.0  0.50000  0.00000  0.00000  1.0000 1.0222896135
H   H1        1.0  0.75230  0.68590  0.07810  1.0000 0.3471568472
H   H2        1.0  0.87590  0.60920  0.10470  1.0000 0.3654210961
H   H3        1.0  0.22040  0.73340  0.36640  1.0000 0.1311383445
H   H4        1.0  0.09630  0.53030  0.28410  1.0000 0.1311383445
H   H5        1.0  0.31010  0.17000  0.73630  1.0000 0.1311383445
H   H6        1.0  0.41240  0.43230  0.74200  1.0000 0.1311383445
H   H7        1.0  0.15020  0.39300  0.42690  1.0000 0.1479469087
H   H8        1.0  0.26130  0.90470  0.27650  1.0000 0.1244756004
H   H9        1.0  0.22180  0.26550  0.58850  1.0000 0.1311383445
H   H10       1.0  0.38070  0.17430  0.25800  1.0000 0.1479469087
H   H11       1.0  0.12060  0.79750  0.60630  1.0000 0.1479469087
H   H12       1.0  0.17920  0.84360  0.43600  1.0000 0.1311383445
H   H13       1.0  0.05010  0.78790  0.75430  1.0000 0.1311383445
H   H14       1.0  0.19570  0.07610  0.66230  1.0000 0.1311383445
H   H15       1.0  0.24770  0.31410  0.92190  1.0000 0.3471568472
H   H16       1.0  0.12410  0.39080  0.89530  1.0000 0.3646352088
H   H17       1.0  0.77960  0.26660  0.63360  1.0000 0.1311383445
H   H18       1.0  0.90370  0.46970  0.71590  1.0000 0.1311383445
H   H19       1.0  0.68990  0.83000  0.26370  1.0000 0.1311383445
H   H20       1.0  0.58760  0.56770  0.25800  1.0000 0.1311383445
H   H21       1.0  0.84980  0.60700  0.57310  1.0000 0.1479469087
H   H22       1.0  0.73870  0.09530  0.72350  1.0000 0.1244756004
H   H23       1.0  0.77820  0.73450  0.41150  1.0000 0.1311383445
H   H24       1.0  0.61930  0.82570  0.74200  1.0000 0.1479469087
H   H25       1.0  0.87940  0.20250  0.39370  1.0000 0.1479469087
H   H26       1.0  0.82080  0.15640  0.56400  1.0000 0.1311383445
H   H27       1.0  0.94990  0.21210  0.24570  1.0000 0.1311383445
H   H28       1.0  0.80430  0.92390  0.33770  1.0000 0.1311383445
C   C1        1.0  0.05590  0.92230  0.81970  1.0000 0.580474416
C   C2        1.0  0.11310  0.93000  0.72330  1.0000 -0.013765808
C   C3        1.0  0.43770  0.22930  0.84500  1.0000 0.5738515353
C   C4        1.0  0.37320  0.29180  0.75240  1.0000 -0.0294849312
C   C5        1.0  0.15370  0.64540  0.30990  1.0000 -0.0180596176
C   C6        1.0  0.23570  0.58290  0.46350  1.0000 -0.1215860748
C   C7        1.0  0.11590  0.73160  0.21660  1.0000 0.580474416
C   C8        1.0  0.20580  0.66570  0.37790  1.0000 -0.1013097034
C   C9        1.0  0.31550  0.45350  0.62520  1.0000 -0.1215860748
C   C10       1.0  0.13280  0.54350  0.32970  1.0000 -0.0808412511
C   C11       1.0  0.31350  0.24190  0.70720  1.0000 -0.0808412511
C   C12       1.0  0.38170  0.08210  0.14840  1.0000 0.6040028727
C   C13       1.0  0.26170  0.40610  0.57730  1.0000 0.0619746318
C   C14       1.0  0.37390  0.39860  0.71190  1.0000 -0.1111470514
C   C15       1.0  0.29470  0.06930  0.38910  1.0000 -0.1215860748
C   C16       1.0  0.23730  0.97050  0.44380  1.0000 0.0619746318
C   C17       1.0  0.16450  0.46070  0.41520  1.0000 -0.0899336429
C   C18       1.0  0.19460  0.94500  0.54390  1.0000 0.050020423
C   C19       1.0  0.26930  0.94670  0.30520  1.0000 -0.0899336429
C   C20       1.0  0.32830  0.04500  0.25150  1.0000 -0.0180596176
C   C21       1.0  0.21780  0.48150  0.48250  1.0000 0.050020423
C   C22       1.0  0.25940  0.29890  0.61920  1.0000 -0.1013097034
C   C23       1.0  0.34140  0.10770  0.29340  1.0000 -0.0899336429
C   C24       1.0  0.13380  0.85410  0.61660  1.0000 -0.0899336429
C   C25       1.0  0.21920  0.02650  0.56340  1.0000 -0.1215860748
C   C26       1.0  0.22160  0.90940  0.40100  1.0000 -0.1013097034
C   C27       1.0  0.09280  0.84880  0.70530  1.0000 -0.0808412511
C   C28       1.0  0.17910  0.02060  0.65110  1.0000 -0.1013097034
C   C29       1.0  0.94410  0.07770  0.18030  1.0000 0.580474416
C   C30       1.0  0.88690  0.07000  0.27670  1.0000 -0.013765808
C   C31       1.0  0.56230  0.77070  0.15500  1.0000 0.5738515353
C   C32       1.0  0.62680  0.70820  0.24760  1.0000 -0.0294849312
C   C33       1.0  0.84630  0.35460  0.69010  1.0000 -0.0180596176
C   C34       1.0  0.76430  0.41710  0.53650  1.0000 -0.1215860748
C   C35       1.0  0.88410  0.26840  0.78340  1.0000 0.580474416
C   C36       1.0  0.79420  0.33430  0.62210  1.0000 -0.1013097034
C   C37       1.0  0.68450  0.54650  0.37480  1.0000 -0.1215860748
C   C38       1.0  0.86720  0.45650  0.67030  1.0000 -0.0808412511
C   C39       1.0  0.68650  0.75810  0.29280  1.0000 -0.0808412511
C   C40       1.0  0.61830  0.91790  0.85160  1.0000 0.6040028727
C   C41       1.0  0.73830  0.59390  0.42270  1.0000 0.0619746318
C   C42       1.0  0.62610  0.60140  0.28810  1.0000 -0.1111470514
C   C43       1.0  0.70530  0.93070  0.61090  1.0000 -0.1215860748
C   C44       1.0  0.76270  0.02950  0.55620  1.0000 0.0619746318
C   C45       1.0  0.83550  0.53930  0.58480  1.0000 -0.0899336429
C   C46       1.0  0.80540  0.05500  0.45610  1.0000 0.050020423
C   C47       1.0  0.73070  0.05330  0.69480  1.0000 -0.0899336429
C   C48       1.0  0.67170  0.95500  0.74850  1.0000 -0.0180596176
C   C49       1.0  0.78220  0.51850  0.51750  1.0000 0.050020423
C   C50       1.0  0.74060  0.70110  0.38080  1.0000 -0.1013097034
C   C51       1.0  0.65860  0.89230  0.70660  1.0000 -0.0899336429
C   C52       1.0  0.86620  0.14590  0.38340  1.0000 -0.0899336429
C   C53       1.0  0.78080  0.97350  0.43660  1.0000 -0.1215860748
C   C54       1.0  0.77840  0.09060  0.59900  1.0000 -0.1013097034
C   C55       1.0  0.90720  0.15120  0.29470  1.0000 -0.0808412511
C   C56       1.0  0.82090  0.97940  0.34890  1.0000 -0.1013097034
S   S1        1.0  0.29911  0.58906  0.56140  1.0000 1.0034265315
S   S2        1.0  0.29770  0.13362  0.45922  1.0000 1.0066921508
S   S3        1.0  0.70089  0.41094  0.43860  1.0000 1.0034265315
S   S4        1.0  0.70230  0.86638  0.54078  1.0000 1.0066921508
O   O1        1.0  0.14840  0.82180  0.19930  1.0000 -0.510515344
O   O2        1.0  0.05440  0.70620  0.16370  1.0000 -0.510515344
O   O3        1.0  0.45320  0.63700  0.53930  1.0000 -0.4915306101
O   O4        1.0  0.16900  0.62780  0.60600  1.0000 -0.510515344
O   O5        1.0  0.52000  0.27700  0.87250  1.0000 -0.525949558
O   O6        1.0  0.40550  0.13440  0.89020  1.0000 -0.4571425074
O   O7        1.0  0.07220  0.00010  0.83240  1.0000 -0.4708152616
O   O8        1.0  0.99240  0.83890  0.87910  1.0000 -0.4990851039
O   O9        1.0  0.18220  0.21900  0.43420  1.0000 -0.510515344
O   O10       1.0  0.46150  0.15330  0.46370  1.0000 -0.4915306101
O   O11       1.0  0.45790  0.16540  0.10670  1.0000 -0.4990851039
O   O12       1.0  0.35330  0.02780  0.10960  1.0000 -0.5369903349
O   O13       1.0  0.29790  0.92860  0.99680  1.0000 -0.7441797459
O   O14       1.0  0.07190  0.09640  0.96930  1.0000 -0.6787635588
O   O15       1.0  0.77200  0.28730  0.99840  1.0000 -0.8000968897
O   O16       1.0  0.84460  0.66580  0.05930  1.0000 -0.6093907559
O   O17       1.0  0.85160  0.17820  0.80070  1.0000 -0.510515344
O   O18       1.0  0.94560  0.29380  0.83630  1.0000 -0.510515344
O   O19       1.0  0.54680  0.36300  0.46070  1.0000 -0.4915306101
O   O20       1.0  0.83100  0.37220  0.39400  1.0000 -0.510515344
O   O21       1.0  0.48000  0.72300  0.12750  1.0000 -0.525949558
O   O22       1.0  0.59450  0.86560  0.10980  1.0000 -0.4571425074
O   O23       1.0  0.92780  0.99990  0.16760  1.0000 -0.4708152616
O   O24       1.0  0.00760  0.16110  0.12090  1.0000 -0.4990851039
O   O25       1.0  0.81780  0.78100  0.56580  1.0000 -0.5151909196
O   O26       1.0  0.53850  0.84670  0.53630  1.0000 -0.4915306101
O   O27       1.0  0.54210  0.83460  0.89330  1.0000 -0.4990851039
O   O28       1.0  0.64670  0.97220  0.89040  1.0000 -0.5369903349
O   O29       1.0  0.70210  0.07140  0.00320  1.0000 -0.7441797459
O   O30       1.0  0.92810  0.90360  0.03070  1.0000 -0.6787635588
O   O31       1.0  0.22800  0.71270  0.00160  1.0000 -0.8000968897
O   O32       1.0  0.15540  0.33420  0.94070  1.0000 -0.6093907559
