# DDEC6 charges by PACMAN v1.1 (https://github.com/mtap-research/PACMAN-charge/)
data_2019[Cd][flu]3[FSR]1
_chemical_formula_sum              "Cd4 H26 C42 N2 O20"
_cell_length_a       8.9217
_cell_length_b       10.1568
_cell_length_c       14.986
_cell_angle_alpha    85.633
_cell_angle_beta     88.229
_cell_angle_gamma    73.485

_symmetry_space_group_name_H-M    "P 1"
_symmetry_Int_Tables_number       1

loop_
  _symmetry_equiv_pos_as_xyz
  'x, y, z'

loop_
  _atom_site_type_symbol
  _atom_site_label
  _atom_site_symmetry_multiplicity
  _atom_site_fract_x
  _atom_site_fract_y
  _atom_site_fract_z
  _atom_site_occupancy
  _atom_site_charge
Cd  Cd1       1.0  0.69644  0.93855  0.94235  1.0000 1.0091305287
Cd  Cd2       1.0  0.72107  0.18016  0.73670  1.0000 0.9422366233
Cd  Cd3       1.0  0.30356  0.06145  0.05765  1.0000 1.0091305287
Cd  Cd4       1.0  0.27893  0.81984  0.26330  1.0000 0.9422366233
H   H1        1.0  0.73107  0.44091  0.65867  1.0000 0.4117914947
H   H2        1.0  0.69229  0.44886  0.75523  1.0000 0.3979949267
H   H3        1.0  0.70380  0.08698  0.08239  1.0000 0.3274005862
H   H4        1.0  0.84776  0.07688  0.05500  1.0000 0.3361033263
H   H5        1.0  0.05214  0.97891  0.70310  1.0000 0.1258526059
H   H6        1.0  0.93663  0.27378  0.86953  1.0000 0.1109784195
H   H7        1.0  0.47086  0.47072  0.93758  1.0000 0.1192441569
H   H8        1.0  0.26962  0.67206  0.95131  1.0000 0.1192441569
H   H9        1.0  0.96619  0.48566  0.85696  1.0000 0.1109784195
H   H10       1.0  0.36540  0.17900  0.75584  1.0000 0.1192441569
H   H11       1.0  0.19234  0.98657  0.56090  1.0000 0.1258526059
H   H12       1.0  0.62760  0.75373  0.50588  1.0000 0.1192441569
H   H13       1.0  0.71087  0.79136  0.64504  1.0000 0.1258526059
H   H14       1.0  0.26893  0.55909  0.34133  1.0000 0.4117914947
H   H15       1.0  0.30771  0.55114  0.24477  1.0000 0.3979949267
H   H16       1.0  0.29620  0.91302  0.91761  1.0000 0.3274005862
H   H17       1.0  0.15224  0.92312  0.94500  1.0000 0.3361033263
H   H18       1.0  0.94786  0.02109  0.29690  1.0000 0.1258526059
H   H19       1.0  0.06337  0.72622  0.13047  1.0000 0.1109784195
H   H20       1.0  0.52914  0.52928  0.06242  1.0000 0.1192441569
H   H21       1.0  0.73038  0.32794  0.04869  1.0000 0.1192441569
H   H22       1.0  0.03381  0.51434  0.14304  1.0000 0.1109784195
H   H23       1.0  0.63460  0.82100  0.24416  1.0000 0.1192441569
H   H24       1.0  0.80766  0.01343  0.43910  1.0000 0.1258526059
H   H25       1.0  0.37240  0.24627  0.49412  1.0000 0.1192441569
H   H26       1.0  0.28913  0.20864  0.35496  1.0000 0.1258526059
C   C1        1.0  0.47650  0.22900  0.90040  1.0000 0.594063154
C   C2        1.0  0.55750  0.91900  0.77940  1.0000 0.5774245771
C   C3        1.0  0.50130  0.90950  0.68670  1.0000 -0.0448559759
C   C4        1.0  0.34350  0.96940  0.66260  1.0000 0.0486458018
C   C5        1.0  0.23010  0.05940  0.72190  1.0000 0.0486458018
C   C6        1.0  0.07990  0.04750  0.73320  1.0000 0.0280877258
C   C7        1.0  0.01150  0.22140  0.83000  1.0000 0.0241461197
C   C8        1.0  0.15730  0.24470  0.82180  1.0000 0.0486458018
C   C9        1.0  0.18900  0.36050  0.86530  1.0000 0.0603467139
C   C10       1.0  0.34000  0.35580  0.89400  1.0000 -0.0641258148
C   C11       1.0  0.36730  0.47290  0.92290  1.0000 -0.1033393977
C   C12       1.0  0.24800  0.59310  0.93090  1.0000 -0.119154462
C   C13       1.0  0.09670  0.59770  0.90890  1.0000 -0.0004834075
C   C14       1.0  0.96280  0.72420  0.92090  1.0000 0.5440471681
C   C15       1.0  0.06900  0.48140  0.87440  1.0000 -0.1605416326
C   C16       1.0  0.26580  0.16340  0.76510  1.0000 -0.119154462
C   C17       1.0  0.29780  0.94670  0.57860  1.0000 -0.142411196
C   C18       1.0  0.40290  0.86700  0.51990  1.0000 -0.0142684797
C   C19       1.0  0.35150  0.85000  0.42780  1.0000 0.5538733514
C   C20       1.0  0.55550  0.80910  0.54540  1.0000 -0.1051207049
C   C21       1.0  0.60480  0.83090  0.62840  1.0000 -0.1290966062
C   C22       1.0  0.52350  0.77100  0.09960  1.0000 0.594063154
C   C23       1.0  0.44250  0.08100  0.22060  1.0000 0.5774245771
C   C24       1.0  0.49870  0.09050  0.31330  1.0000 -0.0448559759
C   C25       1.0  0.65650  0.03060  0.33740  1.0000 0.0486458018
C   C26       1.0  0.76990  0.94060  0.27810  1.0000 0.0486458018
C   C27       1.0  0.92010  0.95250  0.26680  1.0000 0.0280877258
C   C28       1.0  0.98850  0.77860  0.17000  1.0000 0.0280877258
C   C29       1.0  0.84270  0.75530  0.17820  1.0000 0.0486458018
C   C30       1.0  0.81100  0.63950  0.13470  1.0000 0.0603467139
C   C31       1.0  0.66000  0.64420  0.10600  1.0000 -0.0641258148
C   C32       1.0  0.63270  0.52710  0.07710  1.0000 -0.1033393977
C   C33       1.0  0.75200  0.40690  0.06910  1.0000 -0.119154462
C   C34       1.0  0.90330  0.40230  0.09110  1.0000 -0.0004834075
C   C35       1.0  0.03720  0.27580  0.07910  1.0000 0.5440471681
C   C36       1.0  0.93100  0.51860  0.12560  1.0000 -0.1605416326
C   C37       1.0  0.73420  0.83660  0.23490  1.0000 -0.119154462
C   C38       1.0  0.70220  0.05330  0.42140  1.0000 -0.142411196
C   C39       1.0  0.59710  0.13300  0.48010  1.0000 -0.0142684797
C   C40       1.0  0.64850  0.15000  0.57220  1.0000 0.5538733514
C   C41       1.0  0.44450  0.19090  0.45460  1.0000 -0.1051207049
C   C42       1.0  0.39520  0.16910  0.37160  1.0000 -0.1290966062
N   N1        1.0  0.97190  0.12820  0.78450  1.0000 -0.2386706857
N   N2        1.0  0.02810  0.87180  0.21550  1.0000 -0.2386706857
O   O1        1.0  0.45770  0.12120  0.94280  1.0000 -0.5541611401
O   O2        1.0  0.60560  0.23510  0.86940  1.0000 -0.5817818133
O   O3        1.0  0.67250  0.96830  0.78800  1.0000 -0.5953666655
O   O4        1.0  0.49480  0.87230  0.84500  1.0000 -0.5132714001
O   O5        1.0  0.98770  0.83660  0.93360  1.0000 -0.5609877098
O   O6        1.0  0.82530  0.71340  0.91820  1.0000 -0.5427025048
O   O7        1.0  0.45430  0.79280  0.37300  1.0000 -0.5609877098
O   O8        1.0  0.20830  0.89870  0.40780  1.0000 -0.5609877098
O   O9        1.0  0.73880  0.39810  0.71110  1.0000 -0.6846232502
O   O10       1.0  0.76990  0.05020  0.04900  1.0000 -0.634150037
O   O11       1.0  0.54230  0.87880  0.05720  1.0000 -0.5541611401
O   O12       1.0  0.39440  0.76490  0.13060  1.0000 -0.5817818133
O   O13       1.0  0.32750  0.03170  0.21200  1.0000 -0.5953666655
O   O14       1.0  0.50520  0.12770  0.15500  1.0000 -0.5132714001
O   O15       1.0  0.01230  0.16340  0.06640  1.0000 -0.5609877098
O   O16       1.0  0.17470  0.28660  0.08180  1.0000 -0.5427025048
O   O17       1.0  0.54570  0.20720  0.62700  1.0000 -0.5609877098
O   O18       1.0  0.79170  0.10130  0.59220  1.0000 -0.5609877098
O   O19       1.0  0.26120  0.60190  0.28890  1.0000 -0.6862292973
O   O20       1.0  0.23010  0.94980  0.95100  1.0000 -0.634150037
