# DDEC6 charges by PACMAN v1.1 (https://github.com/mtap-research/PACMAN-charge/)
data_2019[Gd][bnn]3[FSR]1
_chemical_formula_sum              "Gd2 H22 C34 O22"
_cell_length_a       6.056
_cell_length_b       12.483
_cell_length_c       13.139
_cell_angle_alpha    111.99
_cell_angle_beta     89.271
_cell_angle_gamma    97.151

_symmetry_space_group_name_H-M    "P 1"
_symmetry_Int_Tables_number       1

loop_
  _symmetry_equiv_pos_as_xyz
  'x, y, z'

loop_
  _atom_site_type_symbol
  _atom_site_label
  _atom_site_symmetry_multiplicity
  _atom_site_fract_x
  _atom_site_fract_y
  _atom_site_fract_z
  _atom_site_occupancy
  _atom_site_charge
Gd  Gd1       1.0  0.92238  0.95287  0.30086  1.0000 2.0069416828
Gd  Gd2       1.0  0.07762  0.04713  0.69914  1.0000 2.0069416828
H   H1        1.0  0.00762  0.35837  0.53340  1.0000 0.1307610265
H   H2        1.0  0.90895  0.54335  0.58703  1.0000 0.1088820315
H   H3        1.0  0.36631  0.44387  0.72077  1.0000 0.1220365941
H   H4        1.0  0.38158  0.70659  0.03627  1.0000 0.1484292812
H   H5        1.0  0.57096  0.61587  0.88117  1.0000 0.1220365941
H   H6        1.0  0.24081  0.76579  0.71791  1.0000 0.1307610265
H   H7        1.0  0.80891  0.87267  0.96743  1.0000 0.3497504062
H   H8        1.0  0.60073  0.02328  0.19958  1.0000 0.3615922249
H   H9        1.0  0.49884  0.01294  0.28858  1.0000 0.3684500522
H   H10       1.0  0.30800  0.08293  0.44318  1.0000 0.3684500522
H   H11       1.0  0.25554  0.15727  0.39548  1.0000 0.3684500522
H   H12       1.0  0.99238  0.64163  0.46660  1.0000 0.1307610265
H   H13       1.0  0.09105  0.45665  0.41297  1.0000 0.1088820315
H   H14       1.0  0.63369  0.55613  0.27923  1.0000 0.1220365941
H   H15       1.0  0.61842  0.29341  0.96373  1.0000 0.1484292812
H   H16       1.0  0.42904  0.38413  0.11883  1.0000 0.1220365941
H   H17       1.0  0.75919  0.23421  0.28209  1.0000 0.1307610265
H   H18       1.0  0.19109  0.12733  0.03257  1.0000 0.3497504062
H   H19       1.0  0.39927  0.97672  0.80042  1.0000 0.3615922249
H   H20       1.0  0.50116  0.98706  0.71142  1.0000 0.3684500522
H   H21       1.0  0.69200  0.91707  0.55682  1.0000 0.3684500522
H   H22       1.0  0.74446  0.84273  0.60452  1.0000 0.3684500522
C   C1        1.0  0.54700  0.31200  0.64300  1.0000 -0.008035201
C   C2        1.0  0.73700  0.28470  0.58270  1.0000 -0.0184664176
C   C3        1.0  0.87340  0.37380  0.56760  1.0000 -0.1007470422
C   C4        1.0  0.81680  0.48600  0.60190  1.0000 -0.1110787139
C   C5        1.0  0.62390  0.51270  0.65810  1.0000 -0.003881403
C   C6        1.0  0.49310  0.42620  0.68030  1.0000 -0.1388609045
C   C7        1.0  0.13840  0.80060  0.87300  1.0000 -0.0696536106
C   C8        1.0  0.18170  0.78340  0.97090  1.0000 -0.0440910727
C   C9        1.0  0.34810  0.71610  0.97150  1.0000 -0.0696536106
C   C10       1.0  0.46520  0.66300  0.87900  1.0000 -0.1110787139
C   C11       1.0  0.42470  0.68020  0.78390  1.0000 0.0003814933
C   C12       1.0  0.26370  0.75140  0.78130  1.0000 -0.1254544937
C   C13       1.0  0.56150  0.63200  0.68590  1.0000 0.3615922249
C   C14       1.0  0.81070  0.16650  0.53820  1.0000 0.6638944215
C   C15       1.0  0.38830  0.22040  0.66330  1.0000 0.5731399722
C   C16       1.0  0.07350  0.83260  0.07700  1.0000 0.5793431467
C   C17       1.0  0.96920  0.87430  0.85800  1.0000 0.5999330944
C   C18       1.0  0.45300  0.68800  0.35700  1.0000 -0.008035201
C   C19       1.0  0.26300  0.71530  0.41730  1.0000 -0.0184664176
C   C20       1.0  0.12660  0.62620  0.43240  1.0000 -0.1007470422
C   C21       1.0  0.18320  0.51400  0.39810  1.0000 -0.1110787139
C   C22       1.0  0.37610  0.48730  0.34190  1.0000 -0.003881403
C   C23       1.0  0.50690  0.57380  0.31970  1.0000 -0.1388609045
C   C24       1.0  0.86160  0.19940  0.12700  1.0000 -0.0696536106
C   C25       1.0  0.81830  0.21660  0.02910  1.0000 -0.0440910727
C   C26       1.0  0.65190  0.28390  0.02850  1.0000 -0.0696536106
C   C27       1.0  0.53480  0.33700  0.12100  1.0000 -0.1110787139
C   C28       1.0  0.57530  0.31980  0.21610  1.0000 0.0003814933
C   C29       1.0  0.73630  0.24860  0.21870  1.0000 -0.1254544937
C   C30       1.0  0.43850  0.36800  0.31410  1.0000 0.3615922249
C   C31       1.0  0.18930  0.83350  0.46180  1.0000 0.6638944215
C   C32       1.0  0.61170  0.77960  0.33670  1.0000 0.5731399722
C   C33       1.0  0.92650  0.16740  0.92300  1.0000 0.5793431467
C   C34       1.0  0.03080  0.12570  0.14200  1.0000 0.5999330944
O   O1        1.0  0.81200  0.12110  0.43420  1.0000 -0.6626008683
O   O2        1.0  0.87540  0.12340  0.60080  1.0000 -0.6309026414
O   O3        1.0  0.36030  0.11810  0.59270  1.0000 -0.6026075814
O   O4        1.0  0.28380  0.24590  0.75070  1.0000 -0.5915557676
O   O5        1.0  0.17680  0.84690  0.16380  1.0000 -0.5574352675
O   O6        1.0  0.87350  0.85650  0.08310  1.0000 -0.6026075814
O   O7        1.0  0.81320  0.90620  0.92420  1.0000 -0.4244261914
O   O8        1.0  0.98780  0.90270  0.77640  1.0000 -0.6112104787
O   O9        1.0  0.62270  0.68790  0.63040  1.0000 -0.3774698609
O   O10       1.0  0.57800  0.97700  0.23450  1.0000 -0.7493532532
O   O11       1.0  0.27440  0.08480  0.37970  1.0000 -0.7493532532
O   O12       1.0  0.18800  0.87890  0.56580  1.0000 -0.6626008683
O   O13       1.0  0.12460  0.87660  0.39920  1.0000 -0.6309026414
O   O14       1.0  0.63970  0.88190  0.40730  1.0000 -0.6026075814
O   O15       1.0  0.71620  0.75410  0.24930  1.0000 -0.5915557676
O   O16       1.0  0.82320  0.15310  0.83620  1.0000 -0.5574352675
O   O17       1.0  0.12650  0.14350  0.91690  1.0000 -0.6112104787
O   O18       1.0  0.18680  0.09380  0.07580  1.0000 -0.4244261914
O   O19       1.0  0.01220  0.09730  0.22360  1.0000 -0.6112104787
O   O20       1.0  0.37730  0.31210  0.36960  1.0000 -0.3774698609
O   O21       1.0  0.42200  0.02300  0.76550  1.0000 -0.7493532532
O   O22       1.0  0.72560  0.91520  0.62030  1.0000 -0.7493532532
