# DDEC6 charges by PACMAN v1.1 (https://github.com/mtap-research/PACMAN-charge/)
data_2019[In][bpq]3[FSR]3
_chemical_formula_sum              "In8 H40 C64 O56"
_cell_length_a       21.9361
_cell_length_b       21.9361
_cell_length_c       7.137
_cell_angle_alpha    90
_cell_angle_beta     90
_cell_angle_gamma    117.049

_symmetry_space_group_name_H-M    "P 1"
_symmetry_Int_Tables_number       1

loop_
  _symmetry_equiv_pos_as_xyz
  'x, y, z'

loop_
  _atom_site_type_symbol
  _atom_site_label
  _atom_site_symmetry_multiplicity
  _atom_site_fract_x
  _atom_site_fract_y
  _atom_site_fract_z
  _atom_site_occupancy
  _atom_site_charge
In  In1       1.0  0.24476  0.24476  0.04653  1.0000 1.5238470183
In  In2       1.0  0.25524  0.25524  0.54653  1.0000 1.5238470183
In  In3       1.0  0.74476  0.74476  0.45347  1.0000 1.5238470183
In  In4       1.0  0.75524  0.75524  0.95347  1.0000 1.5238470183
In  In5       1.0  0.24704  0.75296  0.50000  1.0000 1.5238470183
In  In6       1.0  0.25296  0.74704  0.00000  1.0000 1.5238470183
In  In7       1.0  0.75296  0.24704  0.50000  1.0000 1.5250126069
In  In8       1.0  0.74704  0.25296  0.00000  1.0000 1.5250126069
H   H1        1.0  0.24290  0.59610  0.59080  1.0000 0.3446169262
H   H2        1.0  0.25550  0.40330  0.95890  1.0000 0.3466305326
H   H3        1.0  0.25680  0.45340  0.56180  1.0000 0.1417488197
H   H4        1.0  0.24430  0.54730  0.99060  1.0000 0.1417488197
H   H5        1.0  0.25710  0.90390  0.09080  1.0000 0.3446169262
H   H6        1.0  0.24450  0.09670  0.45890  1.0000 0.3466305326
H   H7        1.0  0.24320  0.04660  0.06180  1.0000 0.1417488197
H   H8        1.0  0.25570  0.95270  0.49060  1.0000 0.1417488197
H   H9        1.0  0.09610  0.74290  0.90920  1.0000 0.3446169262
H   H10       1.0  0.90330  0.75550  0.54110  1.0000 0.3466305326
H   H11       1.0  0.95340  0.75680  0.93820  1.0000 0.1417488197
H   H12       1.0  0.04730  0.74430  0.50940  1.0000 0.1417488197
H   H13       1.0  0.40390  0.75710  0.40920  1.0000 0.3446169262
H   H14       1.0  0.59670  0.74450  0.04110  1.0000 0.3466305326
H   H15       1.0  0.54660  0.74320  0.43820  1.0000 0.1417488197
H   H16       1.0  0.45270  0.75570  0.00940  1.0000 0.1417488197
H   H17       1.0  0.75710  0.40390  0.40920  1.0000 0.3466305326
H   H18       1.0  0.74450  0.59670  0.04110  1.0000 0.3466305326
H   H19       1.0  0.74320  0.54660  0.43820  1.0000 0.1417488197
H   H20       1.0  0.75570  0.45270  0.00940  1.0000 0.1417488197
H   H21       1.0  0.74290  0.09610  0.90920  1.0000 0.3466305326
H   H22       1.0  0.75550  0.90330  0.54110  1.0000 0.3466305326
H   H23       1.0  0.75680  0.95340  0.93820  1.0000 0.1417488197
H   H24       1.0  0.74430  0.04730  0.50940  1.0000 0.1417488197
H   H25       1.0  0.90390  0.25710  0.09080  1.0000 0.3466305326
H   H26       1.0  0.09670  0.24450  0.45890  1.0000 0.3466305326
H   H27       1.0  0.04660  0.24320  0.06180  1.0000 0.1417488197
H   H28       1.0  0.95270  0.25570  0.49060  1.0000 0.1417488197
H   H29       1.0  0.59610  0.24290  0.59080  1.0000 0.3446169262
H   H30       1.0  0.40330  0.25550  0.95890  1.0000 0.3466305326
H   H31       1.0  0.45340  0.25680  0.56180  1.0000 0.1417488197
H   H32       1.0  0.54730  0.24430  0.99060  1.0000 0.1417488197
H   H33       1.0  0.16460  0.66460  0.75000  1.0000 0.4023345878
H   H34       1.0  0.33540  0.83540  0.25000  1.0000 0.4023345878
H   H35       1.0  0.83540  0.33540  0.25000  1.0000 0.4023345878
H   H36       1.0  0.66460  0.16460  0.75000  1.0000 0.4023345878
H   H37       1.0  0.33540  0.33540  0.81290  1.0000 0.4023345878
H   H38       1.0  0.16460  0.16460  0.31290  1.0000 0.4023345878
H   H39       1.0  0.83540  0.83540  0.68710  1.0000 0.4023345878
H   H40       1.0  0.66460  0.66460  0.18710  1.0000 0.4023345878
C   C1        1.0  0.23783  0.62519  0.25580  1.0000 0.6297337955
C   C2        1.0  0.26221  0.37479  0.29430  1.0000 0.6297337955
C   C3        1.0  0.24392  0.56048  0.26970  1.0000 -0.1475211771
C   C4        1.0  0.24855  0.53251  0.44280  1.0000 0.2679376362
C   C5        1.0  0.25428  0.47228  0.44700  1.0000 -0.195960407
C   C6        1.0  0.25634  0.43958  0.28250  1.0000 -0.1475211771
C   C7        1.0  0.25146  0.46756  0.10890  1.0000 0.2679376362
C   C8        1.0  0.24628  0.52806  0.10520  1.0000 -0.195960407
C   C9        1.0  0.26217  0.87481  0.75580  1.0000 0.6297337955
C   C10       1.0  0.23779  0.12521  0.79430  1.0000 0.6297337955
C   C11       1.0  0.25608  0.93952  0.76970  1.0000 -0.1475211771
C   C12       1.0  0.25145  0.96749  0.94280  1.0000 0.2679376362
C   C13       1.0  0.24572  0.02772  0.94700  1.0000 -0.195960407
C   C14       1.0  0.24366  0.06042  0.78250  1.0000 -0.1475211771
C   C15       1.0  0.24854  0.03244  0.60890  1.0000 0.2679376362
C   C16       1.0  0.25372  0.97194  0.60520  1.0000 -0.195960407
C   C17       1.0  0.12519  0.73783  0.24420  1.0000 0.6297337955
C   C18       1.0  0.87479  0.76221  0.20570  1.0000 0.6297337955
C   C19       1.0  0.06048  0.74392  0.23030  1.0000 -0.1475211771
C   C20       1.0  0.03251  0.74855  0.05720  1.0000 0.2679376362
C   C21       1.0  0.97228  0.75428  0.05300  1.0000 -0.195960407
C   C22       1.0  0.93958  0.75634  0.21750  1.0000 -0.1475211771
C   C23       1.0  0.96756  0.75146  0.39110  1.0000 0.2679376362
C   C24       1.0  0.02806  0.74628  0.39480  1.0000 -0.195960407
C   C25       1.0  0.37481  0.76217  0.74420  1.0000 0.6297337955
C   C26       1.0  0.62521  0.73779  0.70570  1.0000 0.6297337955
C   C27       1.0  0.43952  0.75608  0.73030  1.0000 -0.1475211771
C   C28       1.0  0.46749  0.75145  0.55720  1.0000 0.2679376362
C   C29       1.0  0.52772  0.74572  0.55300  1.0000 -0.195960407
C   C30       1.0  0.56042  0.74366  0.71750  1.0000 -0.1475211771
C   C31       1.0  0.53244  0.74854  0.89110  1.0000 0.2679376362
C   C32       1.0  0.47194  0.75372  0.89480  1.0000 -0.195960407
C   C33       1.0  0.76217  0.37481  0.74420  1.0000 0.6297337955
C   C34       1.0  0.73779  0.62521  0.70570  1.0000 0.6297337955
C   C35       1.0  0.75608  0.43952  0.73030  1.0000 -0.1475211771
C   C36       1.0  0.75145  0.46749  0.55720  1.0000 0.2679376362
C   C37       1.0  0.74572  0.52772  0.55300  1.0000 -0.195960407
C   C38       1.0  0.74366  0.56042  0.71750  1.0000 -0.1475211771
C   C39       1.0  0.74854  0.53244  0.89110  1.0000 0.2679376362
C   C40       1.0  0.75372  0.47194  0.89480  1.0000 -0.195960407
C   C41       1.0  0.73783  0.12519  0.24420  1.0000 0.6297337955
C   C42       1.0  0.76221  0.87479  0.20570  1.0000 0.6297337955
C   C43       1.0  0.74392  0.06048  0.23030  1.0000 -0.1475211771
C   C44       1.0  0.74855  0.03251  0.05720  1.0000 0.2679376362
C   C45       1.0  0.75428  0.97228  0.05300  1.0000 -0.195960407
C   C46       1.0  0.75634  0.93958  0.21750  1.0000 -0.1475211771
C   C47       1.0  0.75146  0.96756  0.39110  1.0000 0.2679376362
C   C48       1.0  0.74628  0.02806  0.39480  1.0000 -0.195960407
C   C49       1.0  0.87481  0.26217  0.75580  1.0000 0.6297337955
C   C50       1.0  0.12521  0.23779  0.79430  1.0000 0.6297337955
C   C51       1.0  0.93952  0.25608  0.76970  1.0000 -0.1475211771
C   C52       1.0  0.96749  0.25145  0.94280  1.0000 0.2679376362
C   C53       1.0  0.02772  0.24572  0.94700  1.0000 -0.195960407
C   C54       1.0  0.06042  0.24366  0.78250  1.0000 -0.1475211771
C   C55       1.0  0.03244  0.24854  0.60890  1.0000 0.2679376362
C   C56       1.0  0.97194  0.25372  0.60520  1.0000 -0.195960407
C   C57       1.0  0.62519  0.23783  0.25580  1.0000 0.6297337955
C   C58       1.0  0.37479  0.26221  0.29430  1.0000 0.6297337955
C   C59       1.0  0.56048  0.24392  0.26970  1.0000 -0.1475211771
C   C60       1.0  0.53251  0.24855  0.44280  1.0000 0.2679376362
C   C61       1.0  0.47228  0.25428  0.44700  1.0000 -0.195960407
C   C62       1.0  0.43958  0.25634  0.28250  1.0000 -0.1475211771
C   C63       1.0  0.46756  0.25146  0.10890  1.0000 0.2679376362
C   C64       1.0  0.52806  0.24628  0.10520  1.0000 -0.195960407
O   O1        1.0  0.23307  0.65253  0.40750  1.0000 -0.5997581834
O   O2        1.0  0.23714  0.64818  0.09650  1.0000 -0.5508332753
O   O3        1.0  0.26264  0.34594  0.14270  1.0000 -0.5901555026
O   O4        1.0  0.26731  0.35323  0.45280  1.0000 -0.5565771366
O   O5        1.0  0.24645  0.56099  0.60900  1.0000 -0.411289865
O   O6        1.0  0.25273  0.43887  0.94140  1.0000 -0.4166821966
O   O7        1.0  0.26693  0.84747  0.90750  1.0000 -0.5997581834
O   O8        1.0  0.26286  0.85182  0.59650  1.0000 -0.5508332753
O   O9        1.0  0.23736  0.15406  0.64270  1.0000 -0.5901555026
O   O10       1.0  0.23269  0.14677  0.95280  1.0000 -0.5565771366
O   O11       1.0  0.25355  0.93901  0.10900  1.0000 -0.411289865
O   O12       1.0  0.24727  0.06113  0.44140  1.0000 -0.4166821966
O   O13       1.0  0.15253  0.73307  0.09250  1.0000 -0.5997581834
O   O14       1.0  0.14818  0.73714  0.40350  1.0000 -0.5508332753
O   O15       1.0  0.84594  0.76264  0.35730  1.0000 -0.5901555026
O   O16       1.0  0.85323  0.76731  0.04720  1.0000 -0.5565771366
O   O17       1.0  0.06099  0.74645  0.89100  1.0000 -0.411289865
O   O18       1.0  0.93887  0.75273  0.55860  1.0000 -0.4166821966
O   O19       1.0  0.34747  0.76693  0.59250  1.0000 -0.5997581834
O   O20       1.0  0.35182  0.76286  0.90350  1.0000 -0.5508332753
O   O21       1.0  0.65406  0.73736  0.85730  1.0000 -0.5901555026
O   O22       1.0  0.64677  0.73269  0.54720  1.0000 -0.5565771366
O   O23       1.0  0.43901  0.75355  0.39100  1.0000 -0.411289865
O   O24       1.0  0.56113  0.74727  0.05860  1.0000 -0.4166821966
O   O25       1.0  0.76693  0.34747  0.59250  1.0000 -0.5997581834
O   O26       1.0  0.76286  0.35182  0.90350  1.0000 -0.5508332753
O   O27       1.0  0.73736  0.65406  0.85730  1.0000 -0.5901555026
O   O28       1.0  0.73269  0.64677  0.54720  1.0000 -0.5565771366
O   O29       1.0  0.75355  0.43901  0.39100  1.0000 -0.411289865
O   O30       1.0  0.74727  0.56113  0.05860  1.0000 -0.4166821966
O   O31       1.0  0.73307  0.15253  0.09250  1.0000 -0.5997581834
O   O32       1.0  0.73714  0.14818  0.40350  1.0000 -0.5508332753
O   O33       1.0  0.76264  0.84594  0.35730  1.0000 -0.5901555026
O   O34       1.0  0.76731  0.85323  0.04720  1.0000 -0.5565771366
O   O35       1.0  0.74645  0.06099  0.89100  1.0000 -0.411289865
O   O36       1.0  0.75273  0.93887  0.55860  1.0000 -0.4166821966
O   O37       1.0  0.84747  0.26693  0.90750  1.0000 -0.5997581834
O   O38       1.0  0.85182  0.26286  0.59650  1.0000 -0.5508332753
O   O39       1.0  0.15406  0.23736  0.64270  1.0000 -0.5901555026
O   O40       1.0  0.14677  0.23269  0.95280  1.0000 -0.5565771366
O   O41       1.0  0.93901  0.25355  0.10900  1.0000 -0.411289865
O   O42       1.0  0.06113  0.24727  0.44140  1.0000 -0.4166821966
O   O43       1.0  0.65253  0.23307  0.40750  1.0000 -0.5997581834
O   O44       1.0  0.64818  0.23714  0.09650  1.0000 -0.5508332753
O   O45       1.0  0.34594  0.26264  0.14270  1.0000 -0.5901555026
O   O46       1.0  0.35323  0.26731  0.45280  1.0000 -0.5565771366
O   O47       1.0  0.56099  0.24645  0.60900  1.0000 -0.411289865
O   O48       1.0  0.43887  0.25273  0.94140  1.0000 -0.4166821966
O   O49       1.0  0.20516  0.70516  0.75000  1.0000 -0.8863573963
O   O50       1.0  0.29484  0.79484  0.25000  1.0000 -0.8863573963
O   O51       1.0  0.79484  0.29484  0.25000  1.0000 -0.8863573963
O   O52       1.0  0.70516  0.20516  0.75000  1.0000 -0.8863573963
O   O53       1.0  0.29484  0.29484  0.80450  1.0000 -0.8863573963
O   O54       1.0  0.20516  0.20516  0.30450  1.0000 -0.8828889782
O   O55       1.0  0.79484  0.79484  0.69550  1.0000 -0.8828889782
O   O56       1.0  0.70516  0.70516  0.19550  1.0000 -0.8828889782
