# DDEC6 charges by PACMAN v1.1 (https://github.com/mtap-research/PACMAN-charge/)
data_2019[In][bpq]3[FSR]4
_chemical_formula_sum              "In8 H40 C64 O56"
_cell_length_a       22.0034
_cell_length_b       22.0034
_cell_length_c       7.15
_cell_angle_alpha    90
_cell_angle_beta     90
_cell_angle_gamma    108.163

_symmetry_space_group_name_H-M    "P 1"
_symmetry_Int_Tables_number       1

loop_
  _symmetry_equiv_pos_as_xyz
  'x, y, z'

loop_
  _atom_site_type_symbol
  _atom_site_label
  _atom_site_symmetry_multiplicity
  _atom_site_fract_x
  _atom_site_fract_y
  _atom_site_fract_z
  _atom_site_occupancy
  _atom_site_charge
In  In1       1.0  0.75336  0.75336  0.53108  1.0000 1.5266552843
In  In2       1.0  0.74664  0.74664  0.03108  1.0000 1.5266552843
In  In3       1.0  0.25336  0.25336  0.96892  1.0000 1.5266552843
In  In4       1.0  0.24664  0.24664  0.46892  1.0000 1.5266552843
In  In5       1.0  0.75261  0.24739  0.00000  1.0000 1.535692481
In  In6       1.0  0.74739  0.25261  0.50000  1.0000 1.535692481
In  In7       1.0  0.24739  0.75261  0.00000  1.0000 1.535692481
In  In8       1.0  0.25261  0.74739  0.50000  1.0000 1.535692481
H   H1        1.0  0.76640  0.91360  0.95900  1.0000 0.3357786216
H   H2        1.0  0.77500  0.10500  0.61900  1.0000 0.3672696255
H   H3        1.0  0.73910  0.04710  0.98780  1.0000 0.1411072906
H   H4        1.0  0.76300  0.95340  0.54900  1.0000 0.1411072906
H   H5        1.0  0.73360  0.58640  0.45900  1.0000 0.3357786216
H   H6        1.0  0.72500  0.39500  0.11900  1.0000 0.3672696255
H   H7        1.0  0.76090  0.45290  0.48780  1.0000 0.1411072906
H   H8        1.0  0.73700  0.54660  0.04900  1.0000 0.1411072906
H   H9        1.0  0.41360  0.26640  0.54100  1.0000 0.3357786216
H   H10       1.0  0.60500  0.27500  0.88100  1.0000 0.3672696255
H   H11       1.0  0.54710  0.23910  0.51220  1.0000 0.1411072906
H   H12       1.0  0.45340  0.26300  0.95100  1.0000 0.1411072906
H   H13       1.0  0.08640  0.23360  0.04100  1.0000 0.3357786216
H   H14       1.0  0.89500  0.22500  0.38100  1.0000 0.3672696255
H   H15       1.0  0.95290  0.26090  0.01220  1.0000 0.1411072906
H   H16       1.0  0.04660  0.23700  0.45100  1.0000 0.1411072906
H   H17       1.0  0.23360  0.08640  0.04100  1.0000 0.3357786216
H   H18       1.0  0.22500  0.89500  0.38100  1.0000 0.3672696255
H   H19       1.0  0.26090  0.95290  0.01220  1.0000 0.1411072906
H   H20       1.0  0.23700  0.04660  0.45100  1.0000 0.1411072906
H   H21       1.0  0.26640  0.41360  0.54100  1.0000 0.3357786216
H   H22       1.0  0.27500  0.60500  0.88100  1.0000 0.3672696255
H   H23       1.0  0.23910  0.54710  0.51220  1.0000 0.1411072906
H   H24       1.0  0.26300  0.45340  0.95100  1.0000 0.1411072906
H   H25       1.0  0.58640  0.73360  0.45900  1.0000 0.3357786216
H   H26       1.0  0.39500  0.72500  0.11900  1.0000 0.3672696255
H   H27       1.0  0.45290  0.76090  0.48780  1.0000 0.1411072906
H   H28       1.0  0.54660  0.73700  0.04900  1.0000 0.1411072906
H   H29       1.0  0.91360  0.76640  0.95900  1.0000 0.3357786216
H   H30       1.0  0.10500  0.77500  0.61900  1.0000 0.3672696255
H   H31       1.0  0.04710  0.73910  0.98780  1.0000 0.1411072906
H   H32       1.0  0.95340  0.76300  0.54900  1.0000 0.1411072906
H   H33       1.0  0.67470  0.67470  0.29330  1.0000 0.4043765046
H   H34       1.0  0.82530  0.82530  0.79330  1.0000 0.4043765046
H   H35       1.0  0.17470  0.17470  0.20670  1.0000 0.4043765046
H   H36       1.0  0.32530  0.32530  0.70670  1.0000 0.4043765046
H   H37       1.0  0.82600  0.32600  0.25000  1.0000 0.406258253
H   H38       1.0  0.67400  0.17400  0.75000  1.0000 0.406258253
H   H39       1.0  0.17400  0.67400  0.75000  1.0000 0.406258253
H   H40       1.0  0.32600  0.82600  0.25000  1.0000 0.406258253
C   C1        1.0  0.75735  0.93865  0.27020  1.0000 -0.1538703259
C   C2        1.0  0.74912  0.96748  0.09960  1.0000 0.2721712031
C   C3        1.0  0.74520  0.02860  0.10030  1.0000 -0.2003404819
C   C4        1.0  0.74987  0.06333  0.26520  1.0000 -0.1443144702
C   C5        1.0  0.75680  0.03440  0.43460  1.0000 0.2721712031
C   C6        1.0  0.75956  0.97264  0.43550  1.0000 -0.1876931027
C   C7        1.0  0.75847  0.87213  0.27850  1.0000 0.6306982279
C   C8        1.0  0.74581  0.12979  0.25540  1.0000 0.6306982279
C   C9        1.0  0.74265  0.56135  0.77020  1.0000 -0.1538703259
C   C10       1.0  0.75088  0.53252  0.59960  1.0000 0.2721712031
C   C11       1.0  0.75480  0.47140  0.60030  1.0000 -0.2003404819
C   C12       1.0  0.75013  0.43667  0.76520  1.0000 -0.1443144702
C   C13       1.0  0.74320  0.46560  0.93460  1.0000 0.2721712031
C   C14       1.0  0.74044  0.52736  0.93550  1.0000 -0.1876931027
C   C15       1.0  0.74153  0.62787  0.77850  1.0000 0.6306982279
C   C16       1.0  0.75419  0.37021  0.75540  1.0000 0.6306982279
C   C17       1.0  0.43865  0.25735  0.22980  1.0000 -0.1538703259
C   C18       1.0  0.46748  0.24912  0.40040  1.0000 0.2721712031
C   C19       1.0  0.52860  0.24520  0.39970  1.0000 -0.2003404819
C   C20       1.0  0.56333  0.24987  0.23480  1.0000 -0.1443144702
C   C21       1.0  0.53440  0.25680  0.06540  1.0000 0.2721712031
C   C22       1.0  0.47264  0.25956  0.06450  1.0000 -0.1876931027
C   C23       1.0  0.37213  0.25847  0.22150  1.0000 0.6306982279
C   C24       1.0  0.62979  0.24581  0.24460  1.0000 0.6306982279
C   C25       1.0  0.06135  0.24265  0.72980  1.0000 -0.1538703259
C   C26       1.0  0.03252  0.25088  0.90040  1.0000 0.2721712031
C   C27       1.0  0.97140  0.25480  0.89970  1.0000 -0.2003404819
C   C28       1.0  0.93667  0.25013  0.73480  1.0000 -0.1443144702
C   C29       1.0  0.96560  0.24320  0.56540  1.0000 0.2721712031
C   C30       1.0  0.02736  0.24044  0.56450  1.0000 -0.1876931027
C   C31       1.0  0.12787  0.24153  0.72150  1.0000 0.6306982279
C   C32       1.0  0.87021  0.25419  0.74460  1.0000 0.6306982279
C   C33       1.0  0.24265  0.06135  0.72980  1.0000 -0.1538703259
C   C34       1.0  0.25088  0.03252  0.90040  1.0000 0.2721712031
C   C35       1.0  0.25480  0.97140  0.89970  1.0000 -0.2003404819
C   C36       1.0  0.25013  0.93667  0.73480  1.0000 -0.1443144702
C   C37       1.0  0.24320  0.96560  0.56540  1.0000 0.2750487901
C   C38       1.0  0.24044  0.02736  0.56450  1.0000 -0.1876931027
C   C39       1.0  0.24153  0.12787  0.72150  1.0000 0.6306982279
C   C40       1.0  0.25419  0.87021  0.74460  1.0000 0.6306982279
C   C41       1.0  0.25735  0.43865  0.22980  1.0000 -0.1538703259
C   C42       1.0  0.24912  0.46748  0.40040  1.0000 0.2721712031
C   C43       1.0  0.24520  0.52860  0.39970  1.0000 -0.2003404819
C   C44       1.0  0.24987  0.56333  0.23480  1.0000 -0.1443144702
C   C45       1.0  0.25680  0.53440  0.06540  1.0000 0.2721712031
C   C46       1.0  0.25956  0.47264  0.06450  1.0000 -0.1876931027
C   C47       1.0  0.25847  0.37213  0.22150  1.0000 0.6306982279
C   C48       1.0  0.24581  0.62979  0.24460  1.0000 0.6306982279
C   C49       1.0  0.56135  0.74265  0.77020  1.0000 -0.1538703259
C   C50       1.0  0.53252  0.75088  0.59960  1.0000 0.2721712031
C   C51       1.0  0.47140  0.75480  0.60030  1.0000 -0.2003404819
C   C52       1.0  0.43667  0.75013  0.76520  1.0000 -0.1443144702
C   C53       1.0  0.46560  0.74320  0.93460  1.0000 0.2721712031
C   C54       1.0  0.52736  0.74044  0.93550  1.0000 -0.1876931027
C   C55       1.0  0.62787  0.74153  0.77850  1.0000 0.6306982279
C   C56       1.0  0.37021  0.75419  0.75540  1.0000 0.6306982279
C   C57       1.0  0.93865  0.75735  0.27020  1.0000 -0.1538703259
C   C58       1.0  0.96748  0.74912  0.09960  1.0000 0.2721712031
C   C59       1.0  0.02860  0.74520  0.10030  1.0000 -0.2003404819
C   C60       1.0  0.06333  0.74987  0.26520  1.0000 -0.1443144702
C   C61       1.0  0.03440  0.75680  0.43460  1.0000 0.2721712031
C   C62       1.0  0.97264  0.75956  0.43550  1.0000 -0.1876931027
C   C63       1.0  0.87213  0.75847  0.27850  1.0000 0.6306982279
C   C64       1.0  0.12979  0.74581  0.25540  1.0000 0.6306982279
O   O1        1.0  0.76054  0.84810  0.43470  1.0000 -0.5480938874
O   O2        1.0  0.75699  0.84361  0.12490  1.0000 -0.5827551804
O   O3        1.0  0.74071  0.93629  0.93280  1.0000 -0.4241029727
O   O4        1.0  0.74377  0.15323  0.09720  1.0000 -0.5570290409
O   O5        1.0  0.74305  0.15735  0.40970  1.0000 -0.6016456731
O   O6        1.0  0.75800  0.06320  0.60560  1.0000 -0.4445982374
O   O7        1.0  0.73946  0.65190  0.93470  1.0000 -0.5480938874
O   O8        1.0  0.74301  0.65639  0.62490  1.0000 -0.5827551804
O   O9        1.0  0.75929  0.56371  0.43280  1.0000 -0.4241029727
O   O10       1.0  0.75623  0.34677  0.59720  1.0000 -0.5570290409
O   O11       1.0  0.75695  0.34265  0.90970  1.0000 -0.6016456731
O   O12       1.0  0.74200  0.43680  0.10560  1.0000 -0.4445982374
O   O13       1.0  0.34810  0.26054  0.06530  1.0000 -0.5480938874
O   O14       1.0  0.34361  0.25699  0.37510  1.0000 -0.5827551804
O   O15       1.0  0.43629  0.24071  0.56720  1.0000 -0.4241029727
O   O16       1.0  0.65323  0.24377  0.40280  1.0000 -0.5570290409
O   O17       1.0  0.65735  0.24305  0.09030  1.0000 -0.6016456731
O   O18       1.0  0.56320  0.25800  0.89440  1.0000 -0.4445982374
O   O19       1.0  0.15190  0.23946  0.56530  1.0000 -0.5480938874
O   O20       1.0  0.15639  0.24301  0.87510  1.0000 -0.5827551804
O   O21       1.0  0.06371  0.25929  0.06720  1.0000 -0.4241029727
O   O22       1.0  0.84677  0.25623  0.90280  1.0000 -0.5570290409
O   O23       1.0  0.84265  0.25695  0.59030  1.0000 -0.6016456731
O   O24       1.0  0.93680  0.24200  0.39440  1.0000 -0.4445982374
O   O25       1.0  0.23946  0.15190  0.56530  1.0000 -0.5480938874
O   O26       1.0  0.24301  0.15639  0.87510  1.0000 -0.5827551804
O   O27       1.0  0.25929  0.06371  0.06720  1.0000 -0.4254638575
O   O28       1.0  0.25623  0.84677  0.90280  1.0000 -0.5570290409
O   O29       1.0  0.25695  0.84265  0.59030  1.0000 -0.6016456731
O   O30       1.0  0.24200  0.93680  0.39440  1.0000 -0.4445982374
O   O31       1.0  0.26054  0.34810  0.06530  1.0000 -0.5480938874
O   O32       1.0  0.25699  0.34361  0.37510  1.0000 -0.5827551804
O   O33       1.0  0.24071  0.43629  0.56720  1.0000 -0.4241029727
O   O34       1.0  0.24377  0.65323  0.40280  1.0000 -0.5570290409
O   O35       1.0  0.24305  0.65735  0.09030  1.0000 -0.6016456731
O   O36       1.0  0.25800  0.56320  0.89440  1.0000 -0.4445982374
O   O37       1.0  0.65190  0.73946  0.93470  1.0000 -0.5480938874
O   O38       1.0  0.65639  0.74301  0.62490  1.0000 -0.5827551804
O   O39       1.0  0.56371  0.75929  0.43280  1.0000 -0.4241029727
O   O40       1.0  0.34677  0.75623  0.59720  1.0000 -0.5570290409
O   O41       1.0  0.34265  0.75695  0.90970  1.0000 -0.6016456731
O   O42       1.0  0.43680  0.74200  0.10560  1.0000 -0.4445982374
O   O43       1.0  0.84810  0.76054  0.43470  1.0000 -0.5480938874
O   O44       1.0  0.84361  0.75699  0.12490  1.0000 -0.5827551804
O   O45       1.0  0.93629  0.74071  0.93280  1.0000 -0.4241029727
O   O46       1.0  0.15323  0.74377  0.09720  1.0000 -0.5570290409
O   O47       1.0  0.15735  0.74305  0.40970  1.0000 -0.6016456731
O   O48       1.0  0.06320  0.75800  0.60560  1.0000 -0.4445982374
O   O49       1.0  0.71070  0.71070  0.28720  1.0000 -0.8762532793
O   O50       1.0  0.78930  0.78930  0.78720  1.0000 -0.8762532793
O   O51       1.0  0.21070  0.21070  0.21280  1.0000 -0.8762532793
O   O52       1.0  0.28930  0.28930  0.71280  1.0000 -0.8762532793
O   O53       1.0  0.78990  0.28990  0.25000  1.0000 -0.8902250551
O   O54       1.0  0.71010  0.21010  0.75000  1.0000 -0.8902250551
O   O55       1.0  0.21010  0.71010  0.75000  1.0000 -0.8902250551
O   O56       1.0  0.28990  0.78990  0.25000  1.0000 -0.8902250551
