# DDEC6 charges by PACMAN v1.1 (https://github.com/mtap-research/PACMAN-charge/)
data_2019[Gd][kgd]2[FSR]1
_chemical_formula_sum              "Gd2 H38 C54 O16"
_cell_length_a       9.214
_cell_length_b       13.7931
_cell_length_c       15.2869
_cell_angle_alpha    106.45
_cell_angle_beta     95.336
_cell_angle_gamma    95.644

_symmetry_space_group_name_H-M    "P 1"
_symmetry_Int_Tables_number       1

loop_
  _symmetry_equiv_pos_as_xyz
  'x, y, z'

loop_
  _atom_site_type_symbol
  _atom_site_label
  _atom_site_symmetry_multiplicity
  _atom_site_fract_x
  _atom_site_fract_y
  _atom_site_fract_z
  _atom_site_occupancy
  _atom_site_charge
Gd  Gd1       1.0  0.42428  0.84040  0.95736  1.0000 1.9626171774
Gd  Gd2       1.0  0.57572  0.15960  0.04264  1.0000 1.9626171774
H   H1        1.0  0.21000  0.67200  0.96000  1.0000 0.3064332119
H   H2        1.0  0.13200  0.74400  0.96430  1.0000 0.2976653463
H   H3        1.0  0.72400  0.92400  0.99860  1.0000 0.3064332119
H   H4        1.0  0.74800  0.83700  0.97400  1.0000 0.284864012
H   H5        1.0  0.98580  0.02581  0.93215  1.0000 0.1188361153
H   H6        1.0  0.83256  0.10796  0.85488  1.0000 0.1188361153
H   H7        1.0  0.00637  0.98739  0.61967  1.0000 0.1125465839
H   H8        1.0  0.14970  0.89754  0.69484  1.0000 0.1188361153
H   H9        1.0  0.58201  0.49377  0.94192  1.0000 0.1276988373
H   H10       1.0  0.64704  0.33587  0.86329  1.0000 0.1276988373
H   H11       1.0  0.63479  0.42121  0.62952  1.0000 0.1125465839
H   H12       1.0  0.56329  0.57659  0.70742  1.0000 0.1276988373
H   H13       1.0  0.51462  0.15268  0.25974  1.0000 0.1371674723
H   H14       1.0  0.58947  0.21804  0.41722  1.0000 0.1188361153
H   H15       1.0  0.64054  0.93403  0.43127  1.0000 0.1125465839
H   H16       1.0  0.56063  0.86815  0.27448  1.0000 0.1188361153
H   H17       1.0  0.58064  0.25674  0.56132  1.0000 0.1125465839
H   H18       1.0  0.80811  0.23537  0.79363  1.0000 0.1188361153
H   H19       1.0  0.78906  0.00976  0.55409  1.0000 0.1125465839
H   H20       1.0  0.79000  0.32800  0.04000  1.0000 0.3064332119
H   H21       1.0  0.86800  0.25600  0.03570  1.0000 0.2976653463
H   H22       1.0  0.27600  0.07600  0.00140  1.0000 0.3064332119
H   H23       1.0  0.25200  0.16300  0.02600  1.0000 0.284864012
H   H24       1.0  0.01420  0.97419  0.06785  1.0000 0.1188361153
H   H25       1.0  0.16744  0.89204  0.14512  1.0000 0.1188361153
H   H26       1.0  0.99363  0.01261  0.38033  1.0000 0.1125465839
H   H27       1.0  0.85030  0.10246  0.30516  1.0000 0.1188361153
H   H28       1.0  0.41799  0.50623  0.05808  1.0000 0.1276988373
H   H29       1.0  0.35296  0.66413  0.13671  1.0000 0.1276988373
H   H30       1.0  0.36521  0.57879  0.37048  1.0000 0.1125465839
H   H31       1.0  0.43671  0.42341  0.29258  1.0000 0.1276988373
H   H32       1.0  0.48538  0.84732  0.74026  1.0000 0.1371674723
H   H33       1.0  0.41053  0.78196  0.58278  1.0000 0.1188361153
H   H34       1.0  0.35946  0.06597  0.56873  1.0000 0.1125465839
H   H35       1.0  0.43937  0.13185  0.72552  1.0000 0.1188361153
H   H36       1.0  0.41936  0.74326  0.43868  1.0000 0.1125465839
H   H37       1.0  0.19189  0.76463  0.20637  1.0000 0.1188361153
H   H38       1.0  0.21094  0.99024  0.44591  1.0000 0.1125465839
C   C1        1.0  0.18138  0.90089  0.86975  1.0000 0.5519472844
C   C2        1.0  0.08225  0.95326  0.82091  1.0000 -0.0227343721
C   C3        1.0  0.98831  0.01677  0.86837  1.0000 -0.1076234543
C   C4        1.0  0.89858  0.06672  0.82257  1.0000 -0.1309473032
C   C5        1.0  0.90419  0.05706  0.72930  1.0000 0.0803051403
C   C6        1.0  0.00037  0.99415  0.68278  1.0000 -0.1519502415
C   C7        1.0  0.08712  0.94151  0.72768  1.0000 -0.0866937787
C   C8        1.0  0.51544  0.64996  0.87996  1.0000 0.5519472844
C   C9        1.0  0.56420  0.55044  0.83222  1.0000 -0.0227343721
C   C10       1.0  0.59099  0.47851  0.87819  1.0000 -0.0800397758
C   C11       1.0  0.63075  0.38463  0.83150  1.0000 -0.1434042269
C   C12       1.0  0.64689  0.36165  0.73764  1.0000 0.0803051403
C   C13       1.0  0.62255  0.43510  0.69272  1.0000 -0.1564605647
C   C14       1.0  0.58073  0.52801  0.73923  1.0000 -0.0866937787
C   C15       1.0  0.48802  0.95907  0.14998  1.0000 0.6024589723
C   C16       1.0  0.53151  0.00381  0.25108  1.0000 -0.0272026473
C   C17       1.0  0.53994  0.10814  0.29441  1.0000 -0.0800397758
C   C18       1.0  0.58536  0.14695  0.38827  1.0000 -0.1519502415
C   C19       1.0  0.62528  0.08345  0.44123  1.0000 0.0703753716
C   C20       1.0  0.61501  0.97879  0.39687  1.0000 -0.1519502415
C   C21       1.0  0.56800  0.93949  0.30325  1.0000 -0.0800397758
C   C22       1.0  0.67707  0.12638  0.54107  1.0000 0.0803051403
C   C23       1.0  0.63984  0.22037  0.59163  1.0000 -0.2003728413
C   C24       1.0  0.68789  0.26186  0.68576  1.0000 0.0867089479
C   C25       1.0  0.77440  0.20766  0.72985  1.0000 -0.1824545824
C   C26       1.0  0.81210  0.11328  0.68152  1.0000 0.0867089479
C   C27       1.0  0.76321  0.07369  0.58730  1.0000 -0.2003728413
C   C28       1.0  0.81862  0.09911  0.13025  1.0000 0.5519472844
C   C29       1.0  0.91775  0.04674  0.17909  1.0000 -0.0227343721
C   C30       1.0  0.01169  0.98323  0.13163  1.0000 -0.1076234543
C   C31       1.0  0.10142  0.93328  0.17743  1.0000 -0.1309473032
C   C32       1.0  0.09581  0.94294  0.27070  1.0000 0.0803051403
C   C33       1.0  0.99963  0.00585  0.31722  1.0000 -0.1519502415
C   C34       1.0  0.91288  0.05849  0.27232  1.0000 -0.0866937787
C   C35       1.0  0.48456  0.35004  0.12004  1.0000 0.5519472844
C   C36       1.0  0.43580  0.44956  0.16778  1.0000 -0.0227343721
C   C37       1.0  0.40901  0.52149  0.12181  1.0000 -0.0800397758
C   C38       1.0  0.36925  0.61537  0.16850  1.0000 -0.1434042269
C   C39       1.0  0.35311  0.63835  0.26236  1.0000 0.0803051403
C   C40       1.0  0.37745  0.56490  0.30728  1.0000 -0.1564605647
C   C41       1.0  0.41927  0.47199  0.26077  1.0000 -0.0866937787
C   C42       1.0  0.51198  0.04093  0.85002  1.0000 0.6024589723
C   C43       1.0  0.46849  0.99619  0.74892  1.0000 -0.0272026473
C   C44       1.0  0.46006  0.89186  0.70559  1.0000 -0.0800397758
C   C45       1.0  0.41464  0.85305  0.61173  1.0000 -0.1519502415
C   C46       1.0  0.37472  0.91655  0.55877  1.0000 0.0703753716
C   C47       1.0  0.38499  0.02121  0.60313  1.0000 -0.1519502415
C   C48       1.0  0.43200  0.06051  0.69675  1.0000 -0.0800397758
C   C49       1.0  0.32293  0.87362  0.45893  1.0000 0.0803051403
C   C50       1.0  0.36016  0.77963  0.40837  1.0000 -0.2003728413
C   C51       1.0  0.31211  0.73814  0.31424  1.0000 0.0867089479
C   C52       1.0  0.22560  0.79234  0.27015  1.0000 -0.1824545824
C   C53       1.0  0.18790  0.88672  0.31848  1.0000 0.0867089479
C   C54       1.0  0.23679  0.92631  0.41270  1.0000 -0.2003728413
O   O1        1.0  0.20899  0.73199  0.97527  1.0000 -0.6464240962
O   O2        1.0  0.68820  0.86614  0.98403  1.0000 -0.6331996434
O   O3        1.0  0.50021  0.67311  0.96372  1.0000 -0.6101258808
O   O4        1.0  0.48709  0.71030  0.83262  1.0000 -0.6362597609
O   O5        1.0  0.21122  0.93470  0.95723  1.0000 -0.6362597609
O   O6        1.0  0.24008  0.82700  0.82452  1.0000 -0.5929812604
O   O7        1.0  0.44785  0.86457  0.11864  1.0000 -0.6101258808
O   O8        1.0  0.49290  0.01483  0.09605  1.0000 -0.7160476857
O   O9        1.0  0.79101  0.26801  0.02473  1.0000 -0.6464240962
O   O10       1.0  0.31180  0.13386  0.01597  1.0000 -0.6331996434
O   O11       1.0  0.49979  0.32689  0.03628  1.0000 -0.6101258808
O   O12       1.0  0.51291  0.28970  0.16738  1.0000 -0.6362597609
O   O13       1.0  0.78878  0.06530  0.04277  1.0000 -0.6362597609
O   O14       1.0  0.75992  0.17300  0.17548  1.0000 -0.5929812604
O   O15       1.0  0.55215  0.13543  0.88136  1.0000 -0.6101258808
O   O16       1.0  0.50710  0.98517  0.90395  1.0000 -0.7160476857
