# DDEC6 charges by PACMAN v1.1 (https://github.com/mtap-research/PACMAN-charge/)
data_2019[Cu][bto]3[FSR]16
_chemical_formula_sum              "Cu6 H36 C42 N18 O18"
_cell_length_a       10.709
_cell_length_b       10.709
_cell_length_c       16.881
_cell_angle_alpha    90
_cell_angle_beta     90
_cell_angle_gamma    120

_symmetry_space_group_name_H-M    "P 1"
_symmetry_Int_Tables_number       1

loop_
  _symmetry_equiv_pos_as_xyz
  'x, y, z'

loop_
  _atom_site_type_symbol
  _atom_site_label
  _atom_site_symmetry_multiplicity
  _atom_site_fract_x
  _atom_site_fract_y
  _atom_site_fract_z
  _atom_site_occupancy
  _atom_site_charge
Cu  Cu1       1.0  0.42440  0.28990  0.63685  1.0000 0.7184771682
Cu  Cu2       1.0  0.86550  0.57560  0.30352  1.0000 0.7184771682
Cu  Cu3       1.0  0.71010  0.13450  0.97019  1.0000 0.7184771682
Cu  Cu4       1.0  0.13450  0.71010  0.02981  1.0000 0.7184771682
Cu  Cu5       1.0  0.28990  0.42440  0.36314  1.0000 0.7184771682
Cu  Cu6       1.0  0.57560  0.86550  0.69648  1.0000 0.7184771682
H   H1        1.0  0.56020  0.32960  0.80803  1.0000 0.120480382
H   H2        1.0  0.15840  0.43080  0.60664  1.0000 0.0907697018
H   H3        1.0  0.47000  0.39850  0.91953  1.0000 0.3011769837
H   H4        1.0  0.26050  0.42110  0.88253  1.0000 0.1326042871
H   H5        1.0  0.11880  0.37770  0.74633  1.0000 0.120480382
H   H6        1.0  0.11850  0.24750  0.70154  1.0000 0.1326042871
H   H7        1.0  0.76940  0.43980  0.47470  1.0000 0.120480382
H   H8        1.0  0.27240  0.84160  0.27330  1.0000 0.0907697018
H   H9        1.0  0.92850  0.53000  0.58620  1.0000 0.3011769837
H   H10       1.0  0.16060  0.73950  0.54920  1.0000 0.1326042871
H   H11       1.0  0.25890  0.88120  0.41300  1.0000 0.120480382
H   H12       1.0  0.12900  0.88150  0.36820  1.0000 0.1326042871
H   H13       1.0  0.67040  0.23060  0.14137  1.0000 0.120480382
H   H14       1.0  0.56920  0.72760  0.93997  1.0000 0.0907697018
H   H15       1.0  0.60150  0.07150  0.25287  1.0000 0.3011769837
H   H16       1.0  0.57890  0.83940  0.21587  1.0000 0.1326042871
H   H17       1.0  0.62230  0.74110  0.07967  1.0000 0.120480382
H   H18       1.0  0.75250  0.87100  0.03487  1.0000 0.1326042871
H   H19       1.0  0.23060  0.67040  0.85863  1.0000 0.120480382
H   H20       1.0  0.72760  0.56920  0.06003  1.0000 0.0907697018
H   H21       1.0  0.07150  0.60150  0.74713  1.0000 0.3011769837
H   H22       1.0  0.83940  0.57890  0.78413  1.0000 0.1326042871
H   H23       1.0  0.74110  0.62230  0.92033  1.0000 0.120480382
H   H24       1.0  0.87100  0.75250  0.96513  1.0000 0.1326042871
H   H25       1.0  0.32960  0.56020  0.19196  1.0000 0.120480382
H   H26       1.0  0.43080  0.15840  0.39337  1.0000 0.0907697018
H   H27       1.0  0.39850  0.47000  0.08046  1.0000 0.3011769837
H   H28       1.0  0.42110  0.26050  0.11746  1.0000 0.1326042871
H   H29       1.0  0.37770  0.11880  0.25366  1.0000 0.120480382
H   H30       1.0  0.24750  0.11850  0.29846  1.0000 0.1326042871
H   H31       1.0  0.43980  0.76940  0.52530  1.0000 0.120480382
H   H32       1.0  0.84160  0.27240  0.72670  1.0000 0.0907697018
H   H33       1.0  0.53000  0.92850  0.41380  1.0000 0.3011769837
H   H34       1.0  0.73950  0.16060  0.45080  1.0000 0.1326042871
H   H35       1.0  0.88120  0.25890  0.58700  1.0000 0.120480382
H   H36       1.0  0.88150  0.12900  0.63180  1.0000 0.1326042871
C   C1        1.0  0.48050  0.34390  0.80863  1.0000 0.1794129087
C   C2        1.0  0.29810  0.36200  0.77073  1.0000 0.1794129087
C   C3        1.0  0.24040  0.44490  0.64003  1.0000 0.0301277908
C   C4        1.0  0.33200  0.40450  0.52014  1.0000 0.3582472042
C   C5        1.0  0.31600  0.39600  0.85044  1.0000 -0.1127575923
C   C6        1.0  0.17920  0.34820  0.71713  1.0000 -0.2901505991
C   C7        1.0  0.32760  0.60310  0.66373  1.0000 0.5459143903
C   C8        1.0  0.86340  0.51950  0.47530  1.0000 0.1794129087
C   C9        1.0  0.06390  0.70190  0.43740  1.0000 0.1794129087
C   C10       1.0  0.20450  0.75960  0.30670  1.0000 0.0301277908
C   C11       1.0  0.07250  0.66800  0.18680  1.0000 0.3582472042
C   C12       1.0  0.08000  0.68400  0.51710  1.0000 -0.1127575923
C   C13       1.0  0.16900  0.82080  0.38380  1.0000 -0.2901505991
C   C14       1.0  0.27550  0.67240  0.33040  1.0000 0.5459143903
C   C15       1.0  0.65610  0.13660  0.14197  1.0000 0.1794129087
C   C16       1.0  0.63800  0.93610  0.10407  1.0000 0.1794129087
C   C17       1.0  0.55510  0.79550  0.97337  1.0000 0.0301277908
C   C18       1.0  0.59550  0.92750  0.85347  1.0000 0.3582472042
C   C19       1.0  0.60400  0.92000  0.18377  1.0000 -0.1127575923
C   C20       1.0  0.65180  0.83100  0.05047  1.0000 -0.2901505991
C   C21       1.0  0.39690  0.72450  0.99707  1.0000 0.5459143903
C   C22       1.0  0.13660  0.65610  0.85803  1.0000 0.1794129087
C   C23       1.0  0.93610  0.63800  0.89593  1.0000 0.1794129087
C   C24       1.0  0.79550  0.55510  0.02663  1.0000 0.0301277908
C   C25       1.0  0.92750  0.59550  0.14653  1.0000 0.3582472042
C   C26       1.0  0.92000  0.60400  0.81623  1.0000 -0.1127575923
C   C27       1.0  0.83100  0.65180  0.94953  1.0000 -0.2901505991
C   C28       1.0  0.72450  0.39690  0.00293  1.0000 0.5459143903
C   C29       1.0  0.34390  0.48050  0.19137  1.0000 0.1794129087
C   C30       1.0  0.36200  0.29810  0.22926  1.0000 0.1794129087
C   C31       1.0  0.44490  0.24040  0.35996  1.0000 0.0301277908
C   C32       1.0  0.40450  0.33200  0.47986  1.0000 0.3582472042
C   C33       1.0  0.39600  0.31600  0.14957  1.0000 -0.1127575923
C   C34       1.0  0.34820  0.17920  0.28286  1.0000 -0.2901505991
C   C35       1.0  0.60310  0.32760  0.33626  1.0000 0.5459143903
C   C36       1.0  0.51950  0.86340  0.52470  1.0000 0.1794129087
C   C37       1.0  0.70190  0.06390  0.56260  1.0000 0.1794129087
C   C38       1.0  0.75960  0.20450  0.69330  1.0000 0.0301277908
C   C39       1.0  0.66800  0.07250  0.81320  1.0000 0.3582472042
C   C40       1.0  0.68400  0.08000  0.48290  1.0000 -0.1127575923
C   C41       1.0  0.82080  0.16900  0.61620  1.0000 -0.2901505991
C   C42       1.0  0.67240  0.27550  0.66960  1.0000 0.5459143903
N   N1        1.0  0.39890  0.32870  0.74753  1.0000 -0.3452373062
N   N2        1.0  0.32290  0.38900  0.59723  1.0000 -0.4220842485
N   N3        1.0  0.43280  0.38330  0.87223  1.0000 -0.1871178512
N   N4        1.0  0.92980  0.60110  0.41420  1.0000 -0.3452373062
N   N5        1.0  0.06610  0.67710  0.26390  1.0000 -0.4220842485
N   N6        1.0  0.95050  0.56720  0.53890  1.0000 -0.1871178512
N   N7        1.0  0.67130  0.07020  0.08087  1.0000 -0.3452373062
N   N8        1.0  0.61100  0.93390  0.93057  1.0000 -0.4220842485
N   N9        1.0  0.61670  0.04950  0.20557  1.0000 -0.1871178512
N   N10       1.0  0.07020  0.67130  0.91913  1.0000 -0.3452373062
N   N11       1.0  0.93390  0.61100  0.06943  1.0000 -0.4220842485
N   N12       1.0  0.04950  0.61670  0.79443  1.0000 -0.1871178512
N   N13       1.0  0.32870  0.39890  0.25246  1.0000 -0.3452373062
N   N14       1.0  0.38900  0.32290  0.40276  1.0000 -0.4220842485
N   N15       1.0  0.38330  0.43280  0.12776  1.0000 -0.1871178512
N   N16       1.0  0.60110  0.92980  0.58580  1.0000 -0.3452373062
N   N17       1.0  0.67710  0.06610  0.73610  1.0000 -0.4220842485
N   N18       1.0  0.56720  0.95050  0.46110  1.0000 -0.1871178512
O   O1        1.0  0.46080  0.27650  0.52143  1.0000 -0.4665819719
O   O2        1.0  0.53780  0.19750  0.66844  1.0000 -0.4989842092
O   O3        1.0  0.25530  0.66130  0.67953  1.0000 -0.5867946162
O   O4        1.0  0.81570  0.53920  0.18810  1.0000 -0.4665819719
O   O5        1.0  0.65970  0.46220  0.33510  1.0000 -0.4989842092
O   O6        1.0  0.40600  0.74470  0.34620  1.0000 -0.5867946162
O   O7        1.0  0.72350  0.18430  0.85477  1.0000 -0.4665819719
O   O8        1.0  0.80250  0.34030  0.00177  1.0000 -0.4989842092
O   O9        1.0  0.33870  0.59400  0.01287  1.0000 -0.5867946162
O   O10       1.0  0.18430  0.72350  0.14523  1.0000 -0.4665819719
O   O11       1.0  0.34030  0.80250  0.99823  1.0000 -0.4989842092
O   O12       1.0  0.59400  0.33870  0.98713  1.0000 -0.5867946162
O   O13       1.0  0.27650  0.46080  0.47857  1.0000 -0.4665819719
O   O14       1.0  0.19750  0.53780  0.33156  1.0000 -0.4989842092
O   O15       1.0  0.66130  0.25530  0.32046  1.0000 -0.5867946162
O   O16       1.0  0.53920  0.81570  0.81190  1.0000 -0.4665819719
O   O17       1.0  0.46220  0.65970  0.66490  1.0000 -0.4989842092
O   O18       1.0  0.74470  0.40600  0.65380  1.0000 -0.5867946162
