# DDEC6 charges by PACMAN v1.1 (https://github.com/mtap-research/PACMAN-charge/)
data_2019[Sm][sql]2[FSR]1
_chemical_formula_sum              "Sm8 H88 C64 O68"
_cell_length_a       8.8073
_cell_length_b       14.1692
_cell_length_c       24.9439
_cell_angle_alpha    90
_cell_angle_beta     90
_cell_angle_gamma    90

_symmetry_space_group_name_H-M    "P 1"
_symmetry_Int_Tables_number       1

loop_
  _symmetry_equiv_pos_as_xyz
  'x, y, z'

loop_
  _atom_site_type_symbol
  _atom_site_label
  _atom_site_symmetry_multiplicity
  _atom_site_fract_x
  _atom_site_fract_y
  _atom_site_fract_z
  _atom_site_occupancy
  _atom_site_charge
Sm  Sm1       1.0  0.47381  0.10608  0.55716  1.0000 1.9847256355
Sm  Sm2       1.0  0.52619  0.89392  0.05716  1.0000 1.9847256355
Sm  Sm3       1.0  0.52619  0.89392  0.44284  1.0000 1.9847256355
Sm  Sm4       1.0  0.47381  0.10608  0.94284  1.0000 1.9847256355
Sm  Sm5       1.0  0.02619  0.60608  0.44284  1.0000 1.9847256355
Sm  Sm6       1.0  0.97381  0.39392  0.94284  1.0000 1.9847256355
Sm  Sm7       1.0  0.97381  0.39392  0.55716  1.0000 1.9847256355
Sm  Sm8       1.0  0.02619  0.60608  0.05716  1.0000 1.9847256355
H   H1        1.0  0.53462  0.29853  0.56653  1.0000 0.37361354
H   H2        1.0  0.37916  0.29100  0.57536  1.0000 0.3853208087
H   H3        1.0  0.67913  0.11940  0.47153  1.0000 0.3808203153
H   H4        1.0  0.60209  0.20582  0.47138  1.0000 0.3621322922
H   H5        1.0  0.75881  0.93527  0.62004  1.0000 0.1409261515
H   H6        1.0  0.83438  0.83987  0.60192  1.0000 0.1303999237
H   H7        1.0  0.92071  0.01553  0.55489  1.0000 0.1025841352
H   H8        1.0  0.00655  0.91968  0.54668  1.0000 0.1025841352
H   H9        1.0  0.00192  0.02260  0.64340  1.0000 0.1409261515
H   H10       1.0  0.08061  0.92350  0.63770  1.0000 0.1303999237
H   H11       1.0  0.89438  0.23050  0.69967  1.0000 0.1544351465
H   H12       1.0  0.46538  0.70147  0.06653  1.0000 0.37361354
H   H13       1.0  0.62084  0.70900  0.07536  1.0000 0.3853208087
H   H14       1.0  0.32087  0.88060  0.97153  1.0000 0.3808203153
H   H15       1.0  0.39791  0.79418  0.97138  1.0000 0.3621322922
H   H16       1.0  0.24119  0.06473  0.12004  1.0000 0.1409261515
H   H17       1.0  0.16562  0.16013  0.10192  1.0000 0.1303999237
H   H18       1.0  0.07929  0.98447  0.05489  1.0000 0.1025841352
H   H19       1.0  0.99345  0.08032  0.04668  1.0000 0.1025841352
H   H20       1.0  0.99808  0.97740  0.14340  1.0000 0.1409261515
H   H21       1.0  0.91939  0.07650  0.13770  1.0000 0.1303999237
H   H22       1.0  0.10562  0.76950  0.19967  1.0000 0.1544351465
H   H23       1.0  0.46538  0.70147  0.43347  1.0000 0.37361354
H   H24       1.0  0.62084  0.70900  0.42464  1.0000 0.3853208087
H   H25       1.0  0.32087  0.88060  0.52847  1.0000 0.3808203153
H   H26       1.0  0.39791  0.79418  0.52862  1.0000 0.3621322922
H   H27       1.0  0.24119  0.06473  0.37996  1.0000 0.1409261515
H   H28       1.0  0.16562  0.16013  0.39808  1.0000 0.1303999237
H   H29       1.0  0.07929  0.98447  0.44511  1.0000 0.1025841352
H   H30       1.0  0.99345  0.08032  0.45332  1.0000 0.1025841352
H   H31       1.0  0.99808  0.97740  0.35660  1.0000 0.1409261515
H   H32       1.0  0.91939  0.07650  0.36230  1.0000 0.1303999237
H   H33       1.0  0.10562  0.76950  0.30033  1.0000 0.1544351465
H   H34       1.0  0.53462  0.29853  0.93347  1.0000 0.37361354
H   H35       1.0  0.37916  0.29100  0.92464  1.0000 0.3853208087
H   H36       1.0  0.67913  0.11940  0.02847  1.0000 0.3808203153
H   H37       1.0  0.60209  0.20582  0.02862  1.0000 0.3621322922
H   H38       1.0  0.75881  0.93527  0.87996  1.0000 0.1409261515
H   H39       1.0  0.83438  0.83987  0.89808  1.0000 0.1303999237
H   H40       1.0  0.92071  0.01553  0.94511  1.0000 0.1025841352
H   H41       1.0  0.00655  0.91968  0.95332  1.0000 0.1025841352
H   H42       1.0  0.00192  0.02260  0.85660  1.0000 0.1409261515
H   H43       1.0  0.08061  0.92350  0.86230  1.0000 0.1303999237
H   H44       1.0  0.89438  0.23050  0.80033  1.0000 0.1544351465
H   H45       1.0  0.96538  0.79853  0.43347  1.0000 0.37361354
H   H46       1.0  0.12084  0.79100  0.42464  1.0000 0.3853208087
H   H47       1.0  0.82087  0.61940  0.52847  1.0000 0.3808203153
H   H48       1.0  0.89791  0.70582  0.52862  1.0000 0.3621322922
H   H49       1.0  0.74119  0.43527  0.37996  1.0000 0.1409261515
H   H50       1.0  0.66562  0.33987  0.39808  1.0000 0.1303999237
H   H51       1.0  0.57929  0.51553  0.44511  1.0000 0.1025841352
H   H52       1.0  0.49345  0.41968  0.45332  1.0000 0.1025841352
H   H53       1.0  0.49808  0.52260  0.35660  1.0000 0.1409261515
H   H54       1.0  0.41939  0.42350  0.36230  1.0000 0.1303999237
H   H55       1.0  0.60562  0.73050  0.30033  1.0000 0.1544351465
H   H56       1.0  0.03462  0.20147  0.93347  1.0000 0.37361354
H   H57       1.0  0.87916  0.20900  0.92464  1.0000 0.3853208087
H   H58       1.0  0.17913  0.38060  0.02847  1.0000 0.3808203153
H   H59       1.0  0.10209  0.29418  0.02862  1.0000 0.3621322922
H   H60       1.0  0.25881  0.56473  0.87996  1.0000 0.1409261515
H   H61       1.0  0.33438  0.66013  0.89808  1.0000 0.1303999237
H   H62       1.0  0.42071  0.48447  0.94511  1.0000 0.1025841352
H   H63       1.0  0.50655  0.58032  0.95332  1.0000 0.1025841352
H   H64       1.0  0.50192  0.47740  0.85660  1.0000 0.1409261515
H   H65       1.0  0.58061  0.57650  0.86230  1.0000 0.1303999237
H   H66       1.0  0.39438  0.26950  0.80033  1.0000 0.1544351465
H   H67       1.0  0.03462  0.20147  0.56653  1.0000 0.37361354
H   H68       1.0  0.87916  0.20900  0.57536  1.0000 0.3853208087
H   H69       1.0  0.17913  0.38060  0.47153  1.0000 0.3808203153
H   H70       1.0  0.10209  0.29418  0.47138  1.0000 0.3621322922
H   H71       1.0  0.25881  0.56473  0.62004  1.0000 0.1409261515
H   H72       1.0  0.33438  0.66013  0.60192  1.0000 0.1303999237
H   H73       1.0  0.42071  0.48447  0.55489  1.0000 0.1025841352
H   H74       1.0  0.50655  0.58032  0.54668  1.0000 0.1025841352
H   H75       1.0  0.50192  0.47740  0.64340  1.0000 0.1409261515
H   H76       1.0  0.58061  0.57650  0.63770  1.0000 0.1303999237
H   H77       1.0  0.39438  0.26950  0.69967  1.0000 0.1544351465
H   H78       1.0  0.96538  0.79853  0.06653  1.0000 0.37361354
H   H79       1.0  0.12084  0.79100  0.07536  1.0000 0.3853208087
H   H80       1.0  0.82087  0.61940  0.97153  1.0000 0.3808203153
H   H81       1.0  0.89791  0.70582  0.97138  1.0000 0.3621322922
H   H82       1.0  0.74119  0.43527  0.12004  1.0000 0.1409261515
H   H83       1.0  0.66562  0.33987  0.10192  1.0000 0.1303999237
H   H84       1.0  0.57929  0.51553  0.05489  1.0000 0.1025841352
H   H85       1.0  0.49345  0.41968  0.04668  1.0000 0.1025841352
H   H86       1.0  0.49808  0.52260  0.14340  1.0000 0.1409261515
H   H87       1.0  0.41939  0.42350  0.13770  1.0000 0.1303999237
H   H88       1.0  0.60562  0.73050  0.19967  1.0000 0.1544351465
C   C1        1.0  0.70010  0.89770  0.54370  1.0000 0.6668841652
C   C2        1.0  0.64330  0.12020  0.65360  1.0000 0.5271776505
C   C3        1.0  0.19570  0.02810  0.59740  1.0000 0.6307663582
C   C4        1.0  0.80710  0.90290  0.59030  1.0000 -0.3213707135
C   C5        1.0  0.71030  0.14660  0.70600  1.0000 0.0707494728
C   C6        1.0  0.95100  0.95750  0.57250  1.0000 -0.0994905755
C   C7        1.0  0.05370  0.98080  0.61860  1.0000 -0.3213707135
C   C8        1.0  0.82580  0.19920  0.72180  1.0000 -0.161676202
C   C9        1.0  0.29990  0.10230  0.04370  1.0000 0.6668841652
C   C10       1.0  0.35670  0.87980  0.15360  1.0000 0.5271776505
C   C11       1.0  0.80430  0.97190  0.09740  1.0000 0.6307663582
C   C12       1.0  0.19290  0.09710  0.09030  1.0000 -0.3213707135
C   C13       1.0  0.28970  0.85340  0.20600  1.0000 0.0707494728
C   C14       1.0  0.04900  0.04250  0.07250  1.0000 -0.0994905755
C   C15       1.0  0.94630  0.01920  0.11860  1.0000 -0.3213707135
C   C16       1.0  0.17420  0.80080  0.22180  1.0000 -0.161676202
C   C17       1.0  0.29990  0.10230  0.45630  1.0000 0.6668841652
C   C18       1.0  0.35670  0.87980  0.34640  1.0000 0.5271776505
C   C19       1.0  0.80430  0.97190  0.40260  1.0000 0.6307663582
C   C20       1.0  0.19290  0.09710  0.40970  1.0000 -0.3213707135
C   C21       1.0  0.28970  0.85340  0.29400  1.0000 0.0707494728
C   C22       1.0  0.04900  0.04250  0.42750  1.0000 -0.0994905755
C   C23       1.0  0.94630  0.01920  0.38140  1.0000 -0.3213707135
C   C24       1.0  0.17420  0.80080  0.27820  1.0000 -0.161676202
C   C25       1.0  0.70010  0.89770  0.95630  1.0000 0.6668841652
C   C26       1.0  0.64330  0.12020  0.84640  1.0000 0.5271776505
C   C27       1.0  0.19570  0.02810  0.90260  1.0000 0.6307663582
C   C28       1.0  0.80710  0.90290  0.90970  1.0000 -0.3213707135
C   C29       1.0  0.71030  0.14660  0.79400  1.0000 0.0707494728
C   C30       1.0  0.95100  0.95750  0.92750  1.0000 -0.0994905755
C   C31       1.0  0.05370  0.98080  0.88140  1.0000 -0.3213707135
C   C32       1.0  0.82580  0.19920  0.77820  1.0000 -0.161676202
C   C33       1.0  0.79990  0.39770  0.45630  1.0000 0.6668841652
C   C34       1.0  0.85670  0.62020  0.34640  1.0000 0.5271776505
C   C35       1.0  0.30430  0.52810  0.40260  1.0000 0.6307663582
C   C36       1.0  0.69290  0.40290  0.40970  1.0000 -0.3213707135
C   C37       1.0  0.78970  0.64660  0.29400  1.0000 0.0707494728
C   C38       1.0  0.54900  0.45750  0.42750  1.0000 -0.0994905755
C   C39       1.0  0.44630  0.48080  0.38140  1.0000 -0.3213707135
C   C40       1.0  0.67420  0.69920  0.27820  1.0000 -0.161676202
C   C41       1.0  0.20010  0.60230  0.95630  1.0000 0.6668841652
C   C42       1.0  0.14330  0.37980  0.84640  1.0000 0.5271776505
C   C43       1.0  0.69570  0.47190  0.90260  1.0000 0.6307663582
C   C44       1.0  0.30710  0.59710  0.90970  1.0000 -0.3213707135
C   C45       1.0  0.21030  0.35340  0.79400  1.0000 0.0707494728
C   C46       1.0  0.45100  0.54250  0.92750  1.0000 -0.0994905755
C   C47       1.0  0.55370  0.51920  0.88140  1.0000 -0.3213707135
C   C48       1.0  0.32580  0.30080  0.77820  1.0000 -0.161676202
C   C49       1.0  0.20010  0.60230  0.54370  1.0000 0.6668841652
C   C50       1.0  0.14330  0.37980  0.65360  1.0000 0.5271776505
C   C51       1.0  0.69570  0.47190  0.59740  1.0000 0.6307663582
C   C52       1.0  0.30710  0.59710  0.59030  1.0000 -0.3213707135
C   C53       1.0  0.21030  0.35340  0.70600  1.0000 0.0707494728
C   C54       1.0  0.45100  0.54250  0.57250  1.0000 -0.0994905755
C   C55       1.0  0.55370  0.51920  0.61860  1.0000 -0.3213707135
C   C56       1.0  0.32580  0.30080  0.72180  1.0000 -0.161676202
C   C57       1.0  0.79990  0.39770  0.04370  1.0000 0.6668841652
C   C58       1.0  0.85670  0.62020  0.15360  1.0000 0.5271776505
C   C59       1.0  0.30430  0.52810  0.09740  1.0000 0.6307663582
C   C60       1.0  0.69290  0.40290  0.09030  1.0000 -0.3213707135
C   C61       1.0  0.78970  0.64660  0.20600  1.0000 0.0707494728
C   C62       1.0  0.54900  0.45750  0.07250  1.0000 -0.0994905755
C   C63       1.0  0.44630  0.48080  0.11860  1.0000 -0.3213707135
C   C64       1.0  0.67420  0.69920  0.22180  1.0000 -0.161676202
O   O1        1.0  0.71200  0.14230  0.61061  1.0000 -0.6095815189
O   O2        1.0  0.61030  0.96500  0.53492  1.0000 -0.7390691825
O   O3        1.0  0.46580  0.26810  0.58321  1.0000 -0.7787872628
O   O4        1.0  0.70620  0.83080  0.51126  1.0000 -0.6095815189
O   O5        1.0  0.21130  0.11630  0.59894  1.0000 -0.6095815189
O   O6        1.0  0.29820  0.97700  0.57849  1.0000 -0.6373193451
O   O7        1.0  0.64710  0.16510  0.49130  1.0000 -0.7787872628
O   O8        1.0  0.51700  0.08100  0.65305  1.0000 -0.5835949071
O   O9        1.0  0.28800  0.85770  0.11061  1.0000 -0.6095815189
O   O10       1.0  0.38970  0.03500  0.03492  1.0000 -0.7390691825
O   O11       1.0  0.53420  0.73190  0.08321  1.0000 -0.7787872628
O   O12       1.0  0.29380  0.16920  0.01126  1.0000 -0.6095815189
O   O13       1.0  0.78870  0.88370  0.09894  1.0000 -0.6095815189
O   O14       1.0  0.70180  0.02300  0.07849  1.0000 -0.6373193451
O   O15       1.0  0.35290  0.83490  0.99130  1.0000 -0.7787872628
O   O16       1.0  0.48300  0.91900  0.15305  1.0000 -0.5835949071
O   O17       1.0  0.28800  0.85770  0.38939  1.0000 -0.6095815189
O   O18       1.0  0.38970  0.03500  0.46508  1.0000 -0.7390691825
O   O19       1.0  0.53420  0.73190  0.41679  1.0000 -0.7787872628
O   O20       1.0  0.29380  0.16920  0.48874  1.0000 -0.6095815189
O   O21       1.0  0.78870  0.88370  0.40106  1.0000 -0.6095815189
O   O22       1.0  0.70180  0.02300  0.42151  1.0000 -0.6373193451
O   O23       1.0  0.35290  0.83490  0.50870  1.0000 -0.7787872628
O   O24       1.0  0.48300  0.91900  0.34695  1.0000 -0.5835949071
O   O25       1.0  0.71200  0.14230  0.88939  1.0000 -0.6095815189
O   O26       1.0  0.61030  0.96500  0.96508  1.0000 -0.7390691825
O   O27       1.0  0.46580  0.26810  0.91679  1.0000 -0.7787872628
O   O28       1.0  0.70620  0.83080  0.98874  1.0000 -0.6095815189
O   O29       1.0  0.21130  0.11630  0.90106  1.0000 -0.6095815189
O   O30       1.0  0.29820  0.97700  0.92151  1.0000 -0.6373193451
O   O31       1.0  0.64710  0.16510  0.00870  1.0000 -0.7787872628
O   O32       1.0  0.51700  0.08100  0.84695  1.0000 -0.5835949071
O   O33       1.0  0.63450  0.11410  0.75000  1.0000 -0.0684701689
O   O34       1.0  0.36550  0.88590  0.25000  1.0000 -0.0684701689
O   O35       1.0  0.78800  0.64230  0.38939  1.0000 -0.6095815189
O   O36       1.0  0.88970  0.46500  0.46508  1.0000 -0.7390691825
O   O37       1.0  0.03420  0.76810  0.41679  1.0000 -0.7787872628
O   O38       1.0  0.79380  0.33080  0.48874  1.0000 -0.6095815189
O   O39       1.0  0.28870  0.61630  0.40106  1.0000 -0.6095815189
O   O40       1.0  0.20180  0.47700  0.42151  1.0000 -0.6373193451
O   O41       1.0  0.85290  0.66510  0.50870  1.0000 -0.7787872628
O   O42       1.0  0.98300  0.58100  0.34695  1.0000 -0.5835949071
O   O43       1.0  0.21200  0.35770  0.88939  1.0000 -0.6095815189
O   O44       1.0  0.11030  0.53500  0.96508  1.0000 -0.7390691825
O   O45       1.0  0.96580  0.23190  0.91679  1.0000 -0.7787872628
O   O46       1.0  0.20620  0.66920  0.98874  1.0000 -0.6095815189
O   O47       1.0  0.71130  0.38370  0.90106  1.0000 -0.6095815189
O   O48       1.0  0.79820  0.52300  0.92151  1.0000 -0.6373193451
O   O49       1.0  0.14710  0.33490  0.00870  1.0000 -0.7787872628
O   O50       1.0  0.01700  0.41900  0.84695  1.0000 -0.5835949071
O   O51       1.0  0.21200  0.35770  0.61061  1.0000 -0.6095815189
O   O52       1.0  0.11030  0.53500  0.53492  1.0000 -0.7390691825
O   O53       1.0  0.96580  0.23190  0.58321  1.0000 -0.7787872628
O   O54       1.0  0.20620  0.66920  0.51126  1.0000 -0.6095815189
O   O55       1.0  0.71130  0.38370  0.59894  1.0000 -0.6095815189
O   O56       1.0  0.79820  0.52300  0.57849  1.0000 -0.6373193451
O   O57       1.0  0.14710  0.33490  0.49130  1.0000 -0.7787872628
O   O58       1.0  0.01700  0.41900  0.65305  1.0000 -0.5835949071
O   O59       1.0  0.78800  0.64230  0.11061  1.0000 -0.6095815189
O   O60       1.0  0.88970  0.46500  0.03492  1.0000 -0.7390691825
O   O61       1.0  0.03420  0.76810  0.08321  1.0000 -0.7787872628
O   O62       1.0  0.79380  0.33080  0.01126  1.0000 -0.6095815189
O   O63       1.0  0.28870  0.61630  0.09894  1.0000 -0.6095815189
O   O64       1.0  0.20180  0.47700  0.07849  1.0000 -0.6373193451
O   O65       1.0  0.85290  0.66510  0.99130  1.0000 -0.7787872628
O   O66       1.0  0.98300  0.58100  0.15305  1.0000 -0.5835949071
O   O67       1.0  0.86550  0.61410  0.25000  1.0000 -0.0684701689
O   O68       1.0  0.13450  0.38590  0.75000  1.0000 -0.0684701689
