# DDEC6 charges by PACMAN v1.1 (https://github.com/mtap-research/PACMAN-charge/)
data_2019[Cd][roa]3[FSR]1
_chemical_formula_sum              "Cd4 H96 C136 N24 O28"
_cell_length_a       20.8656
_cell_length_b       20.8656
_cell_length_c       29.8769
_cell_angle_alpha    70.736
_cell_angle_beta     109.264
_cell_angle_gamma    155.429

_symmetry_space_group_name_H-M    "P 1"
_symmetry_Int_Tables_number       1

loop_
  _symmetry_equiv_pos_as_xyz
  'x, y, z'

loop_
  _atom_site_type_symbol
  _atom_site_label
  _atom_site_symmetry_multiplicity
  _atom_site_fract_x
  _atom_site_fract_y
  _atom_site_fract_z
  _atom_site_occupancy
  _atom_site_charge
Cd  Cd1       1.0  0.34804  0.89388  0.53247  1.0000 0.8571700925
Cd  Cd2       1.0  0.89388  0.34804  0.96753  1.0000 0.8571700925
Cd  Cd3       1.0  0.65196  0.10612  0.46753  1.0000 0.8571700925
Cd  Cd4       1.0  0.10612  0.65196  0.03247  1.0000 0.8571700925
H   H1        1.0  0.97133  0.66093  0.60132  1.0000 0.1100654643
H   H2        1.0  0.68519  0.36055  0.60033  1.0000 0.1402813854
H   H3        1.0  0.11969  0.89001  0.79927  1.0000 0.1454375113
H   H4        1.0  0.22952  0.52884  0.61755  1.0000 0.1402813854
H   H5        1.0  0.35796  0.93342  0.68553  1.0000 0.1223842778
H   H6        1.0  0.58531  0.16991  0.59422  1.0000 0.1100654643
H   H7        1.0  0.50270  0.29206  0.46603  1.0000 0.1310742914
H   H8        1.0  0.89433  0.63895  0.65675  1.0000 0.1402813854
H   H9        1.0  0.28235  0.91343  0.74124  1.0000 0.1310742914
H   H10       1.0  0.98548  0.59250  0.78040  1.0000 0.1310742914
H   H11       1.0  0.15574  0.63926  0.47570  1.0000 0.1100654643
H   H12       1.0  0.30687  0.70889  0.61032  1.0000 0.1100654643
H   H13       1.0  0.14113  0.85591  0.88135  1.0000 0.1223842778
H   H14       1.0  0.07496  0.45884  0.47833  1.0000 0.1402813854
H   H15       1.0  0.85105  0.10143  0.45845  1.0000 0.1100654643
H   H16       1.0  0.40600  0.10078  0.46444  1.0000 0.1100654643
H   H17       1.0  0.00253  0.55355  0.86264  1.0000 0.1223842778
H   H18       1.0  0.70912  0.90464  0.41662  1.0000 0.1310742914
H   H19       1.0  0.60866  0.58454  0.44454  1.0000 0.1100654643
H   H20       1.0  0.62539  0.72540  0.41140  1.0000 0.1310742914
H   H21       1.0  0.92019  0.99999  0.54535  1.0000 0.1223842778
H   H22       1.0  0.83278  0.81780  0.54048  1.0000 0.1310742914
H   H23       1.0  0.96860  0.27340  0.48860  1.0000 0.2681709702
H   H24       1.0  0.58550  0.45050  0.47350  1.0000 0.250547491
H   H25       1.0  0.66093  0.97133  0.89868  1.0000 0.1100654643
H   H26       1.0  0.36055  0.68519  0.89967  1.0000 0.1402813854
H   H27       1.0  0.89001  0.11969  0.70073  1.0000 0.1454375113
H   H28       1.0  0.52884  0.22952  0.88245  1.0000 0.1402813854
H   H29       1.0  0.93342  0.35796  0.81447  1.0000 0.1223842778
H   H30       1.0  0.16991  0.58531  0.90578  1.0000 0.1100654643
H   H31       1.0  0.29206  0.50270  0.03397  1.0000 0.1310742914
H   H32       1.0  0.63895  0.89433  0.84325  1.0000 0.1402813854
H   H33       1.0  0.91343  0.28235  0.75876  1.0000 0.1310742914
H   H34       1.0  0.59250  0.98548  0.71960  1.0000 0.1310742914
H   H35       1.0  0.63926  0.15574  0.02430  1.0000 0.1100654643
H   H36       1.0  0.70889  0.30687  0.88968  1.0000 0.1100654643
H   H37       1.0  0.85591  0.14113  0.61865  1.0000 0.1223842778
H   H38       1.0  0.45884  0.07496  0.02167  1.0000 0.1402813854
H   H39       1.0  0.10143  0.85105  0.04155  1.0000 0.1100654643
H   H40       1.0  0.10078  0.40600  0.03556  1.0000 0.1100654643
H   H41       1.0  0.55355  0.00253  0.63736  1.0000 0.1223842778
H   H42       1.0  0.90464  0.70912  0.08338  1.0000 0.1310742914
H   H43       1.0  0.58454  0.60866  0.05546  1.0000 0.1100654643
H   H44       1.0  0.72540  0.62540  0.08860  1.0000 0.1310742914
H   H45       1.0  0.99999  0.92019  0.95465  1.0000 0.1223842778
H   H46       1.0  0.81780  0.83278  0.95952  1.0000 0.1310742914
H   H47       1.0  0.27340  0.96860  0.01140  1.0000 0.2681709702
H   H48       1.0  0.45050  0.58550  0.02650  1.0000 0.250547491
H   H49       1.0  0.02867  0.33907  0.39868  1.0000 0.1100654643
H   H50       1.0  0.31481  0.63945  0.39967  1.0000 0.1402813854
H   H51       1.0  0.88031  0.10999  0.20073  1.0000 0.1454375113
H   H52       1.0  0.77048  0.47116  0.38245  1.0000 0.1402813854
H   H53       1.0  0.64204  0.06658  0.31447  1.0000 0.1223842778
H   H54       1.0  0.41469  0.83009  0.40578  1.0000 0.1100654643
H   H55       1.0  0.49730  0.70794  0.53397  1.0000 0.1310742914
H   H56       1.0  0.10567  0.36105  0.34325  1.0000 0.1402813854
H   H57       1.0  0.71765  0.08657  0.25876  1.0000 0.1310742914
H   H58       1.0  0.01452  0.40750  0.21960  1.0000 0.1310742914
H   H59       1.0  0.84426  0.36074  0.52430  1.0000 0.1100654643
H   H60       1.0  0.69313  0.29111  0.38968  1.0000 0.1100654643
H   H61       1.0  0.85887  0.14409  0.11865  1.0000 0.1223842778
H   H62       1.0  0.92504  0.54116  0.52167  1.0000 0.1402813854
H   H63       1.0  0.14895  0.89857  0.54155  1.0000 0.1100654643
H   H64       1.0  0.59400  0.89922  0.53556  1.0000 0.1100654643
H   H65       1.0  0.99747  0.44645  0.13736  1.0000 0.1223842778
H   H66       1.0  0.29088  0.09536  0.58338  1.0000 0.1310742914
H   H67       1.0  0.39134  0.41546  0.55546  1.0000 0.1100654643
H   H68       1.0  0.37460  0.27460  0.58860  1.0000 0.1310742914
H   H69       1.0  0.07981  0.00001  0.45465  1.0000 0.1223842778
H   H70       1.0  0.16722  0.18220  0.45952  1.0000 0.1310742914
H   H71       1.0  0.03140  0.72660  0.51140  1.0000 0.2681709702
H   H72       1.0  0.41450  0.54950  0.52650  1.0000 0.250547491
H   H73       1.0  0.33907  0.02867  0.10132  1.0000 0.1100654643
H   H74       1.0  0.63945  0.31481  0.10033  1.0000 0.1402813854
H   H75       1.0  0.10999  0.88031  0.29927  1.0000 0.1454375113
H   H76       1.0  0.47116  0.77048  0.11755  1.0000 0.1402813854
H   H77       1.0  0.06658  0.64204  0.18553  1.0000 0.1223842778
H   H78       1.0  0.83009  0.41469  0.09422  1.0000 0.1100654643
H   H79       1.0  0.70794  0.49730  0.96603  1.0000 0.1310742914
H   H80       1.0  0.36105  0.10567  0.15675  1.0000 0.1402813854
H   H81       1.0  0.08657  0.71765  0.24124  1.0000 0.1310742914
H   H82       1.0  0.40750  0.01452  0.28040  1.0000 0.1310742914
H   H83       1.0  0.36074  0.84426  0.97570  1.0000 0.1100654643
H   H84       1.0  0.29111  0.69313  0.11032  1.0000 0.1100654643
H   H85       1.0  0.14409  0.85887  0.38135  1.0000 0.1223842778
H   H86       1.0  0.54116  0.92504  0.97833  1.0000 0.1402813854
H   H87       1.0  0.89857  0.14895  0.95845  1.0000 0.1100654643
H   H88       1.0  0.89922  0.59400  0.96444  1.0000 0.1100654643
H   H89       1.0  0.44645  0.99747  0.36264  1.0000 0.1223842778
H   H90       1.0  0.09536  0.29088  0.91662  1.0000 0.1310742914
H   H91       1.0  0.41546  0.39134  0.94454  1.0000 0.1100654643
H   H92       1.0  0.27460  0.37461  0.91140  1.0000 0.1310742914
H   H93       1.0  0.00001  0.07981  0.04535  1.0000 0.1223842778
H   H94       1.0  0.18220  0.16722  0.04048  1.0000 0.1310742914
H   H95       1.0  0.72660  0.03140  0.98860  1.0000 0.2681709702
H   H96       1.0  0.54950  0.41450  0.97350  1.0000 0.250547491
C   C1        1.0  0.07828  0.70472  0.88041  1.0000 -0.0595994549
C   C2        1.0  0.21827  0.80973  0.60258  1.0000 0.5424258883
C   C3        1.0  0.16968  0.79632  0.63842  1.0000 -0.0458101326
C   C4        1.0  0.03405  0.71135  0.62996  1.0000 -0.0989929301
C   C5        1.0  0.62737  0.30823  0.57203  1.0000 -0.1661224489
C   C6        1.0  0.09777  0.82323  0.81233  1.0000 -0.201313482
C   C7        1.0  0.21354  0.54986  0.58791  1.0000 -0.160045748
C   C8        1.0  0.26372  0.87328  0.67981  1.0000 -0.0910912365
C   C9        1.0  0.60240  0.34560  0.53408  1.0000 0.0212660345
C   C10       1.0  0.72017  0.75323  0.47531  1.0000 0.0807783135
C   C11       1.0  0.09525  0.68575  0.93274  1.0000 0.5466758187
C   C12       1.0  0.56711  0.19409  0.56806  1.0000 0.0807783135
C   C13       1.0  0.51987  0.26793  0.49304  1.0000 -0.1947148567
C   C14       1.0  0.14447  0.47473  0.54857  1.0000 0.0383897821
C   C15       1.0  0.98834  0.69866  0.66258  1.0000 -0.1947148567
C   C16       1.0  0.82705  0.97375  0.48117  1.0000 0.0807783135
C   C17       1.0  0.08184  0.77436  0.70383  1.0000 0.250547491
C   C18       1.0  0.05339  0.74661  0.78292  1.0000 0.250547491
C   C19       1.0  0.21908  0.86172  0.71280  1.0000 -0.2206218516
C   C20       1.0  0.10198  0.36422  0.55379  1.0000 0.4398712541
C   C21       1.0  0.66579  0.46721  0.54063  1.0000 0.4398712541
C   C22       1.0  0.01751  0.64589  0.80121  1.0000 -0.2143973572
C   C23       1.0  0.17160  0.61700  0.50475  1.0000 0.0728663827
C   C24       1.0  0.25950  0.65750  0.58316  1.0000 0.0909267689
C   C25       1.0  0.11045  0.80295  0.86096  1.0000 -0.0910912365
C   C26       1.0  0.12265  0.50895  0.50601  1.0000 -0.160045748
C   C27       1.0  0.88098  0.08802  0.48360  1.0000 -0.0040710434
C   C28       1.0  0.46293  0.15407  0.49243  1.0000 0.0807783135
C   C29       1.0  0.02856  0.62364  0.84987  1.0000 -0.0989929301
C   C30       1.0  0.73658  0.88882  0.44190  1.0000 -0.1512661626
C   C31       1.0  0.66593  0.63867  0.47233  1.0000 -0.0169530076
C   C32       1.0  0.68546  0.78094  0.43900  1.0000 -0.1422687409
C   C33       1.0  0.86031  0.94469  0.51770  1.0000 -0.1295015116
C   C34       1.0  0.80782  0.83578  0.51480  1.0000 -0.1422687409
C   C35       1.0  0.70472  0.07828  0.61959  1.0000 -0.0595994549
C   C36       1.0  0.80973  0.21827  0.89742  1.0000 0.5424258883
C   C37       1.0  0.79632  0.16968  0.86158  1.0000 -0.0458101326
C   C38       1.0  0.71135  0.03405  0.87004  1.0000 -0.0989929301
C   C39       1.0  0.30823  0.62737  0.92797  1.0000 -0.1661224489
C   C40       1.0  0.82323  0.09777  0.68767  1.0000 -0.201313482
C   C41       1.0  0.54986  0.21354  0.91209  1.0000 -0.160045748
C   C42       1.0  0.87328  0.26372  0.82019  1.0000 -0.0910912365
C   C43       1.0  0.34560  0.60240  0.96592  1.0000 0.0212660345
C   C44       1.0  0.75323  0.72017  0.02469  1.0000 0.0807783135
C   C45       1.0  0.68575  0.09525  0.56726  1.0000 0.5466758187
C   C46       1.0  0.19409  0.56711  0.93194  1.0000 0.0807783135
C   C47       1.0  0.26793  0.51987  0.00696  1.0000 -0.1947148567
C   C48       1.0  0.47473  0.14447  0.95143  1.0000 0.0383897821
C   C49       1.0  0.69866  0.98834  0.83742  1.0000 -0.1947148567
C   C50       1.0  0.97375  0.82705  0.01883  1.0000 0.0807783135
C   C51       1.0  0.77436  0.08184  0.79617  1.0000 0.250547491
C   C52       1.0  0.74661  0.05339  0.71708  1.0000 0.250547491
C   C53       1.0  0.86172  0.21908  0.78720  1.0000 -0.2206218516
C   C54       1.0  0.36422  0.10198  0.94621  1.0000 0.4398712541
C   C55       1.0  0.46721  0.66579  0.95937  1.0000 0.4398712541
C   C56       1.0  0.64589  0.01751  0.69879  1.0000 -0.2143973572
C   C57       1.0  0.61700  0.17160  0.99525  1.0000 0.0728663827
C   C58       1.0  0.65750  0.25950  0.91684  1.0000 0.0909267689
C   C59       1.0  0.80295  0.11045  0.63904  1.0000 -0.0910912365
C   C60       1.0  0.50895  0.12265  0.99399  1.0000 -0.160045748
C   C61       1.0  0.08802  0.88098  0.01640  1.0000 -0.0040710434
C   C62       1.0  0.15407  0.46293  0.00757  1.0000 0.0807783135
C   C63       1.0  0.62364  0.02856  0.65013  1.0000 -0.0989929301
C   C64       1.0  0.88882  0.73658  0.05810  1.0000 -0.1512661626
C   C65       1.0  0.63867  0.66593  0.02767  1.0000 -0.0169530076
C   C66       1.0  0.78094  0.68546  0.06100  1.0000 -0.1422687409
C   C67       1.0  0.94469  0.86031  0.98230  1.0000 -0.1295015116
C   C68       1.0  0.83578  0.80782  0.98520  1.0000 -0.1422687409
C   C69       1.0  0.92172  0.29528  0.11959  1.0000 -0.0595994549
C   C70       1.0  0.78173  0.19027  0.39742  1.0000 0.5424258883
C   C71       1.0  0.83032  0.20368  0.36158  1.0000 -0.0458101326
C   C72       1.0  0.96595  0.28865  0.37004  1.0000 -0.0989929301
C   C73       1.0  0.37263  0.69177  0.42797  1.0000 -0.1661224489
C   C74       1.0  0.90223  0.17677  0.18767  1.0000 -0.201313482
C   C75       1.0  0.78646  0.45014  0.41209  1.0000 -0.160045748
C   C76       1.0  0.73628  0.12672  0.32019  1.0000 -0.0910912365
C   C77       1.0  0.39760  0.65440  0.46592  1.0000 0.0212660345
C   C78       1.0  0.27983  0.24677  0.52469  1.0000 0.0807783135
C   C79       1.0  0.90475  0.31425  0.06726  1.0000 0.5466758187
C   C80       1.0  0.43289  0.80591  0.43194  1.0000 0.0807783135
C   C81       1.0  0.48013  0.73207  0.50696  1.0000 -0.1947148567
C   C82       1.0  0.85553  0.52527  0.45143  1.0000 0.0383897821
C   C83       1.0  0.01166  0.30134  0.33742  1.0000 -0.1947148567
C   C84       1.0  0.17295  0.02625  0.51883  1.0000 0.0807783135
C   C85       1.0  0.91816  0.22564  0.29617  1.0000 0.250547491
C   C86       1.0  0.94661  0.25339  0.21708  1.0000 0.250547491
C   C87       1.0  0.78092  0.13828  0.28720  1.0000 -0.2206218516
C   C88       1.0  0.89802  0.63578  0.44621  1.0000 0.4398712541
C   C89       1.0  0.33421  0.53279  0.45937  1.0000 0.4398712541
C   C90       1.0  0.98249  0.35411  0.19879  1.0000 -0.2143973572
C   C91       1.0  0.82840  0.38300  0.49525  1.0000 0.0728663827
C   C92       1.0  0.74050  0.34250  0.41684  1.0000 0.0909267689
C   C93       1.0  0.88955  0.19705  0.13904  1.0000 -0.0910912365
C   C94       1.0  0.87735  0.49105  0.49399  1.0000 -0.160045748
C   C95       1.0  0.11902  0.91198  0.51640  1.0000 -0.0040710434
C   C96       1.0  0.53707  0.84593  0.50757  1.0000 0.0807783135
C   C97       1.0  0.97144  0.37636  0.15013  1.0000 -0.0989929301
C   C98       1.0  0.26342  0.11118  0.55810  1.0000 -0.1512661626
C   C99       1.0  0.33407  0.36133  0.52767  1.0000 -0.0169530076
C   C100      1.0  0.31454  0.21906  0.56100  1.0000 -0.1422687409
C   C101      1.0  0.13969  0.05531  0.48230  1.0000 -0.1295015116
C   C102      1.0  0.19218  0.16422  0.48520  1.0000 -0.1422687409
C   C103      1.0  0.29528  0.92172  0.38041  1.0000 -0.0595994549
C   C104      1.0  0.19027  0.78173  0.10258  1.0000 0.5424258883
C   C105      1.0  0.20368  0.83032  0.13842  1.0000 -0.0458101326
C   C106      1.0  0.28865  0.96595  0.12996  1.0000 -0.0989929301
C   C107      1.0  0.69177  0.37263  0.07203  1.0000 -0.1661224489
C   C108      1.0  0.17677  0.90223  0.31233  1.0000 -0.201313482
C   C109      1.0  0.45014  0.78646  0.08791  1.0000 -0.160045748
C   C110      1.0  0.12672  0.73628  0.17981  1.0000 -0.0910912365
C   C111      1.0  0.65440  0.39760  0.03408  1.0000 0.0212660345
C   C112      1.0  0.24677  0.27983  0.97531  1.0000 0.0807783135
C   C113      1.0  0.31425  0.90475  0.43274  1.0000 0.5466758187
C   C114      1.0  0.80591  0.43289  0.06806  1.0000 0.0807783135
C   C115      1.0  0.73207  0.48013  0.99304  1.0000 -0.1947148567
C   C116      1.0  0.52527  0.85553  0.04857  1.0000 0.0383897821
C   C117      1.0  0.30134  0.01166  0.16258  1.0000 -0.1947148567
C   C118      1.0  0.02625  0.17295  0.98117  1.0000 0.0807783135
C   C119      1.0  0.22564  0.91816  0.20383  1.0000 0.250547491
C   C120      1.0  0.25339  0.94661  0.28292  1.0000 0.250547491
C   C121      1.0  0.13828  0.78092  0.21280  1.0000 -0.2206218516
C   C122      1.0  0.63578  0.89802  0.05379  1.0000 0.4398712541
C   C123      1.0  0.53279  0.33421  0.04063  1.0000 0.4398712541
C   C124      1.0  0.35411  0.98249  0.30121  1.0000 -0.2143973572
C   C125      1.0  0.38300  0.82840  0.00475  1.0000 0.0728663827
C   C126      1.0  0.34250  0.74050  0.08316  1.0000 0.0909267689
C   C127      1.0  0.19705  0.88955  0.36096  1.0000 -0.0910912365
C   C128      1.0  0.49105  0.87735  0.00601  1.0000 -0.160045748
C   C129      1.0  0.91198  0.11902  0.98360  1.0000 -0.0050908118
C   C130      1.0  0.84593  0.53707  0.99243  1.0000 0.0807783135
C   C131      1.0  0.37636  0.97144  0.34987  1.0000 -0.0989929301
C   C132      1.0  0.11118  0.26342  0.94190  1.0000 -0.1512661626
C   C133      1.0  0.36133  0.33407  0.97233  1.0000 -0.0169530076
C   C134      1.0  0.21906  0.31454  0.93900  1.0000 -0.1422687409
C   C135      1.0  0.05531  0.13969  0.01770  1.0000 -0.1295015116
C   C136      1.0  0.16422  0.19218  0.01480  1.0000 -0.1422687409
N   N1        1.0  0.48441  0.11579  0.52935  1.0000 -0.23022263
N   N2        1.0  0.64351  0.50429  0.50273  1.0000 -0.2565508013
N   N3        1.0  0.24037  0.69183  0.54264  1.0000 -0.23022263
N   N4        1.0  0.01142  0.27418  0.51683  1.0000 -0.247210068
N   N5        1.0  0.69731  0.61309  0.50783  1.0000 -0.1231137936
N   N6        1.0  0.96817  0.17023  0.51931  1.0000 -0.0989929301
N   N7        1.0  0.11579  0.48441  0.97065  1.0000 -0.23022263
N   N8        1.0  0.50429  0.64351  0.99727  1.0000 -0.2565508013
N   N9        1.0  0.69183  0.24037  0.95736  1.0000 -0.23022263
N   N10       1.0  0.27418  0.01142  0.98317  1.0000 -0.247210068
N   N11       1.0  0.61309  0.69731  0.99217  1.0000 -0.1231137936
N   N12       1.0  0.17023  0.96817  0.98069  1.0000 -0.0989929301
N   N13       1.0  0.51559  0.88421  0.47065  1.0000 -0.23022263
N   N14       1.0  0.35649  0.49571  0.49727  1.0000 -0.2565508013
N   N15       1.0  0.75963  0.30817  0.45736  1.0000 -0.23022263
N   N16       1.0  0.98858  0.72582  0.48317  1.0000 -0.247210068
N   N17       1.0  0.30269  0.38691  0.49217  1.0000 -0.1231137936
N   N18       1.0  0.03183  0.82977  0.48069  1.0000 -0.0989929301
N   N19       1.0  0.88421  0.51559  0.02935  1.0000 -0.23022263
N   N20       1.0  0.49571  0.35649  0.00273  1.0000 -0.2565508013
N   N21       1.0  0.30817  0.75963  0.04264  1.0000 -0.23022263
N   N22       1.0  0.72582  0.98858  0.01683  1.0000 -0.247210068
N   N23       1.0  0.38691  0.30269  0.00783  1.0000 -0.1231137936
N   N24       1.0  0.82977  0.03183  0.01931  1.0000 -0.0989929301
O   O1        1.0  0.15269  0.76991  0.95865  1.0000 -0.5422811334
O   O2        1.0  0.32914  0.86846  0.61362  1.0000 -0.5511718815
O   O3        1.0  0.14821  0.76539  0.56145  1.0000 -0.5695836966
O   O4        1.0  0.05033  0.58427  0.95070  1.0000 -0.5880694215
O   O5        1.0  0.73213  0.52547  0.57851  1.0000 -0.4409145018
O   O6        1.0  0.14637  0.35783  0.58903  1.0000 -0.4526995992
O   O7        1.0  0.03723  0.76717  0.73426  1.0000 -0.23022263
O   O8        1.0  0.76991  0.15269  0.54135  1.0000 -0.5422811334
O   O9        1.0  0.86846  0.32914  0.88638  1.0000 -0.5511718815
O   O10       1.0  0.76539  0.14821  0.93855  1.0000 -0.5695836966
O   O11       1.0  0.58427  0.05033  0.54930  1.0000 -0.5880694215
O   O12       1.0  0.52547  0.73213  0.92149  1.0000 -0.4409145018
O   O13       1.0  0.35783  0.14637  0.91097  1.0000 -0.4526995992
O   O14       1.0  0.76717  0.03723  0.76574  1.0000 -0.23022263
O   O15       1.0  0.84731  0.23009  0.04135  1.0000 -0.5422811334
O   O16       1.0  0.67086  0.13154  0.38638  1.0000 -0.5511718815
O   O17       1.0  0.85179  0.23461  0.43855  1.0000 -0.5695836966
O   O18       1.0  0.94967  0.41573  0.04930  1.0000 -0.5880694215
O   O19       1.0  0.26787  0.47453  0.42149  1.0000 -0.4409145018
O   O20       1.0  0.85363  0.64217  0.41097  1.0000 -0.4526995992
O   O21       1.0  0.96277  0.23283  0.26574  1.0000 -0.23022263
O   O22       1.0  0.23009  0.84731  0.45865  1.0000 -0.5422811334
O   O23       1.0  0.13154  0.67086  0.11362  1.0000 -0.5511718815
O   O24       1.0  0.23461  0.85179  0.06145  1.0000 -0.5695836966
O   O25       1.0  0.41573  0.94967  0.45070  1.0000 -0.5880694215
O   O26       1.0  0.47453  0.26787  0.07851  1.0000 -0.4409145018
O   O27       1.0  0.64217  0.85363  0.08903  1.0000 -0.4526995992
O   O28       1.0  0.23283  0.96277  0.23426  1.0000 -0.23022263
