# DDEC6 charges by PACMAN v1.1 (https://github.com/mtap-research/PACMAN-charge/)
data_2019[Zn][sql]2[FSR]5
_chemical_formula_sum              "Zn2 H40 C32 N4 O8"
_cell_length_a       6.1221
_cell_length_b       12.085
_cell_length_c       12.964
_cell_angle_alpha    79.287
_cell_angle_beta     81.804
_cell_angle_gamma    82.633

_symmetry_space_group_name_H-M    "P 1"
_symmetry_Int_Tables_number       1

loop_
  _symmetry_equiv_pos_as_xyz
  'x, y, z'

loop_
  _atom_site_type_symbol
  _atom_site_label
  _atom_site_symmetry_multiplicity
  _atom_site_fract_x
  _atom_site_fract_y
  _atom_site_fract_z
  _atom_site_occupancy
  _atom_site_charge
Zn  Zn1       1.0  0.99229  0.04850  0.59699  1.0000 0.8329667962
Zn  Zn2       1.0  0.00771  0.95150  0.40301  1.0000 0.8329667962
H   H1        1.0  0.80550  0.25850  0.67990  1.0000 0.1084788098
H   H2        1.0  0.91110  0.39020  0.76840  1.0000 0.1304871605
H   H3        1.0  0.47100  0.18350  0.81790  1.0000 0.1304871605
H   H4        1.0  0.35540  0.05790  0.72920  1.0000 0.1304871605
H   H5        1.0  0.38770  0.34920  0.90510  1.0000 0.1084788098
H   H6        1.0  0.37090  0.44000  0.79890  1.0000 0.1190869874
H   H7        1.0  0.12140  0.35420  0.05200  1.0000 0.1010872868
H   H8        1.0  0.95170  0.31720  0.98450  1.0000 0.1010872868
H   H9        1.0  0.24530  0.60080  0.87540  1.0000 0.1084788098
H   H10       1.0  0.29840  0.52470  0.98590  1.0000 0.089976286
H   H11       1.0  0.65230  0.31340  0.33710  1.0000 0.1010872868
H   H12       1.0  0.35690  0.28020  0.52900  1.0000 0.1010872868
H   H13       1.0  0.54890  0.36320  0.50140  1.0000 0.089976286
H   H14       1.0  0.19120  0.46710  0.48200  1.0000 0.089976286
H   H15       1.0  0.35140  0.48360  0.37230  1.0000 0.089976286
H   H16       1.0  0.99650  0.44370  0.34410  1.0000 0.0806555516
H   H17       1.0  0.02170  0.32670  0.42510  1.0000 0.1084788098
H   H18       1.0  0.29180  0.37840  0.22640  1.0000 0.0806555516
H   H19       1.0  0.10830  0.29090  0.25080  1.0000 0.1010872868
H   H20       1.0  0.49220  0.20330  0.25360  1.0000 0.1010872868
H   H21       1.0  0.19450  0.74150  0.32010  1.0000 0.1084788098
H   H22       1.0  0.08890  0.60980  0.23160  1.0000 0.1304871605
H   H23       1.0  0.52900  0.81650  0.18210  1.0000 0.1304871605
H   H24       1.0  0.64460  0.94210  0.27080  1.0000 0.1304871605
H   H25       1.0  0.61230  0.65080  0.09490  1.0000 0.1084788098
H   H26       1.0  0.62910  0.56000  0.20110  1.0000 0.1190869874
H   H27       1.0  0.87860  0.64580  0.94800  1.0000 0.1010872868
H   H28       1.0  0.04830  0.68280  0.01550  1.0000 0.1010872868
H   H29       1.0  0.75470  0.39920  0.12460  1.0000 0.1084788098
H   H30       1.0  0.70160  0.47530  0.01410  1.0000 0.089976286
H   H31       1.0  0.34770  0.68660  0.66290  1.0000 0.1010872868
H   H32       1.0  0.64310  0.71980  0.47100  1.0000 0.1010872868
H   H33       1.0  0.45110  0.63680  0.49860  1.0000 0.089976286
H   H34       1.0  0.80880  0.53290  0.51800  1.0000 0.089976286
H   H35       1.0  0.64860  0.51640  0.62770  1.0000 0.089976286
H   H36       1.0  0.00350  0.55630  0.65590  1.0000 0.0806555516
H   H37       1.0  0.97830  0.67330  0.57490  1.0000 0.1084788098
H   H38       1.0  0.70820  0.62160  0.77360  1.0000 0.0806555516
H   H39       1.0  0.89170  0.70910  0.74920  1.0000 0.1010872868
H   H40       1.0  0.50780  0.79670  0.74640  1.0000 0.1010872868
C   C1        1.0  0.94340  0.24350  0.70800  1.0000 0.0806555516
C   C2        1.0  0.00490  0.32250  0.76060  1.0000 -0.2107603633
C   C3        1.0  0.20620  0.30050  0.80180  1.0000 0.1436998388
C   C4        1.0  0.33350  0.20090  0.78950  1.0000 -0.1965467342
C   C5        1.0  0.26420  0.12640  0.73680  1.0000 0.089976286
C   C6        1.0  0.28600  0.38810  0.85370  1.0000 -0.1965467342
C   C7        1.0  0.00650  0.38300  0.00430  1.0000 -0.1297105057
C   C8        1.0  0.18090  0.55120  0.93920  1.0000 -0.1469406867
C   C9        1.0  0.70810  0.16090  0.43260  1.0000 0.6038665092
C   C10       1.0  0.55440  0.26190  0.38690  1.0000 -0.1361747616
C   C11       1.0  0.43660  0.33110  0.47100  1.0000 -0.1806995878
C   C12       1.0  0.27060  0.42790  0.42480  1.0000 -0.1806995878
C   C13       1.0  0.10450  0.38110  0.37200  1.0000 -0.1719108903
C   C14       1.0  0.22050  0.32200  0.28210  1.0000 -0.1930230939
C   C15       1.0  0.39930  0.22440  0.31830  1.0000 -0.1297105057
C   C16       1.0  0.28190  0.12270  0.37390  1.0000 0.6098243511
C   C17       1.0  0.05660  0.75650  0.29200  1.0000 0.0806555516
C   C18       1.0  0.99510  0.67750  0.23940  1.0000 -0.2107603633
C   C19       1.0  0.79380  0.69950  0.19820  1.0000 0.1436998388
C   C20       1.0  0.66650  0.79910  0.21050  1.0000 -0.1965467342
C   C21       1.0  0.73580  0.87360  0.26320  1.0000 0.089976286
C   C22       1.0  0.71400  0.61190  0.14630  1.0000 -0.1965467342
C   C23       1.0  0.99350  0.61700  0.99570  1.0000 -0.1297105057
C   C24       1.0  0.81910  0.44880  0.06080  1.0000 -0.1469406867
C   C25       1.0  0.29190  0.83910  0.56740  1.0000 0.6038665092
C   C26       1.0  0.44560  0.73810  0.61310  1.0000 -0.1361747616
C   C27       1.0  0.56340  0.66890  0.52900  1.0000 -0.1806995878
C   C28       1.0  0.72940  0.57210  0.57520  1.0000 -0.1806995878
C   C29       1.0  0.89550  0.61890  0.62800  1.0000 -0.1719108903
C   C30       1.0  0.77950  0.67800  0.71790  1.0000 -0.1930230939
C   C31       1.0  0.60070  0.77560  0.68170  1.0000 -0.1297105057
C   C32       1.0  0.71810  0.87730  0.62610  1.0000 0.6098243511
N   N1        1.0  0.06940  0.14730  0.69500  1.0000 -0.2155940318
N   N2        1.0  0.10500  0.45440  0.90820  1.0000 -0.1069783652
N   N3        1.0  0.93060  0.85270  0.30500  1.0000 -0.2155940318
N   N4        1.0  0.89500  0.54560  0.09180  1.0000 -0.1069783652
O   O1        1.0  0.75770  0.15770  0.52470  1.0000 -0.5621828122
O   O2        1.0  0.78220  0.08930  0.37270  1.0000 -0.5513487244
O   O3        1.0  0.22230  0.11350  0.47220  1.0000 -0.5621828122
O   O4        1.0  0.23840  0.05350  0.31820  1.0000 -0.5621828122
O   O5        1.0  0.24230  0.84230  0.47530  1.0000 -0.5621828122
O   O6        1.0  0.21780  0.91070  0.62730  1.0000 -0.5513487244
O   O7        1.0  0.77770  0.88650  0.52780  1.0000 -0.5621828122
O   O8        1.0  0.76160  0.94650  0.68180  1.0000 -0.5621828122
