# DDEC6 charges by PACMAN v1.1 (https://github.com/mtap-research/PACMAN-charge/)
data_2019[La][sql]2[FSR]2
_chemical_formula_sum              "La4 H36 C28 S4 O36"
_cell_length_a       8.3809
_cell_length_b       19.52
_cell_length_c       8.6735
_cell_angle_alpha    90
_cell_angle_beta     90.755
_cell_angle_gamma    90

_symmetry_space_group_name_H-M    "P 1"
_symmetry_Int_Tables_number       1

loop_
  _symmetry_equiv_pos_as_xyz
  'x, y, z'

loop_
  _atom_site_type_symbol
  _atom_site_label
  _atom_site_symmetry_multiplicity
  _atom_site_fract_x
  _atom_site_fract_y
  _atom_site_fract_z
  _atom_site_occupancy
  _atom_site_charge
La  La1       1.0  0.68907  0.48266  0.65163  1.0000 1.926364081
La  La2       1.0  0.81093  0.98266  0.34837  1.0000 1.926364081
La  La3       1.0  0.31093  0.51734  0.34837  1.0000 1.926364081
La  La4       1.0  0.18907  0.01734  0.65163  1.0000 1.926364081
H   H1        1.0  0.96900  0.45500  0.88600  1.0000 0.3845677841
H   H2        1.0  0.83700  0.45500  0.98100  1.0000 0.3613868523
H   H3        1.0  0.89000  0.60900  0.74500  1.0000 0.3613868523
H   H4        1.0  0.95500  0.59400  0.60200  1.0000 0.3887285162
H   H5        1.0  0.61420  0.56060  0.96960  1.0000 0.3709011916
H   H6        1.0  0.50930  0.57130  0.84860  1.0000 0.347066598
H   H7        1.0  0.44570  0.68200  0.69420  1.0000 0.1403800044
H   H8        1.0  0.51960  0.79190  0.63070  1.0000 0.1093239803
H   H9        1.0  0.77540  0.72220  0.27650  1.0000 0.1403800044
H   H10       1.0  0.53100  0.95500  0.11400  1.0000 0.3845677841
H   H11       1.0  0.66300  0.95500  0.01900  1.0000 0.3613868523
H   H12       1.0  0.61000  0.10900  0.25500  1.0000 0.3613868523
H   H13       1.0  0.54500  0.09400  0.39800  1.0000 0.3887285162
H   H14       1.0  0.88580  0.06060  0.03040  1.0000 0.3709011916
H   H15       1.0  0.99070  0.07130  0.15140  1.0000 0.347066598
H   H16       1.0  0.05430  0.18200  0.30580  1.0000 0.1403800044
H   H17       1.0  0.98040  0.29190  0.36930  1.0000 0.1093239803
H   H18       1.0  0.72460  0.22220  0.72350  1.0000 0.1403800044
H   H19       1.0  0.03100  0.54500  0.11400  1.0000 0.3845677841
H   H20       1.0  0.16300  0.54500  0.01900  1.0000 0.3613868523
H   H21       1.0  0.11000  0.39100  0.25500  1.0000 0.3613868523
H   H22       1.0  0.04500  0.40600  0.39800  1.0000 0.3887285162
H   H23       1.0  0.38580  0.43940  0.03040  1.0000 0.3709011916
H   H24       1.0  0.49070  0.42870  0.15140  1.0000 0.347066598
H   H25       1.0  0.55430  0.31800  0.30580  1.0000 0.1403800044
H   H26       1.0  0.48040  0.20810  0.36930  1.0000 0.1093239803
H   H27       1.0  0.22460  0.27780  0.72350  1.0000 0.1403800044
H   H28       1.0  0.46900  0.04500  0.88600  1.0000 0.3845677841
H   H29       1.0  0.33700  0.04500  0.98100  1.0000 0.3613868523
H   H30       1.0  0.39000  0.89100  0.74500  1.0000 0.3613868523
H   H31       1.0  0.45500  0.90600  0.60200  1.0000 0.3887285162
H   H32       1.0  0.11420  0.93940  0.96960  1.0000 0.3709011916
H   H33       1.0  0.00930  0.92870  0.84860  1.0000 0.347066598
H   H34       1.0  0.94570  0.81800  0.69420  1.0000 0.1403800044
H   H35       1.0  0.01960  0.70810  0.63070  1.0000 0.1093239803
H   H36       1.0  0.27540  0.77780  0.27650  1.0000 0.1403800044
C   C1        1.0  0.66260  0.64830  0.39620  1.0000 -0.2162521612
C   C2        1.0  0.55760  0.63540  0.51770  1.0000 0.3080937583
C   C3        1.0  0.50860  0.68980  0.60850  1.0000 -0.2107948493
C   C4        1.0  0.55420  0.75560  0.57040  1.0000 -0.0809195396
C   C5        1.0  0.65030  0.76920  0.44460  1.0000 -0.0348873842
C   C6        1.0  0.70750  0.71440  0.35860  1.0000 -0.0809195396
C   C7        1.0  0.69370  0.84130  0.40040  1.0000 0.556569742
C   C8        1.0  0.83740  0.14830  0.60380  1.0000 -0.2162521612
C   C9        1.0  0.94240  0.13540  0.48230  1.0000 0.3080937583
C   C10       1.0  0.99140  0.18980  0.39150  1.0000 -0.2107948493
C   C11       1.0  0.94580  0.25560  0.42960  1.0000 -0.0809195396
C   C12       1.0  0.84970  0.26920  0.55540  1.0000 -0.0348873842
C   C13       1.0  0.79250  0.21440  0.64140  1.0000 -0.0809195396
C   C14       1.0  0.80630  0.34130  0.59960  1.0000 0.556569742
C   C15       1.0  0.33740  0.35170  0.60380  1.0000 -0.2162521612
C   C16       1.0  0.44240  0.36460  0.48230  1.0000 0.3080937583
C   C17       1.0  0.49140  0.31020  0.39150  1.0000 -0.2107948493
C   C18       1.0  0.44580  0.24440  0.42960  1.0000 -0.0809195396
C   C19       1.0  0.34970  0.23080  0.55540  1.0000 -0.0348873842
C   C20       1.0  0.29250  0.28560  0.64140  1.0000 -0.0809195396
C   C21       1.0  0.30630  0.15870  0.59960  1.0000 0.556569742
C   C22       1.0  0.16260  0.85170  0.39620  1.0000 -0.2162521612
C   C23       1.0  0.05760  0.86460  0.51770  1.0000 0.3080937583
C   C24       1.0  0.00860  0.81020  0.60850  1.0000 -0.2107948493
C   C25       1.0  0.05420  0.74440  0.57040  1.0000 -0.0809195396
C   C26       1.0  0.15030  0.73080  0.44460  1.0000 -0.0348873842
C   C27       1.0  0.20750  0.78560  0.35860  1.0000 -0.0809195396
C   C28       1.0  0.19370  0.65870  0.40040  1.0000 0.556569742
S   S1        1.0  0.71786  0.57793  0.28411  1.0000 1.231367128
S   S2        1.0  0.78214  0.07793  0.71589  1.0000 1.231367128
S   S3        1.0  0.28214  0.42207  0.71589  1.0000 1.231367128
S   S4        1.0  0.21786  0.92207  0.28411  1.0000 1.231367128
O   O1        1.0  0.78610  0.52598  0.38650  1.0000 -0.6343436372
O   O2        1.0  0.86890  0.46640  0.88950  1.0000 -0.7464635503
O   O3        1.0  0.56930  0.55354  0.21100  1.0000 -0.6845135819
O   O4        1.0  0.89010  0.57870  0.67200  1.0000 -0.7311681937
O   O5        1.0  0.83070  0.60052  0.16970  1.0000 -0.5727041494
O   O6        1.0  0.60680  0.56467  0.87220  1.0000 -0.7219980192
O   O7        1.0  0.50530  0.57130  0.54240  1.0000 -0.7219980192
O   O8        1.0  0.64240  0.89074  0.48240  1.0000 -0.6131455283
O   O9        1.0  0.78190  0.85173  0.28730  1.0000 -0.5764083397
O   O10       1.0  0.71390  0.02598  0.61350  1.0000 -0.6343436372
O   O11       1.0  0.63110  0.96640  0.11050  1.0000 -0.7464635503
O   O12       1.0  0.93070  0.05354  0.78900  1.0000 -0.6845135819
O   O13       1.0  0.60990  0.07870  0.32800  1.0000 -0.7311681937
O   O14       1.0  0.66930  0.10052  0.83030  1.0000 -0.5727041494
O   O15       1.0  0.89320  0.06467  0.12780  1.0000 -0.7219980192
O   O16       1.0  0.99470  0.07130  0.45760  1.0000 -0.7219980192
O   O17       1.0  0.85760  0.39074  0.51760  1.0000 -0.6131455283
O   O18       1.0  0.71810  0.35173  0.71270  1.0000 -0.5764083397
O   O19       1.0  0.21390  0.47402  0.61350  1.0000 -0.6343436372
O   O20       1.0  0.13110  0.53360  0.11050  1.0000 -0.7464635503
O   O21       1.0  0.43070  0.44646  0.78900  1.0000 -0.6845135819
O   O22       1.0  0.10990  0.42130  0.32800  1.0000 -0.7311681937
O   O23       1.0  0.16930  0.39948  0.83030  1.0000 -0.5727041494
O   O24       1.0  0.39320  0.43533  0.12780  1.0000 -0.7219980192
O   O25       1.0  0.49470  0.42870  0.45760  1.0000 -0.7219980192
O   O26       1.0  0.35760  0.10926  0.51760  1.0000 -0.6131455283
O   O27       1.0  0.21810  0.14827  0.71270  1.0000 -0.5764083397
O   O28       1.0  0.28610  0.97402  0.38650  1.0000 -0.6343436372
O   O29       1.0  0.36890  0.03360  0.88950  1.0000 -0.7464635503
O   O30       1.0  0.06930  0.94646  0.21100  1.0000 -0.6845135819
O   O31       1.0  0.39010  0.92130  0.67200  1.0000 -0.7311681937
O   O32       1.0  0.33070  0.89948  0.16970  1.0000 -0.5727041494
O   O33       1.0  0.10680  0.93533  0.87220  1.0000 -0.7219980192
O   O34       1.0  0.00530  0.92870  0.54240  1.0000 -0.7219980192
O   O35       1.0  0.14240  0.60926  0.48240  1.0000 -0.6131455283
O   O36       1.0  0.28190  0.64827  0.28730  1.0000 -0.5764083397
