# DDEC6 charges by PACMAN v1.1 (https://github.com/mtap-research/PACMAN-charge/)
data_2019[Cu][nan]2[FSR]2
_chemical_formula_sum              "Cu8 H48 C64 N24"
_cell_length_a       5.7189
_cell_length_b       20.3635
_cell_length_c       15.3915
_cell_angle_alpha    90
_cell_angle_beta     94.098
_cell_angle_gamma    90

_symmetry_space_group_name_H-M    "P 1"
_symmetry_Int_Tables_number       1

loop_
  _symmetry_equiv_pos_as_xyz
  'x, y, z'

loop_
  _atom_site_type_symbol
  _atom_site_label
  _atom_site_symmetry_multiplicity
  _atom_site_fract_x
  _atom_site_fract_y
  _atom_site_fract_z
  _atom_site_occupancy
  _atom_site_charge
Cu  Cu1       1.0  0.28775  0.95660  0.03799  1.0000 0.2055453207
Cu  Cu2       1.0  0.80788  0.91933  0.10060  1.0000 0.2000394608
Cu  Cu3       1.0  0.28775  0.54340  0.53799  1.0000 0.2000394608
Cu  Cu4       1.0  0.80788  0.58067  0.60060  1.0000 0.2000394608
Cu  Cu5       1.0  0.71225  0.45660  0.46201  1.0000 0.2000394608
Cu  Cu6       1.0  0.19212  0.41933  0.39940  1.0000 0.2000394608
Cu  Cu7       1.0  0.71225  0.04340  0.96201  1.0000 0.2000394608
Cu  Cu8       1.0  0.19212  0.08067  0.89940  1.0000 0.1945489492
H   H1        1.0  0.85400  0.01890  0.26630  1.0000 0.1069116315
H   H2        1.0  0.21460  0.07660  0.17100  1.0000 0.1069116315
H   H3        1.0  0.82790  0.17640  0.48450  1.0000 0.1024447256
H   H4        1.0  0.85100  0.09870  0.37640  1.0000 0.1284150365
H   H5        1.0  0.19420  0.15110  0.28570  1.0000 0.1185587491
H   H6        1.0  0.19080  0.22510  0.39840  1.0000 0.090219067
H   H7        1.0  0.31270  0.84960  0.87890  1.0000 0.1069116315
H   H8        1.0  0.69310  0.79790  0.96750  1.0000 0.1024447256
H   H9        1.0  0.19990  0.68390  0.66667  1.0000 0.1024447256
H   H10       1.0  0.26790  0.76490  0.77070  1.0000 0.1284150365
H   H11       1.0  0.65900  0.71220  0.87230  1.0000 0.1284150365
H   H12       1.0  0.61310  0.63210  0.76600  1.0000 0.1024447256
H   H13       1.0  0.85400  0.48110  0.76630  1.0000 0.1069116315
H   H14       1.0  0.21460  0.42340  0.67100  1.0000 0.1069116315
H   H15       1.0  0.82790  0.32360  0.98450  1.0000 0.1024447256
H   H16       1.0  0.85100  0.40130  0.87640  1.0000 0.1284150365
H   H17       1.0  0.19420  0.34890  0.78570  1.0000 0.1185587491
H   H18       1.0  0.19080  0.27490  0.89840  1.0000 0.090219067
H   H19       1.0  0.31270  0.65040  0.37890  1.0000 0.1069116315
H   H20       1.0  0.69310  0.70210  0.46750  1.0000 0.1024447256
H   H21       1.0  0.19990  0.81610  0.16670  1.0000 0.1024447256
H   H22       1.0  0.26790  0.73510  0.27070  1.0000 0.1284150365
H   H23       1.0  0.65900  0.78780  0.37230  1.0000 0.1284150365
H   H24       1.0  0.61310  0.86790  0.26600  1.0000 0.1024447256
H   H25       1.0  0.14600  0.51890  0.23370  1.0000 0.1069116315
H   H26       1.0  0.78540  0.57660  0.32900  1.0000 0.1069116315
H   H27       1.0  0.17210  0.67640  0.01550  1.0000 0.1024447256
H   H28       1.0  0.14900  0.59870  0.12360  1.0000 0.1284150365
H   H29       1.0  0.80580  0.65110  0.21430  1.0000 0.1185587491
H   H30       1.0  0.80920  0.72510  0.10160  1.0000 0.090219067
H   H31       1.0  0.68730  0.34960  0.62110  1.0000 0.1069116315
H   H32       1.0  0.30690  0.29790  0.53250  1.0000 0.1024447256
H   H33       1.0  0.80010  0.18390  0.83330  1.0000 0.1024447256
H   H34       1.0  0.73210  0.26490  0.72930  1.0000 0.1284150365
H   H35       1.0  0.34100  0.21220  0.62770  1.0000 0.1284150365
H   H36       1.0  0.38690  0.13210  0.73400  1.0000 0.1024447256
H   H37       1.0  0.14600  0.98110  0.73370  1.0000 0.1069116315
H   H38       1.0  0.78540  0.92340  0.82900  1.0000 0.1069116315
H   H39       1.0  0.17210  0.82360  0.51550  1.0000 0.1024447256
H   H40       1.0  0.14900  0.90130  0.62360  1.0000 0.1284150365
H   H41       1.0  0.80580  0.84890  0.71430  1.0000 0.1185587491
H   H42       1.0  0.80920  0.77490  0.60160  1.0000 0.090219067
H   H43       1.0  0.68730  0.15040  0.12110  1.0000 0.1069116315
H   H44       1.0  0.30690  0.20210  0.03250  1.0000 0.1024447256
H   H45       1.0  0.80010  0.31610  0.33333  1.0000 0.1024447256
H   H46       1.0  0.73210  0.23510  0.22930  1.0000 0.1284150365
H   H47       1.0  0.34100  0.28780  0.12770  1.0000 0.1284150365
H   H48       1.0  0.38690  0.36790  0.23400  1.0000 0.1024447256
C   C1        1.0  0.71170  0.02299  0.23097  1.0000 -0.0621348913
C   C2        1.0  0.53120  0.06692  0.24658  1.0000 -0.0621348913
C   C3        1.0  0.36140  0.05477  0.17876  1.0000 -0.0508457631
C   C4        1.0  0.69640  0.17076  0.44389  1.0000 0.0689220076
C   C5        1.0  0.71270  0.12423  0.37887  1.0000 -0.2094412257
C   C6        1.0  0.52410  0.11507  0.31689  1.0000 0.1284150365
C   C7        1.0  0.32730  0.15479  0.32600  1.0000 -0.2094412257
C   C8        1.0  0.32750  0.19917  0.39361  1.0000 0.0637437623
C   C9        1.0  0.17610  0.84837  0.91054  1.0000 -0.0508457631
C   C10       1.0  0.99570  0.80225  0.89810  1.0000 -0.0691363965
C   C11       1.0  0.83620  0.81998  0.95928  1.0000 -0.0691363965
C   C12       1.0  0.08880  0.68989  0.70900  1.0000 0.0689220076
C   C13       1.0  0.13050  0.73874  0.77092  1.0000 -0.2094412257
C   C14       1.0  0.96940  0.74935  0.83386  1.0000 0.1284150365
C   C15       1.0  0.77300  0.70762  0.83078  1.0000 -0.2094412257
C   C16       1.0  0.74690  0.65982  0.76668  1.0000 0.0689220076
C   C17       1.0  0.71170  0.47701  0.73097  1.0000 -0.0621348913
C   C18       1.0  0.53120  0.43308  0.74658  1.0000 -0.0621348913
C   C19       1.0  0.36140  0.44523  0.67876  1.0000 -0.0508457631
C   C20       1.0  0.69640  0.32924  0.94389  1.0000 0.0689220076
C   C21       1.0  0.71270  0.37577  0.87887  1.0000 -0.2094412257
C   C22       1.0  0.52410  0.38493  0.81689  1.0000 0.1284150365
C   C23       1.0  0.32730  0.34521  0.82600  1.0000 -0.2094412257
C   C24       1.0  0.32750  0.30083  0.89361  1.0000 0.0637437623
C   C25       1.0  0.17610  0.65163  0.41054  1.0000 -0.0508457631
C   C26       1.0  0.99570  0.69775  0.39810  1.0000 -0.0691363965
C   C27       1.0  0.83620  0.68002  0.45928  1.0000 -0.0691363965
C   C28       1.0  0.08880  0.81011  0.20900  1.0000 0.0689220076
C   C29       1.0  0.13050  0.76126  0.27092  1.0000 -0.2094412257
C   C30       1.0  0.96940  0.75065  0.33386  1.0000 0.1284150365
C   C31       1.0  0.77300  0.79238  0.33078  1.0000 -0.2094412257
C   C32       1.0  0.74690  0.84018  0.26668  1.0000 0.0689220076
C   C33       1.0  0.28830  0.52299  0.26903  1.0000 -0.0621348913
C   C34       1.0  0.46880  0.56692  0.25342  1.0000 -0.0621348913
C   C35       1.0  0.63860  0.55477  0.32124  1.0000 -0.0508457631
C   C36       1.0  0.30360  0.67076  0.05611  1.0000 0.0689220076
C   C37       1.0  0.28730  0.62423  0.12113  1.0000 -0.2094412257
C   C38       1.0  0.47590  0.61507  0.18311  1.0000 0.1284150365
C   C39       1.0  0.67270  0.65479  0.17400  1.0000 -0.2094412257
C   C40       1.0  0.67250  0.69917  0.10639  1.0000 0.0637437623
C   C41       1.0  0.82390  0.34837  0.58946  1.0000 -0.0508457631
C   C42       1.0  0.00430  0.30225  0.60190  1.0000 -0.0691363965
C   C43       1.0  0.16380  0.31998  0.54072  1.0000 -0.0691363965
C   C44       1.0  0.91120  0.18989  0.79100  1.0000 0.0689220076
C   C45       1.0  0.86950  0.23874  0.72908  1.0000 -0.2094412257
C   C46       1.0  0.03060  0.24935  0.66614  1.0000 0.1284150365
C   C47       1.0  0.22700  0.20762  0.66922  1.0000 -0.2094412257
C   C48       1.0  0.25310  0.15982  0.73332  1.0000 0.0689220076
C   C49       1.0  0.28830  0.97701  0.76903  1.0000 -0.0621348913
C   C50       1.0  0.46880  0.93308  0.75342  1.0000 -0.0621348913
C   C51       1.0  0.63860  0.94523  0.82124  1.0000 -0.0508457631
C   C52       1.0  0.30360  0.82924  0.55611  1.0000 0.0689220076
C   C53       1.0  0.28730  0.87577  0.62113  1.0000 -0.2094412257
C   C54       1.0  0.47590  0.88493  0.68311  1.0000 0.1284150365
C   C55       1.0  0.67270  0.84521  0.67400  1.0000 -0.2094412257
C   C56       1.0  0.67250  0.80083  0.60639  1.0000 0.0637437623
C   C57       1.0  0.82390  0.15163  0.08946  1.0000 -0.0508457631
C   C58       1.0  0.00430  0.19775  0.10190  1.0000 -0.0691363965
C   C59       1.0  0.16380  0.18002  0.04072  1.0000 -0.0691363965
C   C60       1.0  0.91120  0.31011  0.29100  1.0000 0.0689220076
C   C61       1.0  0.86950  0.26126  0.22908  1.0000 -0.2094412257
C   C62       1.0  0.03060  0.25065  0.16614  1.0000 0.1284150365
C   C63       1.0  0.22700  0.29238  0.16922  1.0000 -0.2094412257
C   C64       1.0  0.25310  0.34018  0.23332  1.0000 0.0689220076
N   N1        1.0  0.43550  0.00787  0.12627  1.0000 -0.1488948245
N   N2        1.0  0.65540  0.98757  0.15911  1.0000 -0.1488948245
N   N3        1.0  0.50760  0.20829  0.45321  1.0000 -0.2598655899
N   N4        1.0  0.91560  0.87253  0.00428  1.0000 -0.1414319355
N   N5        1.0  0.12790  0.89060  0.97370  1.0000 -0.1414319355
N   N6        1.0  0.89950  0.65042  0.70553  1.0000 -0.2094412257
N   N7        1.0  0.43550  0.49213  0.62627  1.0000 -0.1488948245
N   N8        1.0  0.65540  0.51243  0.65911  1.0000 -0.1488948245
N   N9        1.0  0.50760  0.29171  0.95321  1.0000 -0.2598655899
N   N10       1.0  0.91560  0.62747  0.50428  1.0000 -0.1414319355
N   N11       1.0  0.12790  0.60940  0.47370  1.0000 -0.1414319355
N   N12       1.0  0.89950  0.84958  0.20553  1.0000 -0.2094412257
N   N13       1.0  0.56450  0.50787  0.37373  1.0000 -0.1488948245
N   N14       1.0  0.34460  0.48757  0.34089  1.0000 -0.1488948245
N   N15       1.0  0.49240  0.70829  0.04679  1.0000 -0.2598655899
N   N16       1.0  0.08440  0.37253  0.49572  1.0000 -0.1414319355
N   N17       1.0  0.87210  0.39060  0.52630  1.0000 -0.1414319355
N   N18       1.0  0.10050  0.15042  0.79447  1.0000 -0.2094412257
N   N19       1.0  0.56450  0.99213  0.87373  1.0000 -0.1488948245
N   N20       1.0  0.34460  0.01243  0.84089  1.0000 -0.1488948245
N   N21       1.0  0.49240  0.79171  0.54679  1.0000 -0.2598655899
N   N22       1.0  0.08440  0.12747  0.99572  1.0000 -0.1414319355
N   N23       1.0  0.87210  0.10940  0.02630  1.0000 -0.1414319355
N   N24       1.0  0.10050  0.34958  0.29447  1.0000 -0.2094412257
