# DDEC6 charges by PACMAN v1.1 (https://github.com/mtap-research/PACMAN-charge/)
data_2019[Ni][dia]3[FSR]4
_chemical_formula_sum              "Ni4 H96 C144 N8 O16"
_cell_length_a       16.9233
_cell_length_b       16.9233
_cell_length_c       16.9233
_cell_angle_alpha    107.755
_cell_angle_beta     107.755
_cell_angle_gamma    112.96

_symmetry_space_group_name_H-M    "P 1"
_symmetry_Int_Tables_number       1

loop_
  _symmetry_equiv_pos_as_xyz
  'x, y, z'

loop_
  _atom_site_type_symbol
  _atom_site_label
  _atom_site_symmetry_multiplicity
  _atom_site_fract_x
  _atom_site_fract_y
  _atom_site_fract_z
  _atom_site_occupancy
  _atom_site_charge
Ni  Ni1       1.0  0.89068  0.39068  0.50000  1.0000 0.6872205639
Ni  Ni2       1.0  0.14068  0.14068  0.00000  1.0000 0.6872205639
Ni  Ni3       1.0  0.64068  0.64068  0.00000  1.0000 0.6848696971
Ni  Ni4       1.0  0.39068  0.89068  0.50000  1.0000 0.6872205639
H   H1        1.0  0.06300  0.85770  0.01290  1.0000 0.1199275818
H   H2        1.0  0.02430  0.75980  0.08130  1.0000 0.1116963099
H   H3        1.0  0.16190  0.99870  0.33500  1.0000 0.1116963099
H   H4        1.0  0.20830  0.09870  0.26820  1.0000 0.1199275818
H   H5        1.0  0.92460  0.69320  0.13620  1.0000 0.1116963099
H   H6        1.0  0.87010  0.58980  0.19450  1.0000 0.1116963099
H   H7        1.0  0.11350  0.78820  0.45090  1.0000 0.1116963099
H   H8        1.0  0.16730  0.89190  0.39040  1.0000 0.1116963099
H   H9        1.0  0.01200  0.71460  0.50420  1.0000 0.1266932914
H   H10       1.0  0.96390  0.60700  0.56190  1.0000 0.1116963099
H   H11       1.0  0.83840  0.38090  0.31270  1.0000 0.1116963099
H   H12       1.0  0.87860  0.48170  0.24610  1.0000 0.1266932914
H   H13       1.0  0.84480  0.05010  0.98710  1.0000 0.1199275818
H   H14       1.0  0.67850  0.94300  0.91870  1.0000 0.1116963099
H   H15       1.0  0.66370  0.82690  0.66500  1.0000 0.1116963099
H   H16       1.0  0.83050  0.94010  0.73180  1.0000 0.1199275818
H   H17       1.0  0.55700  0.78840  0.86380  1.0000 0.1116963099
H   H18       1.0  0.39530  0.67560  0.80550  1.0000 0.1116963099
H   H19       1.0  0.33730  0.66260  0.54910  1.0000 0.1116963099
H   H20       1.0  0.50150  0.77690  0.60960  1.0000 0.1116963099
H   H21       1.0  0.21040  0.50780  0.49580  1.0000 0.1266932914
H   H22       1.0  0.04510  0.40200  0.43810  1.0000 0.1116963099
H   H23       1.0  0.06820  0.52570  0.68730  1.0000 0.1116963099
H   H24       1.0  0.23560  0.63250  0.75390  1.0000 0.1266932914
H   H25       1.0  0.60770  0.31300  0.51290  1.0000 0.1199275818
H   H26       1.0  0.50980  0.27430  0.58130  1.0000 0.1116963099
H   H27       1.0  0.74870  0.41190  0.83500  1.0000 0.1116963099
H   H28       1.0  0.84870  0.45830  0.76820  1.0000 0.1199275818
H   H29       1.0  0.44320  0.17460  0.63620  1.0000 0.1116963099
H   H30       1.0  0.33980  0.12010  0.69450  1.0000 0.1116963099
H   H31       1.0  0.53820  0.36350  0.95090  1.0000 0.1116963099
H   H32       1.0  0.64190  0.41730  0.89040  1.0000 0.1116963099
H   H33       1.0  0.46460  0.26200  0.00420  1.0000 0.1266932914
H   H34       1.0  0.35700  0.21390  0.06190  1.0000 0.1116963099
H   H35       1.0  0.13090  0.08840  0.81270  1.0000 0.1116963099
H   H36       1.0  0.23170  0.12860  0.74610  1.0000 0.1266932914
H   H37       1.0  0.80010  0.09480  0.48710  1.0000 0.1199275818
H   H38       1.0  0.69300  0.92850  0.41870  1.0000 0.1116963099
H   H39       1.0  0.57690  0.91370  0.16500  1.0000 0.1116963099
H   H40       1.0  0.69010  0.08050  0.23180  1.0000 0.1199275818
H   H41       1.0  0.53840  0.80700  0.36380  1.0000 0.1116963099
H   H42       1.0  0.42560  0.64530  0.30550  1.0000 0.1116963099
H   H43       1.0  0.41260  0.58730  0.04910  1.0000 0.1116963099
H   H44       1.0  0.52690  0.75150  0.10960  1.0000 0.1116963099
H   H45       1.0  0.25780  0.46040  0.99580  1.0000 0.1266932914
H   H46       1.0  0.15200  0.29510  0.93810  1.0000 0.1116963099
H   H47       1.0  0.27570  0.31820  0.18730  1.0000 0.1116963099
H   H48       1.0  0.38250  0.48560  0.25390  1.0000 0.1266932914
H   H49       1.0  0.10770  0.59480  0.29470  1.0000 0.1199275818
H   H50       1.0  0.00980  0.42850  0.23550  1.0000 0.1116963099
H   H51       1.0  0.24870  0.41370  0.33680  1.0000 0.1116963099
H   H52       1.0  0.34870  0.58050  0.39040  1.0000 0.1199275818
H   H53       1.0  0.94320  0.30700  0.26860  1.0000 0.1116963099
H   H54       1.0  0.83980  0.14530  0.21970  1.0000 0.1116963099
H   H55       1.0  0.03820  0.08730  0.17470  1.0000 0.1116963099
H   H56       1.0  0.14190  0.25150  0.22460  1.0000 0.1116963099
H   H57       1.0  0.96460  0.96040  0.20260  1.0000 0.1266932914
H   H58       1.0  0.85700  0.79510  0.14310  1.0000 0.1116963099
H   H59       1.0  0.63090  0.81820  0.04250  1.0000 0.1116963099
H   H60       1.0  0.73170  0.98560  0.10310  1.0000 0.1266932914
H   H61       1.0  0.30010  0.81300  0.70530  1.0000 0.1199275818
H   H62       1.0  0.19300  0.77430  0.76450  1.0000 0.1116963099
H   H63       1.0  0.07690  0.91190  0.66320  1.0000 0.1116963099
H   H64       1.0  0.19010  0.95830  0.60960  1.0000 0.1199275818
H   H65       1.0  0.03840  0.67460  0.73140  1.0000 0.1116963099
H   H66       1.0  0.92560  0.62010  0.78030  1.0000 0.1116963099
H   H67       1.0  0.91260  0.86350  0.82530  1.0000 0.1116963099
H   H68       1.0  0.02690  0.91730  0.77540  1.0000 0.1116963099
H   H69       1.0  0.75780  0.76200  0.79740  1.0000 0.1266932914
H   H70       1.0  0.65200  0.71390  0.85690  1.0000 0.1116963099
H   H71       1.0  0.77570  0.58840  0.95750  1.0000 0.1116963099
H   H72       1.0  0.88250  0.62860  0.89690  1.0000 0.1266932914
H   H73       1.0  0.56300  0.55010  0.20530  1.0000 0.1199275818
H   H74       1.0  0.52430  0.44300  0.26450  1.0000 0.1116963099
H   H75       1.0  0.66190  0.32690  0.16320  1.0000 0.1116963099
H   H76       1.0  0.70830  0.44010  0.10960  1.0000 0.1199275818
H   H77       1.0  0.42460  0.28840  0.23140  1.0000 0.1116963099
H   H78       1.0  0.37010  0.17560  0.28030  1.0000 0.1116963099
H   H79       1.0  0.61350  0.16260  0.32530  1.0000 0.1116963099
H   H80       1.0  0.66730  0.27690  0.27540  1.0000 0.1116963099
H   H81       1.0  0.51200  0.00780  0.29740  1.0000 0.1266932914
H   H82       1.0  0.46390  0.90200  0.35690  1.0000 0.1116963099
H   H83       1.0  0.33840  0.02570  0.45750  1.0000 0.1116963099
H   H84       1.0  0.37860  0.13250  0.39690  1.0000 0.1266932914
H   H85       1.0  0.34480  0.35770  0.79470  1.0000 0.1199275818
H   H86       1.0  0.17850  0.25980  0.73550  1.0000 0.1116963099
H   H87       1.0  0.16370  0.49870  0.83680  1.0000 0.1116963099
H   H88       1.0  0.33050  0.59870  0.89040  1.0000 0.1199275818
H   H89       1.0  0.05700  0.19320  0.76860  1.0000 0.1116963099
H   H90       1.0  0.89530  0.08980  0.71970  1.0000 0.1116963099
H   H91       1.0  0.83730  0.28820  0.67470  1.0000 0.1116963099
H   H92       1.0  0.00150  0.39190  0.72460  1.0000 0.1116963099
H   H93       1.0  0.71040  0.21460  0.70260  1.0000 0.1266932914
H   H94       1.0  0.54510  0.10700  0.64310  1.0000 0.1116963099
H   H95       1.0  0.56820  0.88090  0.54250  1.0000 0.1116963099
H   H96       1.0  0.73560  0.98170  0.60310  1.0000 0.1266932914
C   C1        1.0  0.15350  0.04790  0.08380  1.0000 0.5345053652
C   C2        1.0  0.13770  0.98840  0.13290  1.0000 -0.025042521
C   C3        1.0  0.08370  0.88670  0.07880  1.0000 -0.0953536911
C   C4        1.0  0.05980  0.82900  0.11980  1.0000 -0.1519799532
C   C5        1.0  0.08620  0.86850  0.21510  1.0000 0.0735074196
C   C6        1.0  0.14190  0.96970  0.26920  1.0000 -0.1615389234
C   C7        1.0  0.16870  0.02950  0.22920  1.0000 -0.116978456
C   C8        1.0  0.05260  0.80340  0.25560  1.0000 0.0619138151
C   C9        1.0  0.96400  0.71280  0.20060  1.0000 -0.1391634515
C   C10       1.0  0.93080  0.65100  0.23480  1.0000 -0.1267957931
C   C11       1.0  0.98660  0.67790  0.33030  1.0000 0.0619138151
C   C12       1.0  0.07470  0.76830  0.38640  1.0000 -0.1127574613
C   C13       1.0  0.10730  0.83020  0.35030  1.0000 -0.116978456
C   C14       1.0  0.95310  0.61100  0.36950  1.0000 0.1199275818
C   C15       1.0  0.97640  0.64600  0.46280  1.0000 -0.1823805666
C   C16       1.0  0.94820  0.58110  0.49710  1.0000 0.0735074196
C   C17       1.0  0.87490  0.44990  0.35260  1.0000 0.0735074196
C   C18       1.0  0.89870  0.50940  0.31190  1.0000 -0.2042045744
C   C19       1.0  0.96410  0.06970  0.91620  1.0000 0.5345053652
C   C20       1.0  0.85550  0.00480  0.86710  1.0000 -0.025042521
C   C21       1.0  0.80790  0.00490  0.92120  1.0000 -0.0953536911
C   C22       1.0  0.70920  0.94000  0.88020  1.0000 -0.1519799532
C   C23       1.0  0.65340  0.87110  0.78490  1.0000 0.0735074196
C   C24       1.0  0.70050  0.87270  0.73080  1.0000 -0.1615389234
C   C25       1.0  0.80030  0.93950  0.77080  1.0000 -0.116978456
C   C26       1.0  0.54780  0.79700  0.74440  1.0000 0.0619138151
C   C27       1.0  0.51220  0.76340  0.79940  1.0000 -0.1391634515
C   C28       1.0  0.41620  0.69600  0.76520  1.0000 -0.1267957931
C   C29       1.0  0.34760  0.65630  0.66970  1.0000 0.0619138151
C   C30       1.0  0.38190  0.68830  0.61360  1.0000 -0.1127574613
C   C31       1.0  0.47990  0.75700  0.64970  1.0000 -0.116978456
C   C32       1.0  0.24150  0.58360  0.63050  1.0000 0.1199275818
C   C33       1.0  0.18320  0.51360  0.53720  1.0000 -0.1823805666
C   C34       1.0  0.08400  0.45110  0.50290  1.0000 0.0735074196
C   C35       1.0  0.09730  0.52230  0.64740  1.0000 0.0735074196
C   C36       1.0  0.19750  0.58680  0.68810  1.0000 -0.2042045744
C   C37       1.0  0.79790  0.40350  0.58380  1.0000 0.5345053652
C   C38       1.0  0.73840  0.38770  0.63290  1.0000 -0.025042521
C   C39       1.0  0.63670  0.33370  0.57880  1.0000 -0.0953536911
C   C40       1.0  0.57900  0.30980  0.61980  1.0000 -0.1519799532
C   C41       1.0  0.61850  0.33620  0.71510  1.0000 0.0735074196
C   C42       1.0  0.71970  0.39190  0.76920  1.0000 -0.1615389234
C   C43       1.0  0.77950  0.41870  0.72920  1.0000 -0.116978456
C   C44       1.0  0.55340  0.30260  0.75560  1.0000 0.0619138151
C   C45       1.0  0.46280  0.21400  0.70060  1.0000 -0.1391634515
C   C46       1.0  0.40100  0.18080  0.73480  1.0000 -0.1267957931
C   C47       1.0  0.42790  0.23660  0.83030  1.0000 0.0619138151
C   C48       1.0  0.51830  0.32470  0.88640  1.0000 -0.1127574613
C   C49       1.0  0.58020  0.35730  0.85030  1.0000 -0.116978456
C   C50       1.0  0.36100  0.20310  0.86950  1.0000 0.1199275818
C   C51       1.0  0.39600  0.22640  0.96280  1.0000 -0.1823805666
C   C52       1.0  0.33110  0.19820  0.99710  1.0000 0.0735074196
C   C53       1.0  0.19990  0.12490  0.85260  1.0000 0.0735074196
C   C54       1.0  0.25940  0.14870  0.81190  1.0000 -0.2042045744
C   C55       1.0  0.81970  0.21410  0.41620  1.0000 0.5345053652
C   C56       1.0  0.75480  0.10550  0.36710  1.0000 -0.025042521
C   C57       1.0  0.75490  0.05790  0.42120  1.0000 -0.0953536911
C   C58       1.0  0.69000  0.95920  0.38020  1.0000 -0.1519799532
C   C59       1.0  0.62110  0.90340  0.28490  1.0000 0.0735074196
C   C60       1.0  0.62270  0.95050  0.23080  1.0000 -0.1615389234
C   C61       1.0  0.68950  0.05030  0.27080  1.0000 -0.116978456
C   C62       1.0  0.54700  0.79780  0.24440  1.0000 0.0619138151
C   C63       1.0  0.51340  0.76220  0.29940  1.0000 -0.1391634515
C   C64       1.0  0.44600  0.66620  0.26520  1.0000 -0.1267957931
C   C65       1.0  0.40630  0.59760  0.16970  1.0000 0.0619138151
C   C66       1.0  0.43830  0.63190  0.11360  1.0000 -0.1127574613
C   C67       1.0  0.50700  0.72990  0.14970  1.0000 -0.116978456
C   C68       1.0  0.33360  0.49150  0.13050  1.0000 0.1199275818
C   C69       1.0  0.26360  0.43320  0.03720  1.0000 -0.1823805666
C   C70       1.0  0.20110  0.33400  0.00290  1.0000 0.0735074196
C   C71       1.0  0.27230  0.34730  0.14740  1.0000 0.0735074196
C   C72       1.0  0.33680  0.44750  0.18810  1.0000 -0.2042045744
C   C73       1.0  0.29790  0.71410  0.39440  1.0000 0.5345053652
C   C74       1.0  0.23840  0.60550  0.35070  1.0000 -0.025042521
C   C75       1.0  0.13670  0.55790  0.30300  1.0000 -0.0953536911
C   C76       1.0  0.07900  0.45920  0.26920  1.0000 -0.1519799532
C   C77       1.0  0.11850  0.40340  0.28230  1.0000 0.0735074196
C   C78       1.0  0.21970  0.45050  0.32780  1.0000 -0.1615389234
C   C79       1.0  0.27950  0.55030  0.36080  1.0000 -0.116978456
C   C80       1.0  0.05340  0.29780  0.25080  1.0000 0.0619138151
C   C81       1.0  0.96280  0.26220  0.24880  1.0000 -0.1391634515
C   C82       1.0  0.90100  0.16620  0.22020  1.0000 -0.1267957931
C   C83       1.0  0.92790  0.09760  0.19130  1.0000 0.0619138151
C   C84       1.0  0.01830  0.13190  0.19360  1.0000 -0.1127574613
C   C85       1.0  0.08020  0.22990  0.22290  1.0000 -0.116978456
C   C86       1.0  0.86100  0.99150  0.15790  1.0000 0.1199275818
C   C87       1.0  0.89600  0.93320  0.16960  1.0000 -0.1823805666
C   C88       1.0  0.83110  0.83400  0.13290  1.0000 0.0735074196
C   C89       1.0  0.69990  0.84730  0.07500  1.0000 0.0735074196
C   C90       1.0  0.75940  0.94750  0.11070  1.0000 -0.2042045744
C   C91       1.0  0.31970  0.90350  0.60560  1.0000 0.5345053652
C   C92       1.0  0.25480  0.88770  0.64930  1.0000 -0.025042521
C   C93       1.0  0.25490  0.83370  0.69700  1.0000 -0.0953536911
C   C94       1.0  0.19000  0.80980  0.73080  1.0000 -0.1519799532
C   C95       1.0  0.12110  0.83620  0.71770  1.0000 0.0735074196
C   C96       1.0  0.12270  0.89190  0.67220  1.0000 -0.1615389234
C   C97       1.0  0.18950  0.91870  0.63920  1.0000 -0.116978456
C   C98       1.0  0.04700  0.80260  0.74920  1.0000 0.0619138151
C   C99       1.0  0.01340  0.71400  0.75120  1.0000 -0.1391634515
C   C100      1.0  0.94600  0.68080  0.77980  1.0000 -0.1267957931
C   C101      1.0  0.90630  0.73660  0.80870  1.0000 0.0619138151
C   C102      1.0  0.93830  0.82470  0.80640  1.0000 -0.1127574613
C   C103      1.0  0.00700  0.85730  0.77710  1.0000 -0.116978456
C   C104      1.0  0.83360  0.70310  0.84210  1.0000 0.1199275818
C   C105      1.0  0.76360  0.72640  0.83040  1.0000 -0.1823805666
C   C106      1.0  0.70110  0.69820  0.86710  1.0000 0.0735074196
C   C107      1.0  0.77230  0.62490  0.92500  1.0000 0.0735074196
C   C108      1.0  0.83680  0.64870  0.88930  1.0000 -0.2042045744
C   C109      1.0  0.65350  0.56970  0.10560  1.0000 0.5345053652
C   C110      1.0  0.63770  0.50480  0.14930  1.0000 -0.025042521
C   C111      1.0  0.58370  0.50490  0.19700  1.0000 -0.0953536911
C   C112      1.0  0.55980  0.44000  0.23080  1.0000 -0.1519799532
C   C113      1.0  0.58620  0.37110  0.21770  1.0000 0.0735074196
C   C114      1.0  0.64190  0.37270  0.17220  1.0000 -0.1615389234
C   C115      1.0  0.66870  0.43950  0.13920  1.0000 -0.116978456
C   C116      1.0  0.55260  0.29700  0.24920  1.0000 0.0619138151
C   C117      1.0  0.46400  0.26340  0.25120  1.0000 -0.1391634515
C   C118      1.0  0.43080  0.19600  0.27980  1.0000 -0.1267957931
C   C119      1.0  0.48660  0.15630  0.30870  1.0000 0.0619138151
C   C120      1.0  0.57470  0.18830  0.30640  1.0000 -0.1127574613
C   C121      1.0  0.60730  0.25700  0.27710  1.0000 -0.116978456
C   C122      1.0  0.45310  0.08360  0.34210  1.0000 0.1199275818
C   C123      1.0  0.47640  0.01360  0.33040  1.0000 -0.1823805666
C   C124      1.0  0.44820  0.95110  0.36710  1.0000 0.0735074196
C   C125      1.0  0.37490  0.02230  0.42500  1.0000 0.0735074196
C   C126      1.0  0.39870  0.08680  0.38930  1.0000 -0.2042045744
C   C127      1.0  0.46410  0.54790  0.89440  1.0000 0.5345053652
C   C128      1.0  0.35550  0.48840  0.85070  1.0000 -0.025042521
C   C129      1.0  0.30790  0.38670  0.80300  1.0000 -0.0953536911
C   C130      1.0  0.20920  0.32900  0.76920  1.0000 -0.1519799532
C   C131      1.0  0.15340  0.36850  0.78230  1.0000 0.0735074196
C   C132      1.0  0.20050  0.46970  0.82780  1.0000 -0.1615389234
C   C133      1.0  0.30030  0.52950  0.86080  1.0000 -0.116978456
C   C134      1.0  0.04780  0.30340  0.75080  1.0000 0.0619138151
C   C135      1.0  0.01220  0.21280  0.74880  1.0000 -0.1391634515
C   C136      1.0  0.91620  0.15100  0.72020  1.0000 -0.1267957931
C   C137      1.0  0.84760  0.17790  0.69130  1.0000 0.0619138151
C   C138      1.0  0.88190  0.26830  0.69360  1.0000 -0.1127574613
C   C139      1.0  0.97990  0.33020  0.72290  1.0000 -0.116978456
C   C140      1.0  0.74150  0.11100  0.65790  1.0000 0.1199275818
C   C141      1.0  0.68320  0.14600  0.66960  1.0000 -0.1823805666
C   C142      1.0  0.58400  0.08110  0.63290  1.0000 0.0735074196
C   C143      1.0  0.59730  0.94990  0.57500  1.0000 0.0735074196
C   C144      1.0  0.69750  0.00940  0.61070  1.0000 -0.2042045744
N   N1        1.0  0.89950  0.48310  0.44440  1.0000 -0.2313097289
N   N2        1.0  0.03870  0.45510  0.55560  1.0000 -0.2313097289
N   N3        1.0  0.23310  0.14950  0.94440  1.0000 -0.2313097289
N   N4        1.0  0.20510  0.28870  0.05560  1.0000 -0.2313097289
N   N5        1.0  0.73310  0.78870  0.08360  1.0000 -0.2313097289
N   N6        1.0  0.70510  0.64950  0.91640  1.0000 -0.2313097289
N   N7        1.0  0.39950  0.95510  0.41640  1.0000 -0.2313097289
N   N8        1.0  0.53870  0.98310  0.58360  1.0000 -0.2313097289
O   O1        1.0  0.20608  0.14233  0.13101  1.0000 -0.5603987297
O   O2        1.0  0.10962  0.00630  0.99452  1.0000 -0.5040291792
O   O3        1.0  0.01132  0.07507  0.86899  1.0000 -0.5603987297
O   O4        1.0  0.01178  0.11510  0.00548  1.0000 -0.5040291792
O   O5        1.0  0.89233  0.45608  0.63101  1.0000 -0.5603987297
O   O6        1.0  0.75630  0.35962  0.49452  1.0000 -0.5040291792
O   O7        1.0  0.82507  0.26132  0.36899  1.0000 -0.5603987297
O   O8        1.0  0.86510  0.26178  0.50548  1.0000 -0.5040291792
O   O9        1.0  0.39233  0.76132  0.43625  1.0000 -0.5603987297
O   O10       1.0  0.25630  0.76178  0.39668  1.0000 -0.5040291792
O   O11       1.0  0.32507  0.95608  0.56375  1.0000 -0.5603987297
O   O12       1.0  0.36510  0.85962  0.60332  1.0000 -0.5040291792
O   O13       1.0  0.70608  0.57507  0.06375  1.0000 -0.5603987297
O   O14       1.0  0.60962  0.61510  0.10332  1.0000 -0.5040291792
O   O15       1.0  0.51132  0.64233  0.93625  1.0000 -0.5603987297
O   O16       1.0  0.51178  0.50630  0.89668  1.0000 -0.5040291792
