# DDEC6 charges by PACMAN v1.1 (https://github.com/mtap-research/PACMAN-charge/)
data_2019[Cd][nuc]3[FSR]1
_chemical_formula_sum              "Cd4 H144 C192 N48"
_cell_length_a       15.9167
_cell_length_b       15.9167
_cell_length_c       21.5498
_cell_angle_alpha    90
_cell_angle_beta     90
_cell_angle_gamma    90

_symmetry_space_group_name_H-M    "P 1"
_symmetry_Int_Tables_number       1

loop_
  _symmetry_equiv_pos_as_xyz
  'x, y, z'

loop_
  _atom_site_type_symbol
  _atom_site_label
  _atom_site_symmetry_multiplicity
  _atom_site_fract_x
  _atom_site_fract_y
  _atom_site_fract_z
  _atom_site_occupancy
  _atom_site_charge
Cd  Cd1       1.0  0.55797  0.55797  0.00000  1.0000 0.6441055583
Cd  Cd2       1.0  0.44203  0.44203  0.50000  1.0000 0.6441055583
Cd  Cd3       1.0  0.94203  0.05797  0.75000  1.0000 0.6441055583
Cd  Cd4       1.0  0.05797  0.94203  0.25000  1.0000 0.6441055583
H   H1        1.0  0.53730  0.61050  0.15100  1.0000 0.0990673332
H   H2        1.0  0.58660  0.71410  0.21730  1.0000 0.1274934657
H   H3        1.0  0.78140  0.74490  0.10310  1.0000 0.1274934657
H   H4        1.0  0.72690  0.64110  0.04030  1.0000 0.0924312448
H   H5        1.0  0.65330  0.79660  0.28160  1.0000 0.0924312448
H   H6        1.0  0.70390  0.90890  0.33730  1.0000 0.1098152087
H   H7        1.0  0.80250  0.00000  0.29380  1.0000 0.1098152087
H   H8        1.0  0.79780  0.86440  0.13710  1.0000 0.1098152087
H   H9        1.0  0.04300  0.12080  0.04030  1.0000 0.1098152087
H   H10       1.0  0.06200  0.22960  0.97040  1.0000 0.1098152087
H   H11       1.0  0.96120  0.33350  0.96020  1.0000 0.1098152087
H   H12       1.0  0.82380  0.22480  0.09370  1.0000 0.1098152087
H   H13       1.0  0.84220  0.39260  0.93450  1.0000 0.1247644322
H   H14       1.0  0.73420  0.48800  0.92450  1.0000 0.0924312448
H   H15       1.0  0.66130  0.44390  0.09400  1.0000 0.0990673332
H   H16       1.0  0.76900  0.35030  0.10820  1.0000 0.1274934657
H   H17       1.0  0.75040  0.04350  0.09200  1.0000 0.250226778
H   H18       1.0  0.73360  0.07750  0.15340  1.0000 0.250226778
H   H19       1.0  0.46270  0.38950  0.65100  1.0000 0.0990673332
H   H20       1.0  0.41340  0.28590  0.71730  1.0000 0.1274934657
H   H21       1.0  0.21860  0.25510  0.60310  1.0000 0.1274934657
H   H22       1.0  0.27310  0.35890  0.54030  1.0000 0.0924312448
H   H23       1.0  0.34670  0.20340  0.78160  1.0000 0.0924312448
H   H24       1.0  0.29610  0.09110  0.83730  1.0000 0.1098152087
H   H25       1.0  0.19750  0.00000  0.79380  1.0000 0.1098152087
H   H26       1.0  0.20220  0.13560  0.63710  1.0000 0.1098152087
H   H27       1.0  0.95700  0.87920  0.54030  1.0000 0.1098152087
H   H28       1.0  0.93800  0.77040  0.47040  1.0000 0.1098152087
H   H29       1.0  0.03880  0.66650  0.46020  1.0000 0.1098152087
H   H30       1.0  0.17620  0.77520  0.59370  1.0000 0.1098152087
H   H31       1.0  0.15780  0.60740  0.43450  1.0000 0.1247644322
H   H32       1.0  0.26580  0.51200  0.42450  1.0000 0.0924312448
H   H33       1.0  0.33870  0.55610  0.59400  1.0000 0.0990673332
H   H34       1.0  0.23100  0.64970  0.60820  1.0000 0.1274934657
H   H35       1.0  0.24960  0.95650  0.59200  1.0000 0.250226778
H   H36       1.0  0.26640  0.92250  0.65340  1.0000 0.250226778
H   H37       1.0  0.88950  0.03730  0.90100  1.0000 0.0990673332
H   H38       1.0  0.78590  0.08660  0.96730  1.0000 0.1274934657
H   H39       1.0  0.75510  0.28140  0.85310  1.0000 0.1274934657
H   H40       1.0  0.85890  0.22690  0.79030  1.0000 0.0924312448
H   H41       1.0  0.70340  0.15330  0.03160  1.0000 0.0924312448
H   H42       1.0  0.59110  0.20390  0.08730  1.0000 0.1098152087
H   H43       1.0  0.50000  0.30250  0.04380  1.0000 0.1098152087
H   H44       1.0  0.63560  0.29780  0.88710  1.0000 0.1098152087
H   H45       1.0  0.37920  0.54300  0.79030  1.0000 0.1098152087
H   H46       1.0  0.27040  0.56200  0.72040  1.0000 0.1098152087
H   H47       1.0  0.16650  0.46120  0.71020  1.0000 0.1098152087
H   H48       1.0  0.27520  0.32380  0.84370  1.0000 0.1098152087
H   H49       1.0  0.10740  0.34220  0.68450  1.0000 0.1247644322
H   H50       1.0  0.01200  0.23420  0.67450  1.0000 0.0924312448
H   H51       1.0  0.05610  0.16130  0.84400  1.0000 0.0990673332
H   H52       1.0  0.14970  0.26900  0.85820  1.0000 0.1274934657
H   H53       1.0  0.45650  0.25040  0.84200  1.0000 0.250226778
H   H54       1.0  0.42250  0.23360  0.90340  1.0000 0.250226778
H   H55       1.0  0.11050  0.96270  0.40100  1.0000 0.0990673332
H   H56       1.0  0.21410  0.91340  0.46730  1.0000 0.1274934657
H   H57       1.0  0.24490  0.71860  0.35310  1.0000 0.1274934657
H   H58       1.0  0.14110  0.77310  0.29030  1.0000 0.0924312448
H   H59       1.0  0.29660  0.84670  0.53160  1.0000 0.0924312448
H   H60       1.0  0.40890  0.79610  0.58730  1.0000 0.1098152087
H   H61       1.0  0.50000  0.69750  0.54380  1.0000 0.1098152087
H   H62       1.0  0.36440  0.70220  0.38710  1.0000 0.1098152087
H   H63       1.0  0.62080  0.45700  0.29030  1.0000 0.1098152087
H   H64       1.0  0.72960  0.43800  0.22040  1.0000 0.1098152087
H   H65       1.0  0.83350  0.53880  0.21020  1.0000 0.1098152087
H   H66       1.0  0.72480  0.67620  0.34370  1.0000 0.1098152087
H   H67       1.0  0.89260  0.65780  0.18450  1.0000 0.1247644322
H   H68       1.0  0.98800  0.76580  0.17450  1.0000 0.0924312448
H   H69       1.0  0.94390  0.83870  0.34400  1.0000 0.0990673332
H   H70       1.0  0.85030  0.73100  0.35820  1.0000 0.1274934657
H   H71       1.0  0.54350  0.74960  0.34200  1.0000 0.250226778
H   H72       1.0  0.57750  0.76640  0.40340  1.0000 0.250226778
H   H73       1.0  0.96270  0.11050  0.59900  1.0000 0.0990673332
H   H74       1.0  0.91340  0.21410  0.53270  1.0000 0.1274934657
H   H75       1.0  0.71860  0.24490  0.64690  1.0000 0.1274934657
H   H76       1.0  0.77310  0.14110  0.70970  1.0000 0.0924312448
H   H77       1.0  0.84670  0.29660  0.46840  1.0000 0.0924312448
H   H78       1.0  0.79610  0.40890  0.41270  1.0000 0.1098152087
H   H79       1.0  0.69750  0.50000  0.45620  1.0000 0.1098152087
H   H80       1.0  0.70220  0.36440  0.61290  1.0000 0.1098152087
H   H81       1.0  0.45700  0.62080  0.70970  1.0000 0.1098152087
H   H82       1.0  0.43800  0.72960  0.77960  1.0000 0.1098152087
H   H83       1.0  0.53880  0.83350  0.78980  1.0000 0.1098152087
H   H84       1.0  0.67620  0.72480  0.65630  1.0000 0.1098152087
H   H85       1.0  0.65780  0.89260  0.81550  1.0000 0.1247644322
H   H86       1.0  0.76580  0.98800  0.82550  1.0000 0.0924312448
H   H87       1.0  0.83870  0.94390  0.65600  1.0000 0.0990673332
H   H88       1.0  0.73100  0.85030  0.64180  1.0000 0.1274934657
H   H89       1.0  0.74960  0.54350  0.65800  1.0000 0.250226778
H   H90       1.0  0.76640  0.57750  0.59660  1.0000 0.250226778
H   H91       1.0  0.03730  0.88950  0.09900  1.0000 0.0990673332
H   H92       1.0  0.08660  0.78590  0.03270  1.0000 0.1274934657
H   H93       1.0  0.28140  0.75510  0.14690  1.0000 0.1274934657
H   H94       1.0  0.22690  0.85890  0.20970  1.0000 0.0924312448
H   H95       1.0  0.15330  0.70340  0.96840  1.0000 0.0924312448
H   H96       1.0  0.20390  0.59110  0.91270  1.0000 0.1098152087
H   H97       1.0  0.30250  0.50000  0.95620  1.0000 0.1098152087
H   H98       1.0  0.29780  0.63560  0.11290  1.0000 0.1098152087
H   H99       1.0  0.54300  0.37920  0.20970  1.0000 0.1098152087
H   H100      1.0  0.56200  0.27040  0.27960  1.0000 0.1098152087
H   H101      1.0  0.46120  0.16650  0.28980  1.0000 0.1098152087
H   H102      1.0  0.32380  0.27520  0.15630  1.0000 0.1098152087
H   H103      1.0  0.34220  0.10740  0.31550  1.0000 0.1247644322
H   H104      1.0  0.23420  0.01200  0.32550  1.0000 0.0924312448
H   H105      1.0  0.16130  0.05610  0.15600  1.0000 0.0990673332
H   H106      1.0  0.26900  0.14970  0.14180  1.0000 0.1274934657
H   H107      1.0  0.25040  0.45650  0.15800  1.0000 0.250226778
H   H108      1.0  0.23360  0.42250  0.09660  1.0000 0.250226778
H   H109      1.0  0.61050  0.53730  0.84900  1.0000 0.0990673332
H   H110      1.0  0.71410  0.58660  0.78270  1.0000 0.1274934657
H   H111      1.0  0.74490  0.78140  0.89690  1.0000 0.1274934657
H   H112      1.0  0.64110  0.72690  0.95970  1.0000 0.0924312448
H   H113      1.0  0.79660  0.65330  0.71840  1.0000 0.0924312448
H   H114      1.0  0.90890  0.70390  0.66270  1.0000 0.1098152087
H   H115      1.0  0.00000  0.80250  0.70620  1.0000 0.1098152087
H   H116      1.0  0.86440  0.79780  0.86290  1.0000 0.1098152087
H   H117      1.0  0.12080  0.04300  0.95970  1.0000 0.1098152087
H   H118      1.0  0.22960  0.06200  0.02960  1.0000 0.1098152087
H   H119      1.0  0.33350  0.96120  0.03980  1.0000 0.1098152087
H   H120      1.0  0.22480  0.82380  0.90630  1.0000 0.1098152087
H   H121      1.0  0.39260  0.84220  0.06550  1.0000 0.1247644322
H   H122      1.0  0.48800  0.73420  0.07550  1.0000 0.0924312448
H   H123      1.0  0.44390  0.66130  0.90600  1.0000 0.0990673332
H   H124      1.0  0.35030  0.76900  0.89180  1.0000 0.1274934657
H   H125      1.0  0.04350  0.75040  0.90800  1.0000 0.250226778
H   H126      1.0  0.07750  0.73360  0.84660  1.0000 0.250226778
H   H127      1.0  0.38950  0.46270  0.34900  1.0000 0.0990673332
H   H128      1.0  0.28590  0.41340  0.28270  1.0000 0.1274934657
H   H129      1.0  0.25510  0.21860  0.39690  1.0000 0.1274934657
H   H130      1.0  0.35890  0.27310  0.45970  1.0000 0.0924312448
H   H131      1.0  0.20340  0.34670  0.21840  1.0000 0.0924312448
H   H132      1.0  0.09110  0.29610  0.16270  1.0000 0.1098152087
H   H133      1.0  0.00000  0.19750  0.20620  1.0000 0.1098152087
H   H134      1.0  0.13560  0.20220  0.36290  1.0000 0.1098152087
H   H135      1.0  0.87920  0.95700  0.45970  1.0000 0.1098152087
H   H136      1.0  0.77040  0.93800  0.52960  1.0000 0.1098152087
H   H137      1.0  0.66650  0.03880  0.53980  1.0000 0.1098152087
H   H138      1.0  0.77520  0.17620  0.40630  1.0000 0.1098152087
H   H139      1.0  0.60740  0.15780  0.56550  1.0000 0.1247644322
H   H140      1.0  0.51200  0.26580  0.57550  1.0000 0.0924312448
H   H141      1.0  0.55610  0.33870  0.40600  1.0000 0.0990673332
H   H142      1.0  0.64970  0.23100  0.39180  1.0000 0.1274934657
H   H143      1.0  0.95650  0.24960  0.40800  1.0000 0.250226778
H   H144      1.0  0.92250  0.26640  0.34660  1.0000 0.250226778
C   C1        1.0  0.58590  0.63940  0.14020  1.0000 0.0779975737
C   C2        1.0  0.61530  0.70250  0.18070  1.0000 -0.2220683796
C   C3        1.0  0.68760  0.74730  0.16530  1.0000 0.1098152087
C   C4        1.0  0.73010  0.72060  0.11320  1.0000 -0.2101042528
C   C5        1.0  0.69710  0.65740  0.07540  1.0000 0.0373005085
C   C6        1.0  0.71950  0.81910  0.20250  1.0000 0.0711925673
C   C7        1.0  0.69210  0.83290  0.26360  1.0000 -0.1704273019
C   C8        1.0  0.72270  0.89990  0.29700  1.0000 -0.1092553674
C   C9        1.0  0.78200  0.95500  0.27080  1.0000 -0.1704273019
C   C10       1.0  0.81000  0.94140  0.21010  1.0000 0.0175845041
C   C11       1.0  0.77870  0.87380  0.17730  1.0000 -0.2101042528
C   C12       1.0  0.87260  0.99640  0.18030  1.0000 0.1767714779
C   C13       1.0  0.92350  0.09240  0.11820  1.0000 0.1734105061
C   C14       1.0  0.93220  0.16160  0.07470  1.0000 0.0305033932
C   C15       1.0  0.00300  0.16320  0.03720  1.0000 -0.1637105075
C   C16       1.0  0.01410  0.22820  0.99510  1.0000 -0.1092553674
C   C17       1.0  0.95410  0.29120  0.98950  1.0000 -0.1637105075
C   C18       1.0  0.88380  0.29140  0.02740  1.0000 0.0711925673
C   C19       1.0  0.87180  0.22610  0.06920  1.0000 -0.2021526685
C   C20       1.0  0.81740  0.35770  0.02220  1.0000 0.1098152087
C   C21       1.0  0.80590  0.40150  0.96770  1.0000 -0.2101042528
C   C22       1.0  0.74010  0.45930  0.96180  1.0000 0.0711925673
C   C23       1.0  0.69790  0.43360  0.06120  1.0000 0.0600090107
C   C24       1.0  0.76250  0.37640  0.06990  1.0000 -0.2021526685
C   C25       1.0  0.41410  0.36060  0.64020  1.0000 0.0779975737
C   C26       1.0  0.38470  0.29750  0.68070  1.0000 -0.2220683796
C   C27       1.0  0.31240  0.25270  0.66530  1.0000 0.1098152087
C   C28       1.0  0.26990  0.27940  0.61320  1.0000 -0.2101042528
C   C29       1.0  0.30290  0.34260  0.57540  1.0000 0.0373005085
C   C30       1.0  0.28050  0.18090  0.70250  1.0000 0.0711925673
C   C31       1.0  0.30790  0.16710  0.76360  1.0000 -0.1704273019
C   C32       1.0  0.27730  0.10010  0.79700  1.0000 -0.1092553674
C   C33       1.0  0.21800  0.04500  0.77080  1.0000 -0.1704273019
C   C34       1.0  0.19000  0.05860  0.71010  1.0000 0.0175845041
C   C35       1.0  0.22130  0.12620  0.67730  1.0000 -0.2101042528
C   C36       1.0  0.12740  0.00360  0.68030  1.0000 0.1767714779
C   C37       1.0  0.07650  0.90760  0.61820  1.0000 0.1734105061
C   C38       1.0  0.06780  0.83840  0.57470  1.0000 0.0305033932
C   C39       1.0  0.99700  0.83680  0.53720  1.0000 -0.1637105075
C   C40       1.0  0.98590  0.77180  0.49510  1.0000 -0.1092553674
C   C41       1.0  0.04590  0.70880  0.48950  1.0000 -0.1637105075
C   C42       1.0  0.11620  0.70860  0.52740  1.0000 0.0711925673
C   C43       1.0  0.12820  0.77390  0.56920  1.0000 -0.2021526685
C   C44       1.0  0.18260  0.64230  0.52220  1.0000 0.1098152087
C   C45       1.0  0.19410  0.59850  0.46770  1.0000 -0.2101042528
C   C46       1.0  0.25990  0.54070  0.46180  1.0000 0.0711925673
C   C47       1.0  0.30210  0.56640  0.56120  1.0000 0.0600090107
C   C48       1.0  0.23750  0.62360  0.56990  1.0000 -0.2021526685
C   C49       1.0  0.86060  0.08590  0.89020  1.0000 0.0779975737
C   C50       1.0  0.79750  0.11530  0.93070  1.0000 -0.2220683796
C   C51       1.0  0.75270  0.18760  0.91530  1.0000 0.1098152087
C   C52       1.0  0.77940  0.23010  0.86320  1.0000 -0.2101042528
C   C53       1.0  0.84260  0.19710  0.82540  1.0000 0.0373005085
C   C54       1.0  0.68090  0.21950  0.95250  1.0000 0.0711925673
C   C55       1.0  0.66710  0.19210  0.01360  1.0000 -0.1704273019
C   C56       1.0  0.60010  0.22270  0.04700  1.0000 -0.1092553674
C   C57       1.0  0.54500  0.28200  0.02080  1.0000 -0.1704273019
C   C58       1.0  0.55860  0.31000  0.96010  1.0000 0.0175845041
C   C59       1.0  0.62620  0.27870  0.92730  1.0000 -0.2101042528
C   C60       1.0  0.50360  0.37260  0.93030  1.0000 0.1767714779
C   C61       1.0  0.40760  0.42350  0.86820  1.0000 0.1734105061
C   C62       1.0  0.33840  0.43220  0.82470  1.0000 0.0305033932
C   C63       1.0  0.33680  0.50300  0.78720  1.0000 -0.1637105075
C   C64       1.0  0.27180  0.51410  0.74510  1.0000 -0.1092553674
C   C65       1.0  0.20880  0.45410  0.73950  1.0000 -0.1637105075
C   C66       1.0  0.20860  0.38380  0.77740  1.0000 0.0711925673
C   C67       1.0  0.27390  0.37180  0.81920  1.0000 -0.2021526685
C   C68       1.0  0.14230  0.31740  0.77220  1.0000 0.1098152087
C   C69       1.0  0.09850  0.30590  0.71770  1.0000 -0.2101042528
C   C70       1.0  0.04070  0.24010  0.71180  1.0000 0.0711925673
C   C71       1.0  0.06640  0.19790  0.81120  1.0000 0.0600090107
C   C72       1.0  0.12360  0.26250  0.81990  1.0000 -0.2021526685
C   C73       1.0  0.13940  0.91410  0.39020  1.0000 0.0779975737
C   C74       1.0  0.20250  0.88470  0.43070  1.0000 -0.2220683796
C   C75       1.0  0.24730  0.81240  0.41530  1.0000 0.1098152087
C   C76       1.0  0.22060  0.76990  0.36320  1.0000 -0.2101042528
C   C77       1.0  0.15740  0.80290  0.32540  1.0000 0.0373005085
C   C78       1.0  0.31910  0.78050  0.45250  1.0000 0.0711925673
C   C79       1.0  0.33290  0.80790  0.51360  1.0000 -0.1704273019
C   C80       1.0  0.39990  0.77730  0.54700  1.0000 -0.1092553674
C   C81       1.0  0.45500  0.71800  0.52080  1.0000 -0.1704273019
C   C82       1.0  0.44140  0.69000  0.46010  1.0000 0.0175845041
C   C83       1.0  0.37380  0.72130  0.42730  1.0000 -0.2101042528
C   C84       1.0  0.49640  0.62740  0.43030  1.0000 0.1767714779
C   C85       1.0  0.59240  0.57650  0.36820  1.0000 0.1734105061
C   C86       1.0  0.66160  0.56780  0.32470  1.0000 0.0305033932
C   C87       1.0  0.66320  0.49700  0.28720  1.0000 -0.1637105075
C   C88       1.0  0.72820  0.48590  0.24510  1.0000 -0.1092553674
C   C89       1.0  0.79120  0.54590  0.23950  1.0000 -0.1637105075
C   C90       1.0  0.79140  0.61620  0.27740  1.0000 0.0711925673
C   C91       1.0  0.72610  0.62820  0.31920  1.0000 -0.2021526685
C   C92       1.0  0.85770  0.68260  0.27220  1.0000 0.1098152087
C   C93       1.0  0.90150  0.69410  0.21770  1.0000 -0.2101042528
C   C94       1.0  0.95930  0.75990  0.21180  1.0000 0.0711925673
C   C95       1.0  0.93360  0.80210  0.31120  1.0000 0.0600090107
C   C96       1.0  0.87640  0.73750  0.31990  1.0000 -0.2021526685
C   C97       1.0  0.91410  0.13940  0.60980  1.0000 0.0779975737
C   C98       1.0  0.88470  0.20250  0.56930  1.0000 -0.2220683796
C   C99       1.0  0.81240  0.24730  0.58470  1.0000 0.1098152087
C   C100      1.0  0.76990  0.22060  0.63680  1.0000 -0.2101042528
C   C101      1.0  0.80290  0.15740  0.67460  1.0000 0.0373005085
C   C102      1.0  0.78050  0.31910  0.54750  1.0000 0.0711925673
C   C103      1.0  0.80790  0.33290  0.48640  1.0000 -0.1704273019
C   C104      1.0  0.77730  0.39990  0.45300  1.0000 -0.1092553674
C   C105      1.0  0.71800  0.45500  0.47920  1.0000 -0.1704273019
C   C106      1.0  0.69000  0.44140  0.53990  1.0000 0.0175845041
C   C107      1.0  0.72130  0.37380  0.57270  1.0000 -0.2101042528
C   C108      1.0  0.62740  0.49640  0.56970  1.0000 0.1767714779
C   C109      1.0  0.57650  0.59240  0.63180  1.0000 0.1734105061
C   C110      1.0  0.56780  0.66160  0.67530  1.0000 0.0305033932
C   C111      1.0  0.49700  0.66320  0.71280  1.0000 -0.1637105075
C   C112      1.0  0.48590  0.72820  0.75490  1.0000 -0.1092553674
C   C113      1.0  0.54590  0.79120  0.76050  1.0000 -0.1637105075
C   C114      1.0  0.61620  0.79140  0.72260  1.0000 0.0711925673
C   C115      1.0  0.62820  0.72610  0.68080  1.0000 -0.2021526685
C   C116      1.0  0.68260  0.85770  0.72780  1.0000 0.1098152087
C   C117      1.0  0.69410  0.90150  0.78230  1.0000 -0.2101042528
C   C118      1.0  0.75990  0.95930  0.78820  1.0000 0.0711925673
C   C119      1.0  0.80210  0.93360  0.68880  1.0000 0.0600090107
C   C120      1.0  0.73750  0.87640  0.68010  1.0000 -0.2021526685
C   C121      1.0  0.08590  0.86060  0.10980  1.0000 0.0779975737
C   C122      1.0  0.11530  0.79750  0.06930  1.0000 -0.2220683796
C   C123      1.0  0.18760  0.75270  0.08470  1.0000 0.1098152087
C   C124      1.0  0.23010  0.77940  0.13680  1.0000 -0.2101042528
C   C125      1.0  0.19710  0.84260  0.17460  1.0000 0.0373005085
C   C126      1.0  0.21950  0.68090  0.04750  1.0000 0.0711925673
C   C127      1.0  0.19210  0.66710  0.98640  1.0000 -0.1704273019
C   C128      1.0  0.22270  0.60010  0.95300  1.0000 -0.1092553674
C   C129      1.0  0.28200  0.54500  0.97920  1.0000 -0.1704273019
C   C130      1.0  0.31000  0.55860  0.03990  1.0000 0.0175845041
C   C131      1.0  0.27870  0.62620  0.07270  1.0000 -0.2101042528
C   C132      1.0  0.37260  0.50360  0.06970  1.0000 0.1767714779
C   C133      1.0  0.42350  0.40760  0.13180  1.0000 0.1734105061
C   C134      1.0  0.43220  0.33840  0.17530  1.0000 0.0305033932
C   C135      1.0  0.50300  0.33680  0.21280  1.0000 -0.1637105075
C   C136      1.0  0.51410  0.27180  0.25490  1.0000 -0.1092553674
C   C137      1.0  0.45410  0.20880  0.26050  1.0000 -0.1637105075
C   C138      1.0  0.38380  0.20860  0.22260  1.0000 0.0711925673
C   C139      1.0  0.37180  0.27390  0.18080  1.0000 -0.2021526685
C   C140      1.0  0.31740  0.14230  0.22780  1.0000 0.1098152087
C   C141      1.0  0.30590  0.09850  0.28230  1.0000 -0.2101042528
C   C142      1.0  0.24010  0.04070  0.28820  1.0000 0.0711925673
C   C143      1.0  0.19790  0.06640  0.18880  1.0000 0.0600090107
C   C144      1.0  0.26250  0.12360  0.18010  1.0000 -0.2021526685
C   C145      1.0  0.63940  0.58590  0.85980  1.0000 0.0779975737
C   C146      1.0  0.70250  0.61530  0.81930  1.0000 -0.2220683796
C   C147      1.0  0.74730  0.68760  0.83470  1.0000 0.1098152087
C   C148      1.0  0.72060  0.73010  0.88680  1.0000 -0.2101042528
C   C149      1.0  0.65740  0.69710  0.92460  1.0000 0.0373005085
C   C150      1.0  0.81910  0.71950  0.79750  1.0000 0.0711925673
C   C151      1.0  0.83290  0.69210  0.73640  1.0000 -0.1704273019
C   C152      1.0  0.89990  0.72270  0.70300  1.0000 -0.1092553674
C   C153      1.0  0.95500  0.78200  0.72920  1.0000 -0.1704273019
C   C154      1.0  0.94140  0.81000  0.78990  1.0000 0.0175845041
C   C155      1.0  0.87380  0.77870  0.82270  1.0000 -0.2101042528
C   C156      1.0  0.99640  0.87260  0.81970  1.0000 0.1767714779
C   C157      1.0  0.09240  0.92350  0.88180  1.0000 0.1734105061
C   C158      1.0  0.16160  0.93220  0.92530  1.0000 0.0305033932
C   C159      1.0  0.16320  0.00300  0.96280  1.0000 -0.1637105075
C   C160      1.0  0.22820  0.01410  0.00490  1.0000 -0.1092553674
C   C161      1.0  0.29120  0.95410  0.01050  1.0000 -0.1637105075
C   C162      1.0  0.29140  0.88380  0.97260  1.0000 0.0711925673
C   C163      1.0  0.22610  0.87180  0.93080  1.0000 -0.2021526685
C   C164      1.0  0.35770  0.81740  0.97780  1.0000 0.1098152087
C   C165      1.0  0.40150  0.80590  0.03230  1.0000 -0.2101042528
C   C166      1.0  0.45930  0.74010  0.03820  1.0000 0.0711925673
C   C167      1.0  0.43360  0.69790  0.93880  1.0000 0.0600090107
C   C168      1.0  0.37640  0.76250  0.93010  1.0000 -0.2021526685
C   C169      1.0  0.36060  0.41410  0.35980  1.0000 0.0779975737
C   C170      1.0  0.29750  0.38470  0.31930  1.0000 -0.2220683796
C   C171      1.0  0.25270  0.31240  0.33470  1.0000 0.1098152087
C   C172      1.0  0.27940  0.26990  0.38680  1.0000 -0.2101042528
C   C173      1.0  0.34260  0.30290  0.42460  1.0000 0.0373005085
C   C174      1.0  0.18090  0.28050  0.29750  1.0000 0.0711925673
C   C175      1.0  0.16710  0.30790  0.23640  1.0000 -0.1704273019
C   C176      1.0  0.10010  0.27730  0.20300  1.0000 -0.1092553674
C   C177      1.0  0.04500  0.21800  0.22920  1.0000 -0.1704273019
C   C178      1.0  0.05860  0.19000  0.28990  1.0000 0.0175845041
C   C179      1.0  0.12620  0.22130  0.32270  1.0000 -0.2101042528
C   C180      1.0  0.00360  0.12740  0.31970  1.0000 0.1767714779
C   C181      1.0  0.90760  0.07650  0.38180  1.0000 0.1734105061
C   C182      1.0  0.83840  0.06780  0.42530  1.0000 0.0305033932
C   C183      1.0  0.83680  0.99700  0.46280  1.0000 -0.1637105075
C   C184      1.0  0.77180  0.98590  0.50490  1.0000 -0.1092553674
C   C185      1.0  0.70880  0.04590  0.51050  1.0000 -0.1637105075
C   C186      1.0  0.70860  0.11620  0.47260  1.0000 0.0711925673
C   C187      1.0  0.77390  0.12820  0.43080  1.0000 -0.2021526685
C   C188      1.0  0.64230  0.18260  0.47780  1.0000 0.1098152087
C   C189      1.0  0.59850  0.19410  0.53230  1.0000 -0.2101042528
C   C190      1.0  0.54070  0.25990  0.53820  1.0000 0.0711925673
C   C191      1.0  0.56640  0.30210  0.43880  1.0000 0.0600090107
C   C192      1.0  0.62360  0.23750  0.43010  1.0000 -0.2021526685
N   N1        1.0  0.62380  0.61950  0.08810  1.0000 -0.2308301516
N   N2        1.0  0.95470  0.99290  0.18360  1.0000 -0.2308301516
N   N3        1.0  0.98710  0.05380  0.14430  1.0000 -0.2806474966
N   N4        1.0  0.84990  0.05800  0.14010  1.0000 0.0600090107
N   N5        1.0  0.76790  0.07970  0.12080  1.0000 -0.5105272187
N   N6        1.0  0.68580  0.47510  0.00710  1.0000 -0.2443722831
N   N7        1.0  0.37620  0.38050  0.58810  1.0000 -0.2308301516
N   N8        1.0  0.04530  0.00710  0.68360  1.0000 -0.2308301516
N   N9        1.0  0.01290  0.94620  0.64430  1.0000 -0.2806474966
N   N10       1.0  0.15010  0.94200  0.64010  1.0000 0.0600090107
N   N11       1.0  0.23210  0.92030  0.62080  1.0000 -0.5105272187
N   N12       1.0  0.31420  0.52490  0.50710  1.0000 -0.2443722831
N   N13       1.0  0.88050  0.12380  0.83810  1.0000 -0.2308301516
N   N14       1.0  0.50710  0.45470  0.93360  1.0000 -0.2308301516
N   N15       1.0  0.44620  0.48710  0.89430  1.0000 -0.2806474966
N   N16       1.0  0.44200  0.34990  0.89010  1.0000 0.0600090107
N   N17       1.0  0.42030  0.26790  0.87080  1.0000 -0.5105272187
N   N18       1.0  0.02490  0.18580  0.75710  1.0000 -0.2443722831
N   N19       1.0  0.11950  0.87620  0.33810  1.0000 -0.2308301516
N   N20       1.0  0.49290  0.54530  0.43360  1.0000 -0.2308301516
N   N21       1.0  0.55380  0.51290  0.39430  1.0000 -0.2806474966
N   N22       1.0  0.55800  0.65010  0.39010  1.0000 0.0600090107
N   N23       1.0  0.57970  0.73210  0.37080  1.0000 -0.5105272187
N   N24       1.0  0.97510  0.81420  0.25710  1.0000 -0.2443722831
N   N25       1.0  0.87620  0.11950  0.66190  1.0000 -0.2308301516
N   N26       1.0  0.54530  0.49290  0.56640  1.0000 -0.2308301516
N   N27       1.0  0.51290  0.55380  0.60570  1.0000 -0.2806474966
N   N28       1.0  0.65010  0.55800  0.60990  1.0000 0.0600090107
N   N29       1.0  0.73210  0.57970  0.62920  1.0000 -0.5105272187
N   N30       1.0  0.81420  0.97510  0.74290  1.0000 -0.2443722831
N   N31       1.0  0.12380  0.88050  0.16190  1.0000 -0.2308301516
N   N32       1.0  0.45470  0.50710  0.06640  1.0000 -0.2308301516
N   N33       1.0  0.48710  0.44620  0.10570  1.0000 -0.2806474966
N   N34       1.0  0.34990  0.44200  0.10990  1.0000 0.0600090107
N   N35       1.0  0.26790  0.42030  0.12920  1.0000 -0.5105272187
N   N36       1.0  0.18580  0.02490  0.24290  1.0000 -0.2443722831
N   N37       1.0  0.61950  0.62380  0.91190  1.0000 -0.2308301516
N   N38       1.0  0.99290  0.95470  0.81640  1.0000 -0.2308301516
N   N39       1.0  0.05380  0.98710  0.85570  1.0000 -0.2806474966
N   N40       1.0  0.05800  0.84990  0.85990  1.0000 0.0600090107
N   N41       1.0  0.07970  0.76790  0.87920  1.0000 -0.5105272187
N   N42       1.0  0.47510  0.68580  0.99290  1.0000 -0.2443722831
N   N43       1.0  0.38050  0.37620  0.41190  1.0000 -0.2308301516
N   N44       1.0  0.00710  0.04530  0.31640  1.0000 -0.2308301516
N   N45       1.0  0.94620  0.01290  0.35570  1.0000 -0.2806474966
N   N46       1.0  0.94200  0.15010  0.35990  1.0000 0.0600090107
N   N47       1.0  0.92030  0.23210  0.37920  1.0000 -0.5105272187
N   N48       1.0  0.52490  0.31420  0.49290  1.0000 -0.2443722831
