# DDEC6 charges by PACMAN v1.1 (https://github.com/mtap-research/PACMAN-charge/)
data_2019[Pr][nan]3[FSR]2
_chemical_formula_sum              "Pr4 H20 C28 S2 N4 O28"
_cell_length_a       13.3341
_cell_length_b       13.3341
_cell_length_c       8.8782
_cell_angle_alpha    74.232
_cell_angle_beta     105.768
_cell_angle_gamma    116.318

_symmetry_space_group_name_H-M    "P 1"
_symmetry_Int_Tables_number       1

loop_
  _symmetry_equiv_pos_as_xyz
  'x, y, z'

loop_
  _atom_site_type_symbol
  _atom_site_label
  _atom_site_symmetry_multiplicity
  _atom_site_fract_x
  _atom_site_fract_y
  _atom_site_fract_z
  _atom_site_occupancy
  _atom_site_charge
Pr  Pr1       1.0  0.07006  0.80860  0.09749  1.0000 2.0014606963
Pr  Pr2       1.0  0.80860  0.07006  0.40251  1.0000 2.0014606963
Pr  Pr3       1.0  0.92994  0.19140  0.90251  1.0000 2.0014606963
Pr  Pr4       1.0  0.19140  0.92994  0.59749  1.0000 2.0014606963
H   H1        1.0  0.51697  0.01561  0.38527  1.0000 0.1103061705
H   H2        1.0  0.52394  0.18566  0.86425  1.0000 0.1515509809
H   H3        1.0  0.35568  0.11764  0.96303  1.0000 0.1515509809
H   H4        1.0  0.84400  0.60400  0.08000  1.0000 0.2872244666
H   H5        1.0  0.91700  0.70100  0.05200  1.0000 0.2332103873
H   H6        1.0  0.01561  0.51697  0.11473  1.0000 0.1103061705
H   H7        1.0  0.18566  0.52394  0.63575  1.0000 0.1515509809
H   H8        1.0  0.11764  0.35568  0.53697  1.0000 0.1515509809
H   H9        1.0  0.60400  0.84400  0.42000  1.0000 0.2872244666
H   H10       1.0  0.70100  0.91700  0.44800  1.0000 0.2332103873
H   H11       1.0  0.48303  0.98439  0.61473  1.0000 0.1103061705
H   H12       1.0  0.47606  0.81434  0.13575  1.0000 0.1515509809
H   H13       1.0  0.64432  0.88236  0.03697  1.0000 0.1515509809
H   H14       1.0  0.15600  0.39600  0.92000  1.0000 0.2872244666
H   H15       1.0  0.08300  0.29900  0.94800  1.0000 0.2332103873
H   H16       1.0  0.98439  0.48303  0.88527  1.0000 0.1103061705
H   H17       1.0  0.81434  0.47606  0.36425  1.0000 0.1515509809
H   H18       1.0  0.88236  0.64432  0.46303  1.0000 0.1515509809
H   H19       1.0  0.39600  0.15600  0.58000  1.0000 0.2872244666
H   H20       1.0  0.29900  0.08300  0.55200  1.0000 0.2332103873
C   C1        1.0  0.61219  0.13001  0.06769  1.0000 0.1263823609
C   C2        1.0  0.31198  0.01042  0.25678  1.0000 0.6328961502
C   C3        1.0  0.41833  0.05847  0.18653  1.0000 -0.0623942737
C   C4        1.0  0.51721  0.04759  0.27821  1.0000 0.0959766234
C   C5        1.0  0.71819  0.15721  0.00829  1.0000 0.5533066342
C   C6        1.0  0.51962  0.14818  0.96872  1.0000 -0.1293149342
C   C7        1.0  0.42013  0.10947  0.02833  1.0000 -0.0371880357
C   C8        1.0  0.13001  0.61219  0.43231  1.0000 0.1263823609
C   C9        1.0  0.01042  0.31198  0.24322  1.0000 0.6328961502
C   C10       1.0  0.05847  0.41833  0.31347  1.0000 -0.0623942737
C   C11       1.0  0.04759  0.51721  0.22179  1.0000 0.0959766234
C   C12       1.0  0.15721  0.71819  0.49171  1.0000 0.5533066342
C   C13       1.0  0.14818  0.51962  0.53128  1.0000 -0.1293149342
C   C14       1.0  0.10947  0.42013  0.47167  1.0000 -0.0371880357
C   C15       1.0  0.38781  0.86999  0.93231  1.0000 0.1263823609
C   C16       1.0  0.68802  0.98958  0.74322  1.0000 0.6328961502
C   C17       1.0  0.58167  0.94153  0.81347  1.0000 -0.0623942737
C   C18       1.0  0.48279  0.95241  0.72179  1.0000 0.0959766234
C   C19       1.0  0.28181  0.84279  0.99171  1.0000 0.5533066342
C   C20       1.0  0.48038  0.85182  0.03128  1.0000 -0.1293149342
C   C21       1.0  0.57987  0.89053  0.97167  1.0000 -0.0371880357
C   C22       1.0  0.86999  0.38781  0.56769  1.0000 0.1263823609
C   C23       1.0  0.98958  0.68802  0.75678  1.0000 0.6328961502
C   C24       1.0  0.94153  0.58167  0.68653  1.0000 -0.0623942737
C   C25       1.0  0.95241  0.48279  0.77821  1.0000 0.0959766234
C   C26       1.0  0.84279  0.28181  0.50829  1.0000 0.5533066342
C   C27       1.0  0.85182  0.48038  0.46872  1.0000 -0.1293149342
C   C28       1.0  0.89053  0.57987  0.52833  1.0000 -0.0371880357
S   S1        1.0  0.02138  0.02138  0.75000  1.0000 1.5610620926
S   S2        1.0  0.97862  0.97862  0.25000  1.0000 1.5610620926
N   N1        1.0  0.61170  0.08010  0.22230  1.0000 -0.3385300239
N   N2        1.0  0.08010  0.61170  0.27770  1.0000 -0.3385300239
N   N3        1.0  0.38830  0.91990  0.77770  1.0000 -0.3385300239
N   N4        1.0  0.91990  0.38830  0.72230  1.0000 -0.3385300239
O   O1        1.0  0.21899  0.98841  0.16039  1.0000 -0.6134966065
O   O2        1.0  0.79216  0.12610  0.10613  1.0000 -0.6561477234
O   O3        1.0  0.73017  0.20491  0.86903  1.0000 -0.5394697835
O   O4        1.0  0.99688  0.92320  0.87994  1.0000 -0.7416988661
O   O5        1.0  0.12474  0.04152  0.69641  1.0000 -0.7061607589
O   O6        1.0  0.32381  0.99589  0.40486  1.0000 -0.6325056007
O   O7        1.0  0.86673  0.66467  0.10623  1.0000 -0.6674898912
O   O8        1.0  0.98841  0.21899  0.33961  1.0000 -0.6134966065
O   O9        1.0  0.12610  0.79216  0.39387  1.0000 -0.6561477234
O   O10       1.0  0.20491  0.73017  0.63097  1.0000 -0.5394697835
O   O11       1.0  0.92320  0.99688  0.62006  1.0000 -0.7416988661
O   O12       1.0  0.04152  0.12474  0.80359  1.0000 -0.7061607589
O   O13       1.0  0.99589  0.32381  0.09514  1.0000 -0.6325056007
O   O14       1.0  0.66467  0.86673  0.39377  1.0000 -0.6674898912
O   O15       1.0  0.78101  0.01159  0.83961  1.0000 -0.6134966065
O   O16       1.0  0.20784  0.87390  0.89387  1.0000 -0.6561477234
O   O17       1.0  0.26983  0.79509  0.13097  1.0000 -0.5394697835
O   O18       1.0  0.00312  0.07680  0.12006  1.0000 -0.7416988661
O   O19       1.0  0.87526  0.95848  0.30359  1.0000 -0.7061607589
O   O20       1.0  0.67619  0.00411  0.59514  1.0000 -0.6325056007
O   O21       1.0  0.13327  0.33533  0.89377  1.0000 -0.6674898912
O   O22       1.0  0.01159  0.78101  0.66039  1.0000 -0.6134966065
O   O23       1.0  0.87390  0.20784  0.60613  1.0000 -0.6561477234
O   O24       1.0  0.79509  0.26983  0.36903  1.0000 -0.5394697835
O   O25       1.0  0.07680  0.00312  0.37994  1.0000 -0.7416988661
O   O26       1.0  0.95848  0.87526  0.19641  1.0000 -0.7061607589
O   O27       1.0  0.00411  0.67619  0.90486  1.0000 -0.6325056007
O   O28       1.0  0.33533  0.13327  0.60623  1.0000 -0.6674898912
