# DDEC6 charges by PACMAN v1.1 (https://github.com/mtap-research/PACMAN-charge/)
data_2019[Zn][lon]3[FSR]5
_chemical_formula_sum              "Zn2 H26 C20 N10 O8"
_cell_length_a       9.5727
_cell_length_b       9.023
_cell_length_c       11.7432
_cell_angle_alpha    90
_cell_angle_beta     113.377
_cell_angle_gamma    90

_symmetry_space_group_name_H-M    "P 1"
_symmetry_Int_Tables_number       1

loop_
  _symmetry_equiv_pos_as_xyz
  'x, y, z'

loop_
  _atom_site_type_symbol
  _atom_site_label
  _atom_site_symmetry_multiplicity
  _atom_site_fract_x
  _atom_site_fract_y
  _atom_site_fract_z
  _atom_site_occupancy
  _atom_site_charge
Zn  Zn1       1.0  0.20901  0.65881  0.07378  1.0000 0.7169111394
Zn  Zn2       1.0  0.79099  0.15881  0.92622  1.0000 0.7169111394
H   H1        1.0  0.40720  0.53480  0.25420  1.0000 0.2811453366
H   H2        1.0  0.26080  0.50720  0.26240  1.0000 0.2731578572
H   H3        1.0  0.60190  0.67750  0.93010  1.0000 0.2731578572
H   H4        1.0  0.47950  0.79140  0.56120  1.0000 0.2731578572
H   H5        1.0  0.92720  0.66890  0.15850  1.0000 0.1249371045
H   H6        1.0  0.68210  0.79610  0.15610  1.0000 0.1314831493
H   H7        1.0  0.68580  0.97280  0.14780  1.0000 0.1314831493
H   H8        1.0  0.53230  0.97390  0.93950  1.0000 0.097433413
H   H9        1.0  0.07890  0.97820  0.99610  1.0000 0.097433413
H   H10       1.0  0.44730  0.56360  0.70480  1.0000 0.1314831493
H   H11       1.0  0.61900  0.61650  0.73740  1.0000 0.1314831493
H   H12       1.0  0.44010  0.75100  0.34950  1.0000 0.139956499
H   H13       1.0  0.26930  0.74490  0.34110  1.0000 0.1249371045
H   H14       1.0  0.59280  0.03480  0.74580  1.0000 0.2811453366
H   H15       1.0  0.73920  0.00720  0.73760  1.0000 0.2731578572
H   H16       1.0  0.39810  0.17750  0.06990  1.0000 0.2731578572
H   H17       1.0  0.52050  0.29140  0.43880  1.0000 0.2731578572
H   H18       1.0  0.07280  0.16890  0.84150  1.0000 0.1249371045
H   H19       1.0  0.31790  0.29610  0.84390  1.0000 0.1314831493
H   H20       1.0  0.31420  0.47280  0.85220  1.0000 0.1314831493
H   H21       1.0  0.46770  0.47390  0.06050  1.0000 0.097433413
H   H22       1.0  0.92110  0.47820  0.00390  1.0000 0.097433413
H   H23       1.0  0.55270  0.06360  0.29520  1.0000 0.1314831493
H   H24       1.0  0.38100  0.11650  0.26260  1.0000 0.1314831493
H   H25       1.0  0.55990  0.25100  0.65050  1.0000 0.139956499
H   H26       1.0  0.73070  0.24490  0.65890  1.0000 0.1249371045
C   C1        1.0  0.40560  0.85460  0.01690  1.0000 0.5606649542
C   C2        1.0  0.83220  0.87100  0.08480  1.0000 0.1810725355
C   C3        1.0  0.93520  0.75780  0.11820  1.0000 -0.1499005384
C   C4        1.0  0.68610  0.87990  0.10300  1.0000 -0.2978418222
C   C5        1.0  0.41580  0.60890  0.47910  1.0000 0.4879198098
C   C6        1.0  0.48900  0.77780  0.77780  1.0000 0.4808863425
C   C7        1.0  0.54280  0.87600  0.98200  1.0000 0.0030756514
C   C8        1.0  0.01790  0.92630  0.02990  1.0000 0.139956499
C   C9        1.0  0.51130  0.64860  0.70210  1.0000 -0.2021815753
C   C10       1.0  0.35970  0.68380  0.35210  1.0000 -0.1899804599
C   C11       1.0  0.59440  0.35460  0.98310  1.0000 0.5606649542
C   C12       1.0  0.16780  0.37100  0.91520  1.0000 0.1810725355
C   C13       1.0  0.06480  0.25780  0.88180  1.0000 -0.1499005384
C   C14       1.0  0.31390  0.37990  0.89700  1.0000 -0.2978418222
C   C15       1.0  0.58420  0.10890  0.52090  1.0000 0.4879198098
C   C16       1.0  0.51100  0.27780  0.22220  1.0000 0.4808863425
C   C17       1.0  0.45720  0.37600  0.01800  1.0000 0.0030756514
C   C18       1.0  0.98210  0.42630  0.97010  1.0000 0.139956499
C   C19       1.0  0.48870  0.14860  0.29790  1.0000 -0.2021815753
C   C20       1.0  0.64030  0.18380  0.64790  1.0000 -0.1899804599
N   N1        1.0  0.88450  0.97930  0.02840  1.0000 -0.3703462309
N   N2        1.0  0.31990  0.57910  0.25000  1.0000 -0.4941855199
N   N3        1.0  0.55280  0.76020  0.89880  1.0000 -0.3490743912
N   N4        1.0  0.05400  0.79450  0.08350  1.0000 -0.3064980185
N   N5        1.0  0.46850  0.69710  0.57460  1.0000 -0.2978418222
N   N6        1.0  0.11550  0.47930  0.97160  1.0000 -0.3703462309
N   N7        1.0  0.68010  0.07910  0.75000  1.0000 -0.4941855199
N   N8        1.0  0.44720  0.26020  0.10120  1.0000 -0.3490743912
N   N9        1.0  0.94600  0.29450  0.91650  1.0000 -0.3064980185
N   N10       1.0  0.53150  0.19710  0.42540  1.0000 -0.2978418222
O   O1        1.0  0.36190  0.72080  0.01350  1.0000 -0.5331498957
O   O2        1.0  0.35200  0.96170  0.04970  1.0000 -0.5538591123
O   O3        1.0  0.40650  0.47230  0.48950  1.0000 -0.5357154286
O   O4        1.0  0.42040  0.89110  0.72490  1.0000 -0.5011611557
O   O5        1.0  0.63810  0.22080  0.98650  1.0000 -0.5331498957
O   O6        1.0  0.64800  0.46170  0.95030  1.0000 -0.5538591123
O   O7        1.0  0.59350  0.97230  0.51050  1.0000 -0.5357154286
O   O8        1.0  0.57960  0.39110  0.27510  1.0000 -0.5011611557
