# DDEC6 charges by PACMAN v1.1 (https://github.com/mtap-research/PACMAN-charge/)
data_2019[Co][nan]3[FSR]21
_chemical_formula_sum              "Co6 H6 C10 S2 O20"
_cell_length_a       12.8476
_cell_length_b       12.8476
_cell_length_c       7.1114
_cell_angle_alpha    83.7309
_cell_angle_beta     96.2691
_cell_angle_gamma    152.129

_symmetry_space_group_name_H-M    "P 1"
_symmetry_Int_Tables_number       1

loop_
  _symmetry_equiv_pos_as_xyz
  'x, y, z'

loop_
  _atom_site_type_symbol
  _atom_site_label
  _atom_site_symmetry_multiplicity
  _atom_site_fract_x
  _atom_site_fract_y
  _atom_site_fract_z
  _atom_site_occupancy
  _atom_site_charge
Co  Co1       1.0  0.90825  0.58957  0.51958  1.0000 1.0951838284
Co  Co2       1.0  0.58957  0.90825  0.48042  1.0000 1.0951838284
Co  Co3       1.0  0.09175  0.41043  0.48042  1.0000 1.0951838284
Co  Co4       1.0  0.41043  0.09175  0.51958  1.0000 1.0951838284
Co  Co5       1.0  0.72631  0.27369  0.19475  1.0000 1.1085778266
Co  Co6       1.0  0.27369  0.72631  0.80525  1.0000 1.1085778266
H   H1        1.0  0.83310  0.16690  0.24410  1.0000 0.3982993676
H   H2        1.0  0.52160  0.47840  0.32770  1.0000 0.1447196393
H   H3        1.0  0.16690  0.83310  0.75590  1.0000 0.3982993676
H   H4        1.0  0.47840  0.52160  0.67230  1.0000 0.1447196393
H   H5        1.0  0.09070  0.90930  0.26270  1.0000 0.3982993676
H   H6        1.0  0.90930  0.09070  0.73730  1.0000 0.3982993676
C   C1        1.0  0.51276  0.48724  0.19420  1.0000 -0.1186530278
C   C2        1.0  0.54115  0.45885  0.88110  1.0000 -0.0125485672
C   C3        1.0  0.61108  0.38892  0.16410  1.0000 0.5970612555
C   C4        1.0  0.55372  0.44628  0.07910  1.0000 -0.0526138586
C   C5        1.0  0.58409  0.41591  0.74700  1.0000 0.6218105643
C   C6        1.0  0.48724  0.51276  0.80580  1.0000 -0.1186530278
C   C7        1.0  0.45885  0.54115  0.11890  1.0000 -0.0125485672
C   C8        1.0  0.38892  0.61108  0.83590  1.0000 0.5970612555
C   C9        1.0  0.44628  0.55372  0.92090  1.0000 -0.0526138586
C   C10       1.0  0.41591  0.58409  0.25300  1.0000 0.6218105643
S   S1        1.0  0.23878  0.76122  0.25243  1.0000 1.3708480387
S   S2        1.0  0.76122  0.23878  0.74757  1.0000 1.3708480387
O   O1        1.0  0.00414  0.58726  0.30810  1.0000 -0.6973252208
O   O2        1.0  0.77971  0.58309  0.69220  1.0000 -0.5489343018
O   O3        1.0  0.58726  0.00414  0.69190  1.0000 -0.6973252208
O   O4        1.0  0.58309  0.77971  0.30780  1.0000 -0.5489343018
O   O5        1.0  0.99586  0.41274  0.69190  1.0000 -0.6973252208
O   O6        1.0  0.22029  0.41691  0.30780  1.0000 -0.5489343018
O   O7        1.0  0.41274  0.99586  0.30810  1.0000 -0.6973252208
O   O8        1.0  0.41691  0.22029  0.69220  1.0000 -0.5489343018
O   O9        1.0  0.61928  0.38072  0.34600  1.0000 -0.6174592287
O   O10       1.0  0.80873  0.19127  0.31810  1.0000 -0.8843076439
O   O11       1.0  0.64731  0.35269  0.05850  1.0000 -0.4937983663
O   O12       1.0  0.38072  0.61928  0.65400  1.0000 -0.6174592287
O   O13       1.0  0.19127  0.80873  0.68190  1.0000 -0.885453424
O   O14       1.0  0.35269  0.64731  0.94150  1.0000 -0.4937983663
O   O15       1.0  0.10526  0.89474  0.37680  1.0000 -0.8326172442
O   O16       1.0  0.29510  0.70490  0.36670  1.0000 -0.6895521195
O   O17       1.0  0.24183  0.75817  0.04320  1.0000 -0.6353417248
O   O18       1.0  0.89474  0.10526  0.62320  1.0000 -0.8326172442
O   O19       1.0  0.70490  0.29510  0.63330  1.0000 -0.6895521195
O   O20       1.0  0.75817  0.24183  0.95680  1.0000 -0.6353417248
