# DDEC6 charges by PACMAN v1.1 (https://github.com/mtap-research/PACMAN-charge/)
data_2019[Eu][sql]2[FSR]4
_chemical_formula_sum              "Eu8 H128 C72 O64"
_cell_length_a       8.7262
_cell_length_b       14.365
_cell_length_c       23.312
_cell_angle_alpha    90
_cell_angle_beta     90
_cell_angle_gamma    90

_symmetry_space_group_name_H-M    "P 1"
_symmetry_Int_Tables_number       1

loop_
  _symmetry_equiv_pos_as_xyz
  'x, y, z'

loop_
  _atom_site_type_symbol
  _atom_site_label
  _atom_site_symmetry_multiplicity
  _atom_site_fract_x
  _atom_site_fract_y
  _atom_site_fract_z
  _atom_site_occupancy
  _atom_site_charge
Eu  Eu1       1.0  0.27529  0.03420  0.30799  1.0000 1.9829138951
Eu  Eu2       1.0  0.22916  0.82230  0.18803  1.0000 2.0169932083
Eu  Eu3       1.0  0.22471  0.96580  0.80799  1.0000 1.9829138951
Eu  Eu4       1.0  0.27084  0.17770  0.68803  1.0000 2.0169932083
Eu  Eu5       1.0  0.72471  0.53420  0.19201  1.0000 1.9829138951
Eu  Eu6       1.0  0.77084  0.32230  0.31197  1.0000 2.0169932083
Eu  Eu7       1.0  0.77529  0.46580  0.69201  1.0000 1.9829138951
Eu  Eu8       1.0  0.72916  0.67770  0.81197  1.0000 2.0169932083
H   H1        1.0  0.01080  0.10567  0.25277  1.0000 0.3706445134
H   H2        1.0  0.07936  0.05028  0.21211  1.0000 0.3706445134
H   H3        1.0  0.21229  0.22553  0.31874  1.0000 0.3706445134
H   H4        1.0  0.34297  0.21836  0.35093  1.0000 0.3541237549
H   H5        1.0  0.26001  0.65215  0.13001  1.0000 0.3604829149
H   H6        1.0  0.12266  0.64450  0.15811  1.0000 0.3604829149
H   H7        1.0  0.40094  0.80209  0.28890  1.0000 0.402908145
H   H8        1.0  0.46948  0.71306  0.27130  1.0000 0.402908145
H   H9        1.0  0.75299  0.95997  0.39748  1.0000 0.108802178
H   H10       1.0  0.83479  0.93923  0.30791  1.0000 0.108802178
H   H11       1.0  0.74241  0.84643  0.30111  1.0000 0.108802178
H   H12       1.0  0.99310  0.85725  0.37897  1.0000 0.1451694952
H   H13       1.0  0.91488  0.76475  0.35745  1.0000 0.1406674717
H   H14       1.0  0.59374  0.86401  0.44691  1.0000 0.1275900132
H   H15       1.0  0.60767  0.78834  0.39873  1.0000 0.1214031738
H   H16       1.0  0.75163  0.81547  0.43532  1.0000 0.108802178
H   H17       1.0  0.91400  0.21223  0.53556  1.0000 0.0931667821
H   H18       1.0  0.04715  0.22254  0.44292  1.0000 0.1030001616
H   H19       1.0  0.19460  0.18904  0.47517  1.0000 0.1030001616
H   H20       1.0  0.07213  0.04572  0.49876  1.0000 0.1406674717
H   H21       1.0  0.92601  0.07936  0.46490  1.0000 0.1275900132
H   H22       1.0  0.97626  0.35817  0.49454  1.0000 0.1406674717
H   H23       1.0  0.98049  0.36353  0.56168  1.0000 0.1406674717
H   H24       1.0  0.13381  0.35716  0.52685  1.0000 0.1214031738
H   H25       1.0  0.50429  0.98413  0.12116  1.0000 0.108802178
H   H26       1.0  0.75810  0.01239  0.19699  1.0000 0.108802178
H   H27       1.0  0.67178  0.91701  0.19198  1.0000 0.108802178
H   H28       1.0  0.75526  0.89948  0.09602  1.0000 0.1406674717
H   H29       1.0  0.83605  0.99720  0.09887  1.0000 0.1406674717
H   H30       1.0  0.49648  0.14873  0.11218  1.0000 0.1275900132
H   H31       1.0  0.64751  0.10680  0.08651  1.0000 0.1214031738
H   H32       1.0  0.65019  0.15524  0.14676  1.0000 0.1275900132
H   H33       1.0  0.48920  0.89433  0.75277  1.0000 0.3706445134
H   H34       1.0  0.42064  0.94972  0.71211  1.0000 0.3706445134
H   H35       1.0  0.28771  0.77447  0.81874  1.0000 0.3706445134
H   H36       1.0  0.15703  0.78164  0.85093  1.0000 0.3541237549
H   H37       1.0  0.23999  0.34785  0.63001  1.0000 0.3604829149
H   H38       1.0  0.37734  0.35550  0.65811  1.0000 0.3604829149
H   H39       1.0  0.09906  0.19791  0.78890  1.0000 0.402908145
H   H40       1.0  0.03052  0.28694  0.77130  1.0000 0.402908145
H   H41       1.0  0.74701  0.04003  0.89748  1.0000 0.108802178
H   H42       1.0  0.66521  0.06077  0.80791  1.0000 0.108802178
H   H43       1.0  0.75759  0.15357  0.80111  1.0000 0.108802178
H   H44       1.0  0.50690  0.14275  0.87897  1.0000 0.1406674717
H   H45       1.0  0.58512  0.23525  0.85745  1.0000 0.1406674717
H   H46       1.0  0.90626  0.13599  0.94691  1.0000 0.1275900132
H   H47       1.0  0.89233  0.21166  0.89873  1.0000 0.1214031738
H   H48       1.0  0.74837  0.18453  0.93532  1.0000 0.108802178
H   H49       1.0  0.58600  0.78777  0.03556  1.0000 0.0931667821
H   H50       1.0  0.45285  0.77746  0.94292  1.0000 0.1030001616
H   H51       1.0  0.30540  0.81096  0.97517  1.0000 0.1030001616
H   H52       1.0  0.42787  0.95428  0.99876  1.0000 0.1406674717
H   H53       1.0  0.57399  0.92064  0.96490  1.0000 0.1275900132
H   H54       1.0  0.52374  0.64183  0.99454  1.0000 0.1406674717
H   H55       1.0  0.51951  0.63647  0.06168  1.0000 0.1406674717
H   H56       1.0  0.36619  0.64284  0.02685  1.0000 0.1214031738
H   H57       1.0  0.99571  0.01587  0.62116  1.0000 0.108802178
H   H58       1.0  0.74190  0.98761  0.69699  1.0000 0.108802178
H   H59       1.0  0.82822  0.08299  0.69198  1.0000 0.108802178
H   H60       1.0  0.74474  0.10052  0.59602  1.0000 0.1406674717
H   H61       1.0  0.66395  0.00280  0.59887  1.0000 0.1406674717
H   H62       1.0  0.00352  0.85127  0.61218  1.0000 0.1275900132
H   H63       1.0  0.85249  0.89320  0.58651  1.0000 0.1214031738
H   H64       1.0  0.84981  0.84476  0.64676  1.0000 0.1275900132
H   H65       1.0  0.98920  0.60567  0.24723  1.0000 0.3706445134
H   H66       1.0  0.92064  0.55028  0.28789  1.0000 0.3706445134
H   H67       1.0  0.78771  0.72553  0.18126  1.0000 0.3706445134
H   H68       1.0  0.65703  0.71836  0.14907  1.0000 0.3541237549
H   H69       1.0  0.73999  0.15215  0.36999  1.0000 0.3604829149
H   H70       1.0  0.87734  0.14450  0.34189  1.0000 0.3604829149
H   H71       1.0  0.59906  0.30209  0.21110  1.0000 0.402908145
H   H72       1.0  0.53052  0.21306  0.22870  1.0000 0.402908145
H   H73       1.0  0.24701  0.45997  0.10252  1.0000 0.108802178
H   H74       1.0  0.16521  0.43923  0.19209  1.0000 0.108802178
H   H75       1.0  0.25759  0.34643  0.19889  1.0000 0.108802178
H   H76       1.0  0.00690  0.35725  0.12103  1.0000 0.1451694952
H   H77       1.0  0.08512  0.26475  0.14255  1.0000 0.1406674717
H   H78       1.0  0.40626  0.36401  0.05309  1.0000 0.1275900132
H   H79       1.0  0.39233  0.28834  0.10127  1.0000 0.1214031738
H   H80       1.0  0.24837  0.31547  0.06468  1.0000 0.108802178
H   H81       1.0  0.08600  0.71223  0.96444  1.0000 0.0931667821
H   H82       1.0  0.95285  0.72254  0.05708  1.0000 0.1030001616
H   H83       1.0  0.80540  0.68904  0.02483  1.0000 0.108802178
H   H84       1.0  0.92787  0.54572  0.00124  1.0000 0.1406674717
H   H85       1.0  0.07399  0.57936  0.03510  1.0000 0.1275900132
H   H86       1.0  0.02374  0.85817  0.00546  1.0000 0.1406674717
H   H87       1.0  0.01951  0.86353  0.93832  1.0000 0.1406674717
H   H88       1.0  0.86619  0.85716  0.97315  1.0000 0.1214031738
H   H89       1.0  0.49571  0.48413  0.37884  1.0000 0.108802178
H   H90       1.0  0.24190  0.51239  0.30301  1.0000 0.108802178
H   H91       1.0  0.32822  0.41701  0.30802  1.0000 0.108802178
H   H92       1.0  0.24474  0.39948  0.40398  1.0000 0.1406674717
H   H93       1.0  0.16395  0.49720  0.40113  1.0000 0.1406674717
H   H94       1.0  0.50352  0.64873  0.38782  1.0000 0.1275900132
H   H95       1.0  0.35249  0.60680  0.41349  1.0000 0.1214031738
H   H96       1.0  0.34981  0.65524  0.35324  1.0000 0.1275900132
H   H97       1.0  0.51080  0.39433  0.74723  1.0000 0.3706445134
H   H98       1.0  0.57936  0.44972  0.78789  1.0000 0.3706445134
H   H99       1.0  0.71229  0.27447  0.68126  1.0000 0.3706445134
H   H100      1.0  0.84297  0.28164  0.64907  1.0000 0.3541237549
H   H101      1.0  0.76001  0.84785  0.86999  1.0000 0.3604829149
H   H102      1.0  0.62266  0.85550  0.84189  1.0000 0.3604829149
H   H103      1.0  0.90094  0.69791  0.71110  1.0000 0.402908145
H   H104      1.0  0.96948  0.78694  0.72870  1.0000 0.402908145
H   H105      1.0  0.25299  0.54003  0.60252  1.0000 0.108802178
H   H106      1.0  0.33479  0.56077  0.69209  1.0000 0.108802178
H   H107      1.0  0.24241  0.65357  0.69889  1.0000 0.108802178
H   H108      1.0  0.49310  0.64275  0.62103  1.0000 0.1451694952
H   H109      1.0  0.41488  0.73525  0.64255  1.0000 0.1406674717
H   H110      1.0  0.09374  0.63599  0.55309  1.0000 0.1275900132
H   H111      1.0  0.10767  0.71166  0.60127  1.0000 0.1214031738
H   H112      1.0  0.25163  0.68453  0.56468  1.0000 0.108802178
H   H113      1.0  0.41400  0.28777  0.46444  1.0000 0.0931667821
H   H114      1.0  0.54715  0.27746  0.55708  1.0000 0.1030001616
H   H115      1.0  0.69460  0.31096  0.52483  1.0000 0.1030001616
H   H116      1.0  0.57213  0.45428  0.50124  1.0000 0.1406674717
H   H117      1.0  0.42601  0.42064  0.53510  1.0000 0.1275900132
H   H118      1.0  0.47626  0.14183  0.50546  1.0000 0.1406674717
H   H119      1.0  0.48049  0.13647  0.43832  1.0000 0.1406674717
H   H120      1.0  0.63381  0.14284  0.47315  1.0000 0.1214031738
H   H121      1.0  0.00429  0.51587  0.87884  1.0000 0.108802178
H   H122      1.0  0.25810  0.48761  0.80301  1.0000 0.108802178
H   H123      1.0  0.17178  0.58299  0.80802  1.0000 0.108802178
H   H124      1.0  0.25526  0.60052  0.90398  1.0000 0.1406674717
H   H125      1.0  0.33605  0.50280  0.90113  1.0000 0.1406674717
H   H126      1.0  0.99648  0.35127  0.88782  1.0000 0.1275900132
H   H127      1.0  0.14751  0.39320  0.91349  1.0000 0.1214031738
H   H128      1.0  0.15019  0.34476  0.85324  1.0000 0.1275900132
C   C1        1.0  0.55550  0.95660  0.35260  1.0000 0.5863823728
C   C2        1.0  0.69820  0.91140  0.37620  1.0000 -0.0585173848
C   C3        1.0  0.80120  0.88370  0.32790  1.0000 -0.1458304184
C   C4        1.0  0.94370  0.82750  0.34650  1.0000 -0.3179480298
C   C5        1.0  0.04990  0.82520  0.29570  1.0000 0.6761472212
C   C6        1.0  0.65900  0.83800  0.41790  1.0000 -0.3983026948
C   C7        1.0  0.10280  0.19750  0.58410  1.0000 0.5534838872
C   C8        1.0  0.02200  0.23000  0.53180  1.0000 -0.0653967349
C   C9        1.0  0.08360  0.18580  0.47510  1.0000 -0.1423929683
C   C10       1.0  0.03700  0.08400  0.46720  1.0000 -0.3326065554
C   C11       1.0  0.10640  0.05340  0.41040  1.0000 0.6243695454
C   C12       1.0  0.02900  0.33740  0.52840  1.0000 -0.3983026948
C   C13       1.0  0.44910  0.03190  0.20140  1.0000 0.6273169355
C   C14       1.0  0.55480  0.02380  0.14960  1.0000 -0.0585173848
C   C15       1.0  0.70210  0.97230  0.17090  1.0000 -0.1458304184
C   C16       1.0  0.80810  0.94270  0.12110  1.0000 -0.3179480298
C   C17       1.0  0.95100  0.89830  0.14490  1.0000 0.6273169355
C   C18       1.0  0.59100  0.11740  0.12120  1.0000 -0.4061382128
C   C19       1.0  0.94450  0.04340  0.85260  1.0000 0.5863823728
C   C20       1.0  0.80180  0.08860  0.87620  1.0000 -0.0585173848
C   C21       1.0  0.69880  0.11630  0.82790  1.0000 -0.1458304184
C   C22       1.0  0.55630  0.17250  0.84650  1.0000 -0.3179480298
C   C23       1.0  0.45010  0.17480  0.79570  1.0000 0.6761472212
C   C24       1.0  0.84100  0.16200  0.91790  1.0000 -0.3947300477
C   C25       1.0  0.39720  0.80250  0.08410  1.0000 0.5534838872
C   C26       1.0  0.47800  0.77000  0.03180  1.0000 -0.0653967349
C   C27       1.0  0.41640  0.81420  0.97510  1.0000 -0.1423929683
C   C28       1.0  0.46300  0.91600  0.96720  1.0000 -0.3326065554
C   C29       1.0  0.39360  0.94660  0.91040  1.0000 0.6243695454
C   C30       1.0  0.47100  0.66260  0.02840  1.0000 -0.3983026948
C   C31       1.0  0.05090  0.96810  0.70140  1.0000 0.6273169355
C   C32       1.0  0.94520  0.97620  0.64960  1.0000 -0.0585173848
C   C33       1.0  0.79790  0.02770  0.67090  1.0000 -0.1458304184
C   C34       1.0  0.69190  0.05730  0.62110  1.0000 -0.3179480298
C   C35       1.0  0.54900  0.10170  0.64490  1.0000 0.6273169355
C   C36       1.0  0.90900  0.88260  0.62120  1.0000 -0.4061382128
C   C37       1.0  0.44450  0.45660  0.14740  1.0000 0.5863823728
C   C38       1.0  0.30180  0.41140  0.12380  1.0000 -0.0585173848
C   C39       1.0  0.19880  0.38370  0.17210  1.0000 -0.1458304184
C   C40       1.0  0.05630  0.32750  0.15350  1.0000 -0.3179480298
C   C41       1.0  0.95010  0.32520  0.20430  1.0000 0.6761472212
C   C42       1.0  0.34100  0.33800  0.08210  1.0000 -0.3983026948
C   C43       1.0  0.89720  0.69750  0.91590  1.0000 0.5534838872
C   C44       1.0  0.97800  0.73000  0.96820  1.0000 -0.0653967349
C   C45       1.0  0.91640  0.68580  0.02490  1.0000 -0.1423929683
C   C46       1.0  0.96300  0.58400  0.03280  1.0000 -0.3326065554
C   C47       1.0  0.89360  0.55340  0.08960  1.0000 0.6243695454
C   C48       1.0  0.97100  0.83740  0.97160  1.0000 -0.3983026948
C   C49       1.0  0.55090  0.53190  0.29860  1.0000 0.6273169355
C   C50       1.0  0.44520  0.52380  0.35040  1.0000 -0.0585173848
C   C51       1.0  0.29790  0.47230  0.32910  1.0000 -0.1458304184
C   C52       1.0  0.19190  0.44270  0.37890  1.0000 -0.3179480298
C   C53       1.0  0.04900  0.39830  0.35510  1.0000 0.6273169355
C   C54       1.0  0.40900  0.61740  0.37880  1.0000 -0.4061382128
C   C55       1.0  0.05550  0.54340  0.64740  1.0000 0.5863823728
C   C56       1.0  0.19820  0.58860  0.62380  1.0000 -0.0585173848
C   C57       1.0  0.30120  0.61630  0.67210  1.0000 -0.1458304184
C   C58       1.0  0.44370  0.67250  0.65350  1.0000 -0.3179480298
C   C59       1.0  0.54990  0.67480  0.70430  1.0000 0.6761472212
C   C60       1.0  0.15900  0.66200  0.58210  1.0000 -0.3983026948
C   C61       1.0  0.60280  0.30250  0.41590  1.0000 0.5534838872
C   C62       1.0  0.52200  0.27000  0.46820  1.0000 -0.0653967349
C   C63       1.0  0.58360  0.31420  0.52490  1.0000 -0.1423929683
C   C64       1.0  0.53700  0.41600  0.53280  1.0000 -0.3326065554
C   C65       1.0  0.60640  0.44660  0.58960  1.0000 0.6243695454
C   C66       1.0  0.52900  0.16260  0.47160  1.0000 -0.3983026948
C   C67       1.0  0.94910  0.46810  0.79860  1.0000 0.6273169355
C   C68       1.0  0.05480  0.47620  0.85040  1.0000 -0.0585173848
C   C69       1.0  0.20210  0.52770  0.82910  1.0000 -0.1458304184
C   C70       1.0  0.30810  0.55730  0.87890  1.0000 -0.3179480298
C   C71       1.0  0.45100  0.60170  0.85510  1.0000 0.6273169355
C   C72       1.0  0.09100  0.38260  0.87880  1.0000 -0.4061382128
O   O1        1.0  0.44680  0.90500  0.33440  1.0000 -0.6403516693
O   O2        1.0  0.10050  0.09340  0.23760  1.0000 -0.7856168313
O   O3        1.0  0.54010  0.04450  0.34840  1.0000 -0.6209483197
O   O4        1.0  0.28670  0.19470  0.33460  1.0000 -0.6725858016
O   O5        1.0  0.05720  0.75540  0.26270  1.0000 -0.6209483197
O   O6        1.0  0.21750  0.66180  0.16330  1.0000 -0.7701585157
O   O7        1.0  0.13670  0.89480  0.28390  1.0000 -0.7701585157
O   O8        1.0  0.40800  0.76920  0.25720  1.0000 -0.8303036554
O   O9        1.0  0.03730  0.20910  0.63320  1.0000 -0.6403516693
O   O10       1.0  0.23510  0.16250  0.58410  1.0000 -0.6209483197
O   O11       1.0  0.04070  0.06860  0.36290  1.0000 -0.6501212506
O   O12       1.0  0.23660  0.01530  0.41120  1.0000 -0.6209483197
O   O13       1.0  0.45090  0.10140  0.23280  1.0000 -0.5735863014
O   O14       1.0  0.36440  0.96180  0.21340  1.0000 -0.7501759394
O   O15       1.0  0.06090  0.95160  0.16130  1.0000 -0.6501212506
O   O16       1.0  0.96230  0.81300  0.14920  1.0000 -0.6084516211
O   O17       1.0  0.05320  0.09500  0.83440  1.0000 -0.6403516693
O   O18       1.0  0.39950  0.90660  0.73760  1.0000 -0.7856168313
O   O19       1.0  0.95990  0.95550  0.84840  1.0000 -0.6209483197
O   O20       1.0  0.21330  0.80530  0.83460  1.0000 -0.6725858016
O   O21       1.0  0.44280  0.24460  0.76270  1.0000 -0.6209483197
O   O22       1.0  0.28250  0.33820  0.66330  1.0000 -0.7701585157
O   O23       1.0  0.36330  0.10520  0.78390  1.0000 -0.7701585157
O   O24       1.0  0.09200  0.23080  0.75720  1.0000 -0.8303036554
O   O25       1.0  0.46270  0.79090  0.13320  1.0000 -0.6403516693
O   O26       1.0  0.26490  0.83750  0.08410  1.0000 -0.6209483197
O   O27       1.0  0.45930  0.93140  0.86290  1.0000 -0.6501212506
O   O28       1.0  0.26340  0.98470  0.91120  1.0000 -0.6209483197
O   O29       1.0  0.04910  0.89860  0.73280  1.0000 -0.5735863014
O   O30       1.0  0.13560  0.03820  0.71340  1.0000 -0.7501759394
O   O31       1.0  0.43910  0.04840  0.66130  1.0000 -0.6501212506
O   O32       1.0  0.53770  0.18700  0.64920  1.0000 -0.6084516211
O   O33       1.0  0.55320  0.40500  0.16560  1.0000 -0.6403516693
O   O34       1.0  0.89950  0.59340  0.26240  1.0000 -0.7856168313
O   O35       1.0  0.45990  0.54450  0.15160  1.0000 -0.6209483197
O   O36       1.0  0.71330  0.69470  0.16540  1.0000 -0.6725858016
O   O37       1.0  0.94280  0.25540  0.23730  1.0000 -0.6209483197
O   O38       1.0  0.78250  0.16180  0.33670  1.0000 -0.7701585157
O   O39       1.0  0.86330  0.39480  0.21610  1.0000 -0.7701585157
O   O40       1.0  0.59200  0.26920  0.24280  1.0000 -0.8303036554
O   O41       1.0  0.96270  0.70910  0.86680  1.0000 -0.6403516693
O   O42       1.0  0.76490  0.66250  0.91590  1.0000 -0.6209483197
O   O43       1.0  0.95930  0.56860  0.13710  1.0000 -0.6501212506
O   O44       1.0  0.76340  0.51530  0.08880  1.0000 -0.6209483197
O   O45       1.0  0.54910  0.60140  0.26720  1.0000 -0.5735863014
O   O46       1.0  0.63560  0.46180  0.28660  1.0000 -0.7501759394
O   O47       1.0  0.93910  0.45160  0.33870  1.0000 -0.6501212506
O   O48       1.0  0.03770  0.31300  0.35080  1.0000 -0.6084516211
O   O49       1.0  0.94680  0.59500  0.66560  1.0000 -0.6403516693
O   O50       1.0  0.60050  0.40660  0.76240  1.0000 -0.7856168313
O   O51       1.0  0.04010  0.45550  0.65160  1.0000 -0.6209483197
O   O52       1.0  0.78670  0.30530  0.66540  1.0000 -0.6725858016
O   O53       1.0  0.55720  0.74460  0.73730  1.0000 -0.6209483197
O   O54       1.0  0.71750  0.83820  0.83670  1.0000 -0.7701585157
O   O55       1.0  0.63670  0.60520  0.71610  1.0000 -0.7701585157
O   O56       1.0  0.90800  0.73080  0.74280  1.0000 -0.8303036554
O   O57       1.0  0.53730  0.29090  0.36680  1.0000 -0.6403516693
O   O58       1.0  0.73510  0.33750  0.41590  1.0000 -0.6209483197
O   O59       1.0  0.54070  0.43140  0.63710  1.0000 -0.6501212506
O   O60       1.0  0.73660  0.48470  0.58880  1.0000 -0.6209483197
O   O61       1.0  0.95090  0.39860  0.76720  1.0000 -0.5735863014
O   O62       1.0  0.86440  0.53820  0.78660  1.0000 -0.7501759394
O   O63       1.0  0.56090  0.54840  0.83870  1.0000 -0.6501212506
O   O64       1.0  0.46230  0.68700  0.85080  1.0000 -0.6084516211
