# DDEC6 charges by PACMAN v1.1 (https://github.com/mtap-research/PACMAN-charge/)
data_2019[V][nan]3[FSR]3
_chemical_formula_sum              "V4 H12 C32 O20"
_cell_length_a       12.2208
_cell_length_b       12.2208
_cell_length_c       12.2208
_cell_angle_alpha    103.852
_cell_angle_beta     103.852
_cell_angle_gamma    121.411

_symmetry_space_group_name_H-M    "P 1"
_symmetry_Int_Tables_number       1

loop_
  _symmetry_equiv_pos_as_xyz
  'x, y, z'

loop_
  _atom_site_type_symbol
  _atom_site_label
  _atom_site_symmetry_multiplicity
  _atom_site_fract_x
  _atom_site_fract_y
  _atom_site_fract_z
  _atom_site_occupancy
  _atom_site_charge
V   V1        1.0  0.44430  0.94430  0.88860  1.0000 1.8054596706
V   V2        1.0  0.05570  0.55570  0.11140  1.0000 1.8026948893
V   V3        1.0  0.19430  0.80570  0.00000  1.0000 1.8026948893
V   V4        1.0  0.80570  0.19430  0.00000  1.0000 1.8026948893
H   H1        1.0  0.88930  0.44700  0.69030  1.0000 0.1181321516
H   H2        1.0  0.75670  0.19900  0.30970  1.0000 0.1181321516
H   H3        1.0  0.69700  0.50670  0.05770  1.0000 0.1181321516
H   H4        1.0  0.44900  0.63930  0.94230  1.0000 0.1181321516
H   H5        1.0  0.36070  0.55100  0.05770  1.0000 0.1181321516
H   H6        1.0  0.49330  0.30300  0.94230  1.0000 0.1181321516
H   H7        1.0  0.55300  0.11070  0.30970  1.0000 0.1181321516
H   H8        1.0  0.80100  0.24330  0.69030  1.0000 0.1181321516
H   H9        1.0  0.13100  0.63100  0.50000  1.0000 0.1313491984
H   H10       1.0  0.88100  0.88100  0.00000  1.0000 0.1313491984
H   H11       1.0  0.11900  0.11900  0.00000  1.0000 0.1313491984
H   H12       1.0  0.36900  0.86900  0.50000  1.0000 0.1313491984
C   C1        1.0  0.13680  0.68280  0.72880  1.0000 0.6093616857
C   C2        1.0  0.02240  0.55560  0.60900  1.0000 -0.03874507
C   C3        1.0  0.90510  0.43830  0.60900  1.0000 -0.1411615946
C   C4        1.0  0.95400  0.40800  0.27120  1.0000 0.6093616857
C   C5        1.0  0.94660  0.41340  0.39100  1.0000 -0.03874507
C   C6        1.0  0.82930  0.29610  0.39100  1.0000 -0.1411615946
C   C7        1.0  0.93280  0.70400  0.04600  1.0000 0.6093616857
C   C8        1.0  0.80560  0.69660  0.03320  1.0000 -0.03874507
C   C9        1.0  0.68830  0.57930  0.03320  1.0000 -0.1411615946
C   C10       1.0  0.65800  0.88680  0.95400  1.0000 0.6093616857
C   C11       1.0  0.66340  0.77240  0.96680  1.0000 -0.03874507
C   C12       1.0  0.54610  0.65510  0.96680  1.0000 -0.1411615946
C   C13       1.0  0.11320  0.34200  0.04600  1.0000 0.6093616857
C   C14       1.0  0.22760  0.33660  0.03320  1.0000 -0.03874507
C   C15       1.0  0.34490  0.45390  0.03320  1.0000 -0.1411615946
C   C16       1.0  0.29600  0.06720  0.95400  1.0000 0.6093616857
C   C17       1.0  0.30340  0.19440  0.96680  1.0000 -0.03874507
C   C18       1.0  0.42070  0.31170  0.96680  1.0000 -0.1411615946
C   C19       1.0  0.31720  0.86320  0.27120  1.0000 0.6093616857
C   C20       1.0  0.44440  0.97760  0.39100  1.0000 -0.03874507
C   C21       1.0  0.56170  0.09490  0.39100  1.0000 -0.1411615946
C   C22       1.0  0.59200  0.04600  0.72880  1.0000 0.6093616857
C   C23       1.0  0.58660  0.05340  0.60900  1.0000 -0.03874507
C   C24       1.0  0.70390  0.17070  0.60900  1.0000 -0.1411615946
C   C25       1.0  0.04310  0.54310  0.50000  1.0000 -0.094835803
C   C26       1.0  0.80860  0.30860  0.50000  1.0000 0.0607515833
C   C27       1.0  0.79310  0.79310  0.00000  1.0000 -0.094835803
C   C28       1.0  0.55860  0.55860  0.00000  1.0000 0.0607515833
C   C29       1.0  0.20690  0.20690  0.00000  1.0000 -0.094835803
C   C30       1.0  0.44140  0.44140  0.00000  1.0000 0.0607515833
C   C31       1.0  0.45690  0.95690  0.50000  1.0000 -0.0951921121
C   C32       1.0  0.69140  0.19140  0.50000  1.0000 0.0607515833
O   O1        1.0  0.25680  0.75620  0.74080  1.0000 -0.5025948846
O   O2        1.0  0.10970  0.71270  0.81420  1.0000 -0.5200597421
O   O3        1.0  0.01540  0.51600  0.25920  1.0000 -0.5025948846
O   O4        1.0  0.89850  0.29550  0.18580  1.0000 -0.5200597421
O   O5        1.0  0.00620  0.76540  0.99940  1.0000 -0.5025948846
O   O6        1.0  0.96270  0.64850  0.10300  1.0000 -0.5200597421
O   O7        1.0  0.76600  0.00680  0.00060  1.0000 -0.5025948846
O   O8        1.0  0.54550  0.85970  0.89700  1.0000 -0.5200597421
O   O9        1.0  0.99320  0.23400  0.99940  1.0000 -0.5025948846
O   O10       1.0  0.14030  0.45450  0.10300  1.0000 -0.5200597421
O   O11       1.0  0.23460  0.99380  0.00060  1.0000 -0.5025948846
O   O12       1.0  0.35150  0.03730  0.89700  1.0000 -0.5200597421
O   O13       1.0  0.24380  0.74320  0.25920  1.0000 -0.5025948846
O   O14       1.0  0.28730  0.89030  0.18580  1.0000 -0.5200597421
O   O15       1.0  0.48400  0.98460  0.74080  1.0000 -0.5025948846
O   O16       1.0  0.70450  0.10150  0.81420  1.0000 -0.5200597421
O   O17       1.0  0.35350  0.87500  0.97850  1.0000 -0.9504270778
O   O18       1.0  0.89650  0.37500  0.02150  1.0000 -0.9504270778
O   O19       1.0  0.12500  0.64650  0.02150  1.0000 -0.9504270778
O   O20       1.0  0.62500  0.10350  0.97850  1.0000 -0.9504270778
