# DDEC6 charges by PACMAN v1.1 (https://github.com/mtap-research/PACMAN-charge/)
data_2019[Zn][nan]3[FSR]24
_chemical_formula_sum              "Zn8 H60 C56 N4 O32"
_cell_length_a       10.3267
_cell_length_b       12.9534
_cell_length_c       19.2093
_cell_angle_alpha    90
_cell_angle_beta     90
_cell_angle_gamma    90

_symmetry_space_group_name_H-M    "P 1"
_symmetry_Int_Tables_number       1

loop_
  _symmetry_equiv_pos_as_xyz
  'x, y, z'

loop_
  _atom_site_type_symbol
  _atom_site_label
  _atom_site_symmetry_multiplicity
  _atom_site_fract_x
  _atom_site_fract_y
  _atom_site_fract_z
  _atom_site_occupancy
  _atom_site_charge
Zn  Zn1       1.0  0.51445  0.38857  0.96003  1.0000 0.954105658
Zn  Zn2       1.0  0.82642  0.29773  0.96403  1.0000 0.9429701841
Zn  Zn3       1.0  0.98555  0.61143  0.46003  1.0000 0.954105658
Zn  Zn4       1.0  0.67358  0.70227  0.46403  1.0000 0.9429701841
Zn  Zn5       1.0  0.48555  0.88857  0.53997  1.0000 0.954105658
Zn  Zn6       1.0  0.17358  0.79773  0.53597  1.0000 0.9429701841
Zn  Zn7       1.0  0.01445  0.11143  0.03997  1.0000 0.954105658
Zn  Zn8       1.0  0.32642  0.20227  0.03597  1.0000 0.9429701841
H   H1        1.0  0.90143  0.37394  0.75904  1.0000 0.1305266996
H   H2        1.0  0.93854  0.43801  0.64740  1.0000 0.1305266996
H   H3        1.0  0.57438  0.55023  0.64118  1.0000 0.1305266996
H   H4        1.0  0.53552  0.48463  0.75142  1.0000 0.1222956604
H   H5        1.0  0.23636  0.43062  0.93904  1.0000 0.0943124644
H   H6        1.0  0.16893  0.34850  0.83572  1.0000 0.1388190533
H   H7        1.0  0.32363  0.35463  0.83839  1.0000 0.1388190533
H   H8        1.0  0.25160  0.24830  0.85572  1.0000 0.1388190533
H   H9        1.0  0.57443  0.60166  0.91055  1.0000 0.101805597
H   H10       1.0  0.28057  0.79250  0.90340  1.0000 0.1222956604
H   H11       1.0  0.24677  0.67473  0.92086  1.0000 0.1388190533
H   H12       1.0  0.32980  0.74194  0.97466  1.0000 0.1388190533
H   H13       1.0  0.43817  0.82075  0.83271  1.0000 0.1222956604
H   H14       1.0  0.57434  0.78864  0.86607  1.0000 0.1305266996
H   H15       1.0  0.51681  0.72462  0.80188  1.0000 0.1388190533
H   H16       1.0  0.59857  0.62606  0.25904  1.0000 0.1305266996
H   H17       1.0  0.56146  0.56199  0.14740  1.0000 0.1305266996
H   H18       1.0  0.92562  0.44977  0.14118  1.0000 0.1305266996
H   H19       1.0  0.96448  0.51537  0.25142  1.0000 0.1222956604
H   H20       1.0  0.26364  0.56938  0.43904  1.0000 0.0943124644
H   H21       1.0  0.33107  0.65150  0.33572  1.0000 0.1388190533
H   H22       1.0  0.17637  0.64537  0.33839  1.0000 0.1388190533
H   H23       1.0  0.24840  0.75170  0.35572  1.0000 0.1388190533
H   H24       1.0  0.92557  0.39834  0.41055  1.0000 0.101805597
H   H25       1.0  0.21943  0.20750  0.40340  1.0000 0.1222956604
H   H26       1.0  0.25323  0.32527  0.42086  1.0000 0.1388190533
H   H27       1.0  0.17020  0.25806  0.47466  1.0000 0.1388190533
H   H28       1.0  0.06183  0.17925  0.33271  1.0000 0.1222956604
H   H29       1.0  0.92566  0.21136  0.36607  1.0000 0.1305266996
H   H30       1.0  0.98319  0.27538  0.30188  1.0000 0.1388190533
H   H31       1.0  0.09857  0.87394  0.74096  1.0000 0.1305266996
H   H32       1.0  0.06146  0.93801  0.85260  1.0000 0.1305266996
H   H33       1.0  0.42562  0.05023  0.85882  1.0000 0.1305266996
H   H34       1.0  0.46448  0.98463  0.74858  1.0000 0.1222956604
H   H35       1.0  0.76364  0.93062  0.56096  1.0000 0.0943124644
H   H36       1.0  0.83107  0.84850  0.66428  1.0000 0.1388190533
H   H37       1.0  0.67637  0.85463  0.66161  1.0000 0.1388190533
H   H38       1.0  0.74840  0.74830  0.64428  1.0000 0.1388190533
H   H39       1.0  0.42557  0.10166  0.58945  1.0000 0.101805597
H   H40       1.0  0.71943  0.29250  0.59660  1.0000 0.1222956604
H   H41       1.0  0.75323  0.17473  0.57914  1.0000 0.1388190533
H   H42       1.0  0.67020  0.24194  0.52534  1.0000 0.1388190533
H   H43       1.0  0.56183  0.32075  0.66729  1.0000 0.1222956604
H   H44       1.0  0.42566  0.28864  0.63393  1.0000 0.1305266996
H   H45       1.0  0.48319  0.22462  0.69812  1.0000 0.1388190533
H   H46       1.0  0.40143  0.12606  0.24096  1.0000 0.1305266996
H   H47       1.0  0.43854  0.06199  0.35260  1.0000 0.1305266996
H   H48       1.0  0.07438  0.94977  0.35882  1.0000 0.1305266996
H   H49       1.0  0.03552  0.01537  0.24858  1.0000 0.1222956604
H   H50       1.0  0.73636  0.06938  0.06096  1.0000 0.0943124644
H   H51       1.0  0.66893  0.15150  0.16428  1.0000 0.1388190533
H   H52       1.0  0.82363  0.14537  0.16161  1.0000 0.1388190533
H   H53       1.0  0.75160  0.25170  0.14428  1.0000 0.1388190533
H   H54       1.0  0.07443  0.89834  0.08945  1.0000 0.101805597
H   H55       1.0  0.78057  0.70750  0.09660  1.0000 0.1222956604
H   H56       1.0  0.74677  0.82527  0.07914  1.0000 0.1388190533
H   H57       1.0  0.82980  0.75806  0.02534  1.0000 0.1388190533
H   H58       1.0  0.93817  0.67925  0.16729  1.0000 0.1222956604
H   H59       1.0  0.07434  0.71136  0.13393  1.0000 0.1305266996
H   H60       1.0  0.01681  0.77538  0.19812  1.0000 0.1388190533
C   C1        1.0  0.69330  0.38890  0.83980  1.0000 0.577891869
C   C2        1.0  0.71490  0.42560  0.76710  1.0000 -0.0387758101
C   C3        1.0  0.83490  0.41040  0.73530  1.0000 -0.1091576018
C   C4        1.0  0.85670  0.44880  0.66870  1.0000 -0.104347969
C   C5        1.0  0.76310  0.50190  0.63320  1.0000 -0.0387758101
C   C6        1.0  0.64140  0.51470  0.66520  1.0000 -0.1091576018
C   C7        1.0  0.61850  0.47620  0.73080  1.0000 -0.1278974065
C   C8        1.0  0.79140  0.54450  0.56300  1.0000 0.5747501678
C   C9        1.0  0.11640  0.30850  0.96870  1.0000 0.577891869
C   C10       1.0  0.24030  0.35360  0.93570  1.0000 0.1135816402
C   C11       1.0  0.24670  0.32360  0.85970  1.0000 -0.4691363298
C   C12       1.0  0.48370  0.60970  0.91660  1.0000 0.2663509872
C   C13       1.0  0.31200  0.72900  0.92530  1.0000 -0.3267917359
C   C14       1.0  0.49500  0.76260  0.84440  1.0000 -0.3456403636
C   C15       1.0  0.80670  0.61110  0.33980  1.0000 0.577891869
C   C16       1.0  0.78510  0.57440  0.26710  1.0000 -0.0387758101
C   C17       1.0  0.66510  0.58960  0.23530  1.0000 -0.1091576018
C   C18       1.0  0.64330  0.55120  0.16870  1.0000 -0.1091576018
C   C19       1.0  0.73690  0.49810  0.13320  1.0000 -0.0387758101
C   C20       1.0  0.85860  0.48530  0.16520  1.0000 -0.1091576018
C   C21       1.0  0.88150  0.52380  0.23080  1.0000 -0.1278974065
C   C22       1.0  0.70860  0.45550  0.06300  1.0000 0.5747501678
C   C23       1.0  0.38360  0.69150  0.46870  1.0000 0.577891869
C   C24       1.0  0.25970  0.64640  0.43570  1.0000 0.1135816402
C   C25       1.0  0.25330  0.67640  0.35970  1.0000 -0.4691363298
C   C26       1.0  0.01630  0.39030  0.41660  1.0000 0.2663509872
C   C27       1.0  0.18800  0.27100  0.42530  1.0000 -0.3267917359
C   C28       1.0  0.00500  0.23740  0.34440  1.0000 -0.3456403636
C   C29       1.0  0.30670  0.88890  0.66020  1.0000 0.577891869
C   C30       1.0  0.28510  0.92560  0.73290  1.0000 -0.0387758101
C   C31       1.0  0.16510  0.91040  0.76470  1.0000 -0.1091576018
C   C32       1.0  0.14330  0.94880  0.83130  1.0000 -0.1091576018
C   C33       1.0  0.23690  0.00190  0.86680  1.0000 -0.0387758101
C   C34       1.0  0.35860  0.01470  0.83480  1.0000 -0.1091576018
C   C35       1.0  0.38150  0.97620  0.76920  1.0000 -0.1278974065
C   C36       1.0  0.20860  0.04450  0.93700  1.0000 0.5747501678
C   C37       1.0  0.88360  0.80850  0.53130  1.0000 0.577891869
C   C38       1.0  0.75970  0.85360  0.56430  1.0000 0.1135816402
C   C39       1.0  0.75330  0.82360  0.64030  1.0000 -0.4691363298
C   C40       1.0  0.51630  0.10970  0.58340  1.0000 0.2663509872
C   C41       1.0  0.68800  0.22900  0.57470  1.0000 -0.3267917359
C   C42       1.0  0.50500  0.26260  0.65560  1.0000 -0.3456403636
C   C43       1.0  0.19330  0.11110  0.16020  1.0000 0.577891869
C   C44       1.0  0.21490  0.07440  0.23290  1.0000 -0.0387758101
C   C45       1.0  0.33490  0.08960  0.26470  1.0000 -0.1091576018
C   C46       1.0  0.35670  0.05120  0.33130  1.0000 -0.1091576018
C   C47       1.0  0.26310  0.99810  0.36680  1.0000 -0.0387758101
C   C48       1.0  0.14140  0.98530  0.33480  1.0000 -0.1091576018
C   C49       1.0  0.11850  0.02380  0.26920  1.0000 -0.1278974065
C   C50       1.0  0.29140  0.95550  0.43700  1.0000 0.5747501678
C   C51       1.0  0.61640  0.19150  0.03130  1.0000 0.577891869
C   C52       1.0  0.74030  0.14640  0.06430  1.0000 0.1135816402
C   C53       1.0  0.74670  0.17640  0.14030  1.0000 -0.4691363298
C   C54       1.0  0.98370  0.89030  0.08340  1.0000 0.2648446387
C   C55       1.0  0.81200  0.77100  0.07470  1.0000 -0.3267917359
C   C56       1.0  0.99500  0.73740  0.15560  1.0000 -0.3456403636
N   N1        1.0  0.43070  0.69630  0.89110  1.0000 0.035364253
N   N2        1.0  0.06930  0.30370  0.39110  1.0000 0.0349260769
N   N3        1.0  0.56930  0.19630  0.60890  1.0000 0.035364253
N   N4        1.0  0.93070  0.80370  0.10890  1.0000 0.0349260769
O   O1        1.0  0.78620  0.34510  0.86910  1.0000 -0.529456588
O   O2        1.0  0.58510  0.40860  0.86650  1.0000 -0.5683213645
O   O3        1.0  0.90760  0.55530  0.54630  1.0000 -0.529456588
O   O4        1.0  0.69770  0.57360  0.52560  1.0000 -0.5536984824
O   O5        1.0  0.12920  0.24510  0.01820  1.0000 -0.5683213645
O   O6        1.0  0.01390  0.33360  0.94160  1.0000 -0.4768220359
O   O7        1.0  0.35090  0.31890  0.97190  1.0000 -0.6113151186
O   O8        1.0  0.42470  0.53720  0.94820  1.0000 -0.4496577182
O   O9        1.0  0.71380  0.65490  0.36910  1.0000 -0.529456588
O   O10       1.0  0.91490  0.59140  0.36650  1.0000 -0.5683213645
O   O11       1.0  0.59240  0.44470  0.04630  1.0000 -0.529456588
O   O12       1.0  0.80230  0.42640  0.02560  1.0000 -0.5536984824
O   O13       1.0  0.37080  0.75490  0.51820  1.0000 -0.5683213645
O   O14       1.0  0.48610  0.66640  0.44160  1.0000 -0.4768220359
O   O15       1.0  0.14910  0.68110  0.47190  1.0000 -0.6113151186
O   O16       1.0  0.07530  0.46280  0.44820  1.0000 -0.4496577182
O   O17       1.0  0.21380  0.84510  0.63090  1.0000 -0.529456588
O   O18       1.0  0.41490  0.90860  0.63350  1.0000 -0.5683213645
O   O19       1.0  0.09240  0.05530  0.95370  1.0000 -0.529456588
O   O20       1.0  0.30230  0.07360  0.97440  1.0000 -0.5536984824
O   O21       1.0  0.87080  0.74510  0.48180  1.0000 -0.5683213645
O   O22       1.0  0.98610  0.83360  0.55840  1.0000 -0.4768220359
O   O23       1.0  0.64910  0.81890  0.52810  1.0000 -0.6113151186
O   O24       1.0  0.57530  0.03720  0.55180  1.0000 -0.4496577182
O   O25       1.0  0.28620  0.15490  0.13090  1.0000 -0.529456588
O   O26       1.0  0.08510  0.09140  0.13350  1.0000 -0.5683213645
O   O27       1.0  0.40760  0.94470  0.45370  1.0000 -0.529456588
O   O28       1.0  0.19770  0.92640  0.47440  1.0000 -0.5536984824
O   O29       1.0  0.62920  0.25490  0.98180  1.0000 -0.5683213645
O   O30       1.0  0.51390  0.16640  0.05840  1.0000 -0.4768220359
O   O31       1.0  0.85090  0.18110  0.02810  1.0000 -0.6113151186
O   O32       1.0  0.92470  0.96280  0.05180  1.0000 -0.4496577182
