# DDEC6 charges by PACMAN v1.1 (https://github.com/mtap-research/PACMAN-charge/)
data_2019[Cd][hcb]2[FSR]6
_chemical_formula_sum              "Cd4 H36 C40 I4 N12 O12"
_cell_length_a       11.7101
_cell_length_b       11.7101
_cell_length_c       14.759
_cell_angle_alpha    78.9692
_cell_angle_beta     101.031
_cell_angle_gamma    94.4711

_symmetry_space_group_name_H-M    "P 1"
_symmetry_Int_Tables_number       1

loop_
  _symmetry_equiv_pos_as_xyz
  'x, y, z'

loop_
  _atom_site_type_symbol
  _atom_site_label
  _atom_site_symmetry_multiplicity
  _atom_site_fract_x
  _atom_site_fract_y
  _atom_site_fract_z
  _atom_site_occupancy
  _atom_site_charge
Cd  Cd1       1.0  0.26999  0.10911  0.05660  1.0000 0.7512928035
Cd  Cd2       1.0  0.10911  0.26999  0.44340  1.0000 0.7512928035
Cd  Cd3       1.0  0.73001  0.89089  0.94340  1.0000 0.7512928035
Cd  Cd4       1.0  0.89089  0.73001  0.55660  1.0000 0.7512928035
H   H1        1.0  0.07942  0.89514  0.08151  1.0000 0.1203593995
H   H2        1.0  0.97942  0.78318  0.18751  1.0000 0.1266221657
H   H3        1.0  0.25712  0.05648  0.27238  1.0000 0.1119831662
H   H4        1.0  0.16120  0.94854  0.38498  1.0000 0.1406070377
H   H5        1.0  0.94508  0.36158  0.90523  1.0000 0.1119831662
H   H6        1.0  0.16187  0.47885  0.11625  1.0000 0.1266221657
H   H7        1.0  0.87721  0.72697  0.28533  1.0000 0.2505641069
H   H8        1.0  0.76053  0.67525  0.38978  1.0000 0.267303371
H   H9        1.0  0.84943  0.59071  0.41857  1.0000 0.2612419064
H   H10       1.0  0.89514  0.07942  0.41849  1.0000 0.1203593995
H   H11       1.0  0.78318  0.97942  0.31249  1.0000 0.1266221657
H   H12       1.0  0.05648  0.25712  0.22762  1.0000 0.1119831662
H   H13       1.0  0.94854  0.16120  0.11502  1.0000 0.1406070377
H   H14       1.0  0.36158  0.94508  0.59477  1.0000 0.1119831662
H   H15       1.0  0.47885  0.16187  0.38375  1.0000 0.1266221657
H   H16       1.0  0.72697  0.87721  0.21467  1.0000 0.2505641069
H   H17       1.0  0.67525  0.76053  0.11022  1.0000 0.267303371
H   H18       1.0  0.59071  0.84943  0.08143  1.0000 0.2612419064
H   H19       1.0  0.92058  0.10486  0.91849  1.0000 0.1203593995
H   H20       1.0  0.02058  0.21682  0.81249  1.0000 0.1266221657
H   H21       1.0  0.74288  0.94352  0.72762  1.0000 0.1119831662
H   H22       1.0  0.83880  0.05146  0.61502  1.0000 0.1406070377
H   H23       1.0  0.05492  0.63842  0.09477  1.0000 0.1119831662
H   H24       1.0  0.83813  0.52115  0.88375  1.0000 0.1266221657
H   H25       1.0  0.12279  0.27303  0.71467  1.0000 0.2505641069
H   H26       1.0  0.23947  0.32475  0.61022  1.0000 0.267303371
H   H27       1.0  0.15057  0.40929  0.58143  1.0000 0.2612419064
H   H28       1.0  0.10486  0.92058  0.58151  1.0000 0.1203593995
H   H29       1.0  0.21682  0.02058  0.68751  1.0000 0.1266221657
H   H30       1.0  0.94352  0.74288  0.77238  1.0000 0.1119831662
H   H31       1.0  0.05146  0.83880  0.88498  1.0000 0.1406070377
H   H32       1.0  0.63842  0.05492  0.40523  1.0000 0.1119831662
H   H33       1.0  0.52115  0.83813  0.61625  1.0000 0.1266221657
H   H34       1.0  0.27303  0.12279  0.78533  1.0000 0.2505641069
H   H35       1.0  0.32475  0.23947  0.88978  1.0000 0.267303371
H   H36       1.0  0.40929  0.15057  0.91857  1.0000 0.2612419064
C   C1        1.0  0.13600  0.29360  0.03110  1.0000 0.5191276457
C   C2        1.0  0.09580  0.90620  0.14350  1.0000 0.1011861052
C   C3        1.0  0.03560  0.83860  0.20650  1.0000 -0.1886427168
C   C4        1.0  0.20000  0.00100  0.25520  1.0000 0.080058477
C   C5        1.0  0.14280  0.93600  0.32340  1.0000 -0.1360757862
C   C6        1.0  0.05990  0.85390  0.29970  1.0000 0.0286054966
C   C7        1.0  0.96670  0.41670  0.94380  1.0000 -0.1026599881
C   C8        1.0  0.09570  0.48670  0.06960  1.0000 -0.1026599881
C   C9        1.0  0.06580  0.40020  0.01740  1.0000 -0.023240351
C   C10       1.0  0.99310  0.79170  0.37240  1.0000 0.415590265
C   C11       1.0  0.29360  0.13600  0.46890  1.0000 0.5191276457
C   C12       1.0  0.90620  0.09580  0.35650  1.0000 0.1011861052
C   C13       1.0  0.83860  0.03560  0.29350  1.0000 -0.1886427168
C   C14       1.0  0.00100  0.20000  0.24480  1.0000 0.080058477
C   C15       1.0  0.93600  0.14280  0.17660  1.0000 -0.1360757862
C   C16       1.0  0.85390  0.05990  0.20030  1.0000 0.0286054966
C   C17       1.0  0.41670  0.96670  0.55620  1.0000 -0.1026599881
C   C18       1.0  0.48670  0.09570  0.43040  1.0000 -0.1026599881
C   C19       1.0  0.40020  0.06580  0.48260  1.0000 -0.023240351
C   C20       1.0  0.79170  0.99310  0.12760  1.0000 0.415590265
C   C21       1.0  0.86400  0.70640  0.96890  1.0000 0.5191276457
C   C22       1.0  0.90420  0.09380  0.85650  1.0000 0.1011861052
C   C23       1.0  0.96440  0.16140  0.79350  1.0000 -0.1886427168
C   C24       1.0  0.80000  0.99900  0.74480  1.0000 0.080058477
C   C25       1.0  0.85720  0.06400  0.67660  1.0000 -0.1360757862
C   C26       1.0  0.94010  0.14610  0.70030  1.0000 0.0286054966
C   C27       1.0  0.03330  0.58330  0.05620  1.0000 -0.1026599881
C   C28       1.0  0.90430  0.51330  0.93040  1.0000 -0.1026599881
C   C29       1.0  0.93420  0.59980  0.98260  1.0000 -0.023240351
C   C30       1.0  0.00690  0.20830  0.62760  1.0000 0.415590265
C   C31       1.0  0.70640  0.86400  0.53110  1.0000 0.5191276457
C   C32       1.0  0.09380  0.90420  0.64350  1.0000 0.1011861052
C   C33       1.0  0.16140  0.96440  0.70650  1.0000 -0.1886427168
C   C34       1.0  0.99900  0.80000  0.75520  1.0000 0.080058477
C   C35       1.0  0.06400  0.85720  0.82340  1.0000 -0.1360757862
C   C36       1.0  0.14610  0.94010  0.79970  1.0000 0.0286054966
C   C37       1.0  0.58330  0.03330  0.44380  1.0000 -0.1026599881
C   C38       1.0  0.51330  0.90430  0.56960  1.0000 -0.1026599881
C   C39       1.0  0.59980  0.93420  0.51740  1.0000 -0.023240351
C   C40       1.0  0.20830  0.00690  0.87240  1.0000 0.415590265
I   I1        1.0  0.49500  0.08420  0.15273  1.0000 -0.5137715314
I   I2        1.0  0.08420  0.49500  0.34727  1.0000 -0.5137715314
I   I3        1.0  0.50500  0.91580  0.84727  1.0000 -0.5137715314
I   I4        1.0  0.91580  0.50500  0.65273  1.0000 -0.5137715314
N   N1        1.0  0.17610  0.98670  0.16640  1.0000 -0.2170315449
N   N2        1.0  0.89950  0.72930  0.34400  1.0000 -0.2335854944
N   N3        1.0  0.83630  0.66610  0.41070  1.0000 -0.3988462899
N   N4        1.0  0.98670  0.17610  0.33360  1.0000 -0.2170315449
N   N5        1.0  0.72930  0.89950  0.15600  1.0000 -0.2335854944
N   N6        1.0  0.66610  0.83630  0.08930  1.0000 -0.3988462899
N   N7        1.0  0.82390  0.01330  0.83360  1.0000 -0.2170315449
N   N8        1.0  0.10050  0.27070  0.65600  1.0000 -0.2335854944
N   N9        1.0  0.16370  0.33390  0.58930  1.0000 -0.3988462899
N   N10       1.0  0.01330  0.82390  0.66640  1.0000 -0.2170315449
N   N11       1.0  0.27070  0.10050  0.84400  1.0000 -0.2335854944
N   N12       1.0  0.33390  0.16370  0.91070  1.0000 -0.3988462899
O   O1        1.0  0.22710  0.28810  0.09020  1.0000 -0.515701196
O   O2        1.0  0.09760  0.21260  0.98900  1.0000 -0.5397829924
O   O3        1.0  0.02640  0.80100  0.45540  1.0000 -0.4416318153
O   O4        1.0  0.28810  0.22710  0.40980  1.0000 -0.5137715314
O   O5        1.0  0.21260  0.09760  0.51100  1.0000 -0.5397829924
O   O6        1.0  0.80100  0.02640  0.04460  1.0000 -0.4416318153
O   O7        1.0  0.77290  0.71190  0.90980  1.0000 -0.515701196
O   O8        1.0  0.90240  0.78740  0.01100  1.0000 -0.5397829924
O   O9        1.0  0.97360  0.19900  0.54460  1.0000 -0.4416318153
O   O10       1.0  0.71190  0.77290  0.59020  1.0000 -0.515701196
O   O11       1.0  0.78740  0.90240  0.48900  1.0000 -0.5397829924
O   O12       1.0  0.19900  0.97360  0.95540  1.0000 -0.4416318153
