# DDEC6 charges by PACMAN v1.1 (https://github.com/mtap-research/PACMAN-charge/)
data_2019[Zn][hcb]2[FSR]4
_chemical_formula_sum              "Zn4 H64 C56 N12 O20"
_cell_length_a       11.436
_cell_length_b       13.248
_cell_length_c       14.106
_cell_angle_alpha    70.841
_cell_angle_beta     81.958
_cell_angle_gamma    70.234

_symmetry_space_group_name_H-M    "P 1"
_symmetry_Int_Tables_number       1

loop_
  _symmetry_equiv_pos_as_xyz
  'x, y, z'

loop_
  _atom_site_type_symbol
  _atom_site_label
  _atom_site_symmetry_multiplicity
  _atom_site_fract_x
  _atom_site_fract_y
  _atom_site_fract_z
  _atom_site_occupancy
  _atom_site_charge
Zn  Zn1       1.0  0.56776  0.84209  0.31152  1.0000 0.7802378569
Zn  Zn2       1.0  0.05444  0.81477  0.75788  1.0000 0.7744417224
Zn  Zn3       1.0  0.43224  0.15791  0.68848  1.0000 0.7802378569
Zn  Zn4       1.0  0.94556  0.18523  0.24212  1.0000 0.7744417224
H   H1        1.0  0.00030  0.17817  0.72100  1.0000 0.3380937311
H   H2        1.0  0.13386  0.14525  0.75183  1.0000 0.3307266343
H   H3        1.0  0.35857  0.21644  0.19800  1.0000 0.3380937311
H   H4        1.0  0.24231  0.18846  0.18978  1.0000 0.3307266343
H   H5        1.0  0.90076  0.83729  0.08857  1.0000 0.122322477
H   H6        1.0  0.71921  0.84136  0.97485  1.0000 0.122322477
H   H7        1.0  0.76152  0.75771  0.63665  1.0000 0.122322477
H   H8        1.0  0.89815  0.78853  0.45628  1.0000 0.122322477
H   H9        1.0  0.22791  0.92318  0.84396  1.0000 0.1471011076
H   H10       1.0  0.28367  0.97354  0.73453  1.0000 0.1394301873
H   H11       1.0  0.40054  0.72159  0.80913  1.0000 0.122322477
H   H12       1.0  0.29394  0.74809  0.89224  1.0000 0.1315942551
H   H13       1.0  0.44556  0.51289  0.88760  1.0000 0.1315942551
H   H14       1.0  0.38152  0.35644  0.90657  1.0000 0.122322477
H   H15       1.0  0.18056  0.38560  0.85884  1.0000 0.1315942551
H   H16       1.0  0.05004  0.56697  0.79880  1.0000 0.1113285592
H   H17       1.0  0.38712  0.83362  0.65208  1.0000 0.1113285592
H   H18       1.0  0.30544  0.76468  0.63466  1.0000 0.0962234322
H   H19       1.0  0.15514  0.93126  0.55327  1.0000 0.1113285592
H   H20       1.0  0.22439  0.00508  0.57931  1.0000 0.0962234322
H   H21       1.0  0.40118  0.92938  0.47468  1.0000 0.1113285592
H   H22       1.0  0.28077  0.01660  0.41444  1.0000 0.0962234322
H   H23       1.0  0.22251  0.85899  0.41209  1.0000 0.1113285592
H   H24       1.0  0.35210  0.77759  0.46127  1.0000 0.0962234322
H   H25       1.0  0.31362  0.96957  0.17568  1.0000 0.1471011076
H   H26       1.0  0.22517  0.00693  0.26494  1.0000 0.1394301873
H   H27       1.0  0.27983  0.76492  0.29517  1.0000 0.122322477
H   H28       1.0  0.37446  0.79588  0.20359  1.0000 0.1315942551
H   H29       1.0  0.36560  0.55736  0.33468  1.0000 0.1394301873
H   H30       1.0  0.53040  0.39335  0.39729  1.0000 0.122322477
H   H31       1.0  0.73997  0.58645  0.38812  1.0000 0.1113285592
H   H32       1.0  0.72077  0.40925  0.42396  1.0000 0.1394301873
H   H33       1.0  0.99970  0.82183  0.27900  1.0000 0.3380937311
H   H34       1.0  0.86614  0.85475  0.24817  1.0000 0.3307266343
H   H35       1.0  0.64143  0.78356  0.80200  1.0000 0.3380937311
H   H36       1.0  0.75769  0.81154  0.81022  1.0000 0.3307266343
H   H37       1.0  0.09924  0.16271  0.91143  1.0000 0.122322477
H   H38       1.0  0.28079  0.15864  0.02515  1.0000 0.122322477
H   H39       1.0  0.23848  0.24229  0.36335  1.0000 0.122322477
H   H40       1.0  0.10185  0.21147  0.54372  1.0000 0.122322477
H   H41       1.0  0.77209  0.07682  0.15604  1.0000 0.1471011076
H   H42       1.0  0.71633  0.02646  0.26547  1.0000 0.1394301873
H   H43       1.0  0.59946  0.27841  0.19087  1.0000 0.122322477
H   H44       1.0  0.70606  0.25191  0.10776  1.0000 0.1315942551
H   H45       1.0  0.55444  0.48711  0.11240  1.0000 0.1315942551
H   H46       1.0  0.61848  0.64356  0.09343  1.0000 0.122322477
H   H47       1.0  0.81944  0.61440  0.14116  1.0000 0.1315942551
H   H48       1.0  0.94996  0.43303  0.20120  1.0000 0.1113285592
H   H49       1.0  0.61288  0.16638  0.34792  1.0000 0.1113285592
H   H50       1.0  0.69456  0.23532  0.36534  1.0000 0.0962234322
H   H51       1.0  0.84486  0.06874  0.44673  1.0000 0.1113285592
H   H52       1.0  0.77561  0.99492  0.42069  1.0000 0.0962234322
H   H53       1.0  0.59882  0.07062  0.52532  1.0000 0.1113285592
H   H54       1.0  0.71923  0.98340  0.58556  1.0000 0.0962234322
H   H55       1.0  0.77749  0.14101  0.58791  1.0000 0.1113285592
H   H56       1.0  0.64790  0.22241  0.53873  1.0000 0.0962234322
H   H57       1.0  0.68638  0.03043  0.82432  1.0000 0.1471011076
H   H58       1.0  0.77483  0.99307  0.73506  1.0000 0.1394301873
H   H59       1.0  0.72017  0.23508  0.70483  1.0000 0.122322477
H   H60       1.0  0.62554  0.20412  0.79641  1.0000 0.1315942551
H   H61       1.0  0.63440  0.44264  0.66532  1.0000 0.1394301873
H   H62       1.0  0.46960  0.60665  0.60271  1.0000 0.122322477
H   H63       1.0  0.26003  0.41355  0.61188  1.0000 0.1113285592
H   H64       1.0  0.27923  0.59075  0.57604  1.0000 0.1394301873
C   C1        1.0  0.95630  0.82510  0.94220  1.0000 0.595848514
C   C2        1.0  0.86900  0.83560  0.03060  1.0000 -0.190561028
C   C3        1.0  0.75100  0.84260  0.03300  1.0000 -0.1995903345
C   C4        1.0  0.66400  0.85250  0.12110  1.0000 0.5854527387
C   C5        1.0  0.67350  0.77460  0.50810  1.0000 0.595848514
C   C6        1.0  0.77530  0.76900  0.56650  1.0000 -0.1995903345
C   C7        1.0  0.88370  0.77880  0.52620  1.0000 -0.1995903345
C   C8        1.0  0.98510  0.77550  0.58460  1.0000 0.595848514
C   C9        1.0  0.09040  0.02250  0.74020  1.0000 0.5685372386
C   C10       1.0  0.21900  0.93970  0.77110  1.0000 -0.2814944949
C   C11       1.0  0.31090  0.73370  0.82630  1.0000 -0.2082097114
C   C12       1.0  0.28030  0.62970  0.83380  1.0000 0.2398980591
C   C13       1.0  0.36430  0.52260  0.87030  1.0000 -0.2082097114
C   C14       1.0  0.32670  0.43060  0.88080  1.0000 -0.0258348039
C   C15       1.0  0.20790  0.44760  0.85320  1.0000 -0.1505300369
C   C16       1.0  0.13120  0.55530  0.81780  1.0000 0.0888176854
C   C17       1.0  0.30090  0.83440  0.64870  1.0000 -0.1094844755
C   C18       1.0  0.23770  0.93520  0.56210  1.0000 -0.1712565351
C   C19       1.0  0.31380  0.94080  0.46260  1.0000 -0.1712565351
C   C20       1.0  0.31030  0.85340  0.41640  1.0000 -0.1094844755
C   C21       1.0  0.38160  0.05890  0.23850  1.0000 0.5685372386
C   C22       1.0  0.31290  0.97710  0.24330  1.0000 -0.2867173966
C   C23       1.0  0.36310  0.77450  0.27760  1.0000 -0.2082097114
C   C24       1.0  0.46110  0.66570  0.32390  1.0000 0.2323090393
C   C25       1.0  0.44360  0.56200  0.34550  1.0000 -0.1995903345
C   C26       1.0  0.54060  0.46520  0.38270  1.0000 -0.0258348039
C   C27       1.0  0.66320  0.58010  0.37680  1.0000 0.0888176854
C   C28       1.0  0.65260  0.47450  0.39860  1.0000 -0.1505300369
C   C29       1.0  0.04370  0.17490  0.05780  1.0000 0.595848514
C   C30       1.0  0.13100  0.16440  0.96940  1.0000 -0.190561028
C   C31       1.0  0.24900  0.15740  0.96700  1.0000 -0.2082097114
C   C32       1.0  0.33600  0.14750  0.87890  1.0000 0.5854527387
C   C33       1.0  0.32650  0.22540  0.49190  1.0000 0.595848514
C   C34       1.0  0.22470  0.23100  0.43350  1.0000 -0.1995903345
C   C35       1.0  0.11630  0.22120  0.47380  1.0000 -0.190561028
C   C36       1.0  0.01490  0.22450  0.41540  1.0000 0.595848514
C   C37       1.0  0.90960  0.97750  0.25980  1.0000 0.5685372386
C   C38       1.0  0.78100  0.06030  0.22890  1.0000 -0.2814944949
C   C39       1.0  0.68910  0.26630  0.17370  1.0000 -0.2082097114
C   C40       1.0  0.71970  0.37030  0.16620  1.0000 0.2398980591
C   C41       1.0  0.63570  0.47740  0.12970  1.0000 -0.2082097114
C   C42       1.0  0.67330  0.56940  0.11920  1.0000 -0.0258348039
C   C43       1.0  0.79210  0.55240  0.14680  1.0000 -0.1505300369
C   C44       1.0  0.86880  0.44470  0.18220  1.0000 0.0888176854
C   C45       1.0  0.69910  0.16560  0.35130  1.0000 -0.1094844755
C   C46       1.0  0.76230  0.06480  0.43790  1.0000 -0.1712565351
C   C47       1.0  0.68620  0.05920  0.53740  1.0000 -0.1712565351
C   C48       1.0  0.68970  0.14660  0.58360  1.0000 -0.1094844755
C   C49       1.0  0.61840  0.94110  0.76150  1.0000 0.5685372386
C   C50       1.0  0.68710  0.02290  0.75670  1.0000 -0.2867173966
C   C51       1.0  0.63690  0.22550  0.72240  1.0000 -0.2082097114
C   C52       1.0  0.53890  0.33430  0.67610  1.0000 0.2323090393
C   C53       1.0  0.55640  0.43800  0.65450  1.0000 -0.1995903345
C   C54       1.0  0.45940  0.53480  0.61730  1.0000 -0.0258348039
C   C55       1.0  0.33680  0.41990  0.62320  1.0000 0.0888176854
C   C56       1.0  0.34740  0.52550  0.60140  1.0000 -0.1505300369
N   N1        1.0  0.16550  0.64490  0.80870  1.0000 -0.2667668726
N   N2        1.0  0.23630  0.83410  0.74830  1.0000 -0.0493740425
N   N3        1.0  0.07290  0.12680  0.73740  1.0000 -0.5620083835
N   N4        1.0  0.57000  0.67440  0.34030  1.0000 -0.2814944949
N   N5        1.0  0.37110  0.86560  0.31430  1.0000 -0.0493740425
N   N6        1.0  0.32090  0.16630  0.20510  1.0000 -0.5620083835
N   N7        1.0  0.83450  0.35510  0.19130  1.0000 -0.2667668726
N   N8        1.0  0.76370  0.16590  0.25170  1.0000 -0.0493740425
N   N9        1.0  0.92710  0.87320  0.26260  1.0000 -0.5620083835
N   N10       1.0  0.43000  0.32560  0.65970  1.0000 -0.2814944949
N   N11       1.0  0.62890  0.13440  0.68570  1.0000 -0.0493740425
N   N12       1.0  0.67910  0.83370  0.79490  1.0000 -0.5620083835
O   O1        1.0  0.06220  0.83000  0.94510  1.0000 -0.5620083835
O   O2        1.0  0.70650  0.84280  0.20350  1.0000 -0.5688616898
O   O3        1.0  0.55110  0.86760  0.11160  1.0000 -0.5688616898
O   O4        1.0  0.49370  0.02210  0.26160  1.0000 -0.5097784516
O   O5        1.0  0.67540  0.82840  0.41420  1.0000 -0.5620083835
O   O6        1.0  0.59250  0.73080  0.55220  1.0000 -0.5915084746
O   O7        1.0  0.09510  0.74360  0.55430  1.0000 -0.5915084746
O   O8        1.0  0.94980  0.80870  0.66170  1.0000 -0.5620083835
O   O9        1.0  0.00750  0.99150  0.72050  1.0000 -0.5097784516
O   O10       1.0  0.91900  0.81100  0.86800  1.0000 -0.5688616898
O   O11       1.0  0.93780  0.17000  0.05490  1.0000 -0.5620083835
O   O12       1.0  0.29350  0.15720  0.79650  1.0000 -0.5688616898
O   O13       1.0  0.44890  0.13240  0.88840  1.0000 -0.5688616898
O   O14       1.0  0.50630  0.97790  0.73840  1.0000 -0.5097784516
O   O15       1.0  0.32460  0.17160  0.58580  1.0000 -0.5620083835
O   O16       1.0  0.40750  0.26920  0.44780  1.0000 -0.5915084746
O   O17       1.0  0.90490  0.25640  0.44570  1.0000 -0.5915084746
O   O18       1.0  0.05020  0.19130  0.33830  1.0000 -0.5620083835
O   O19       1.0  0.99250  0.00850  0.27950  1.0000 -0.5097784516
O   O20       1.0  0.08100  0.18900  0.13200  1.0000 -0.5688616898
