# DDEC6 charges by PACMAN v1.1 (https://github.com/mtap-research/PACMAN-charge/)
data_2019[Co][nan]2[FSR]4
_chemical_formula_sum              "Co4 H68 C84 N8 O16"
_cell_length_a       11.7564
_cell_length_b       11.7564
_cell_length_c       18.9771
_cell_angle_alpha    72.8262
_cell_angle_beta     107.174
_cell_angle_gamma    91.5405

_symmetry_space_group_name_H-M    "P 1"
_symmetry_Int_Tables_number       1

loop_
  _symmetry_equiv_pos_as_xyz
  'x, y, z'

loop_
  _atom_site_type_symbol
  _atom_site_label
  _atom_site_symmetry_multiplicity
  _atom_site_fract_x
  _atom_site_fract_y
  _atom_site_fract_z
  _atom_site_occupancy
  _atom_site_charge
Co  Co1       1.0  0.73694  0.05662  0.41590  1.0000 0.7653702658
Co  Co2       1.0  0.05662  0.73694  0.08410  1.0000 0.7653702658
Co  Co3       1.0  0.26306  0.94338  0.58410  1.0000 0.7653702658
Co  Co4       1.0  0.94338  0.26306  0.91590  1.0000 0.7653702658
H   H1        1.0  0.92110  0.11270  0.54670  1.0000 0.1097636108
H   H2        1.0  0.93210  0.21030  0.63730  1.0000 0.1462351194
H   H3        1.0  0.58400  0.24140  0.57600  1.0000 0.1462351194
H   H4        1.0  0.57820  0.15320  0.48270  1.0000 0.1097636108
H   H5        1.0  0.84570  0.29290  0.71030  1.0000 0.1308623563
H   H6        1.0  0.70810  0.28690  0.69830  1.0000 0.1190448273
H   H7        1.0  0.66840  0.46300  0.59960  1.0000 0.1024396803
H   H8        1.0  0.75990  0.48410  0.67220  1.0000 0.1097636108
H   H9        1.0  0.81740  0.45760  0.55050  1.0000 0.1190448273
H   H10       1.0  0.90320  0.48960  0.62160  1.0000 0.1308623563
H   H11       1.0  0.86140  0.63680  0.46460  1.0000 0.1462351194
H   H12       1.0  0.83950  0.83610  0.40720  1.0000 0.1097636108
H   H13       1.0  0.67990  0.87950  0.55000  1.0000 0.1024396803
H   H14       1.0  0.68870  0.67930  0.60610  1.0000 0.1402677905
H   H15       1.0  0.03680  0.07780  0.31700  1.0000 0.1190448273
H   H16       1.0  0.17140  0.35520  0.19330  1.0000 0.1190448273
H   H17       1.0  0.91280  0.41320  0.27850  1.0000 0.1190448273
H   H18       1.0  0.11270  0.92110  0.95330  1.0000 0.1097636108
H   H19       1.0  0.21030  0.93210  0.86270  1.0000 0.1462351194
H   H20       1.0  0.24140  0.58400  0.92400  1.0000 0.1462351194
H   H21       1.0  0.15320  0.57820  0.01730  1.0000 0.1097636108
H   H22       1.0  0.29290  0.84570  0.78970  1.0000 0.1308623563
H   H23       1.0  0.28690  0.70810  0.80170  1.0000 0.1190448273
H   H24       1.0  0.46300  0.66840  0.90040  1.0000 0.1024396803
H   H25       1.0  0.48410  0.75990  0.82780  1.0000 0.1097636108
H   H26       1.0  0.45760  0.81740  0.94950  1.0000 0.1190448273
H   H27       1.0  0.48960  0.90320  0.87840  1.0000 0.1308623563
H   H28       1.0  0.63680  0.86140  0.03540  1.0000 0.1462351194
H   H29       1.0  0.83610  0.83950  0.09280  1.0000 0.1097636108
H   H30       1.0  0.87950  0.67990  0.95000  1.0000 0.1024396803
H   H31       1.0  0.67930  0.68870  0.89390  1.0000 0.1402677905
H   H32       1.0  0.07780  0.03680  0.18300  1.0000 0.1190448273
H   H33       1.0  0.35520  0.17140  0.30670  1.0000 0.1190448273
H   H34       1.0  0.41320  0.91280  0.22150  1.0000 0.1190448273
H   H35       1.0  0.07890  0.88730  0.45330  1.0000 0.1097636108
H   H36       1.0  0.06790  0.78970  0.36270  1.0000 0.1462351194
H   H37       1.0  0.41600  0.75860  0.42400  1.0000 0.1462351194
H   H38       1.0  0.42180  0.84680  0.51730  1.0000 0.1097636108
H   H39       1.0  0.15430  0.70710  0.28970  1.0000 0.1308623563
H   H40       1.0  0.29190  0.71310  0.30170  1.0000 0.1190448273
H   H41       1.0  0.33160  0.53700  0.40040  1.0000 0.1024396803
H   H42       1.0  0.24010  0.51590  0.32780  1.0000 0.1097636108
H   H43       1.0  0.18260  0.54240  0.44950  1.0000 0.1190448273
H   H44       1.0  0.09680  0.51040  0.37840  1.0000 0.1308623563
H   H45       1.0  0.13860  0.36320  0.53540  1.0000 0.1462351194
H   H46       1.0  0.16050  0.16390  0.59280  1.0000 0.1097636108
H   H47       1.0  0.32010  0.12050  0.45000  1.0000 0.1024396803
H   H48       1.0  0.31130  0.32070  0.39390  1.0000 0.1402677905
H   H49       1.0  0.96320  0.92220  0.68300  1.0000 0.1190448273
H   H50       1.0  0.82860  0.64480  0.80670  1.0000 0.1190448273
H   H51       1.0  0.08720  0.58680  0.72150  1.0000 0.1190448273
H   H52       1.0  0.88730  0.07890  0.04670  1.0000 0.1097636108
H   H53       1.0  0.78970  0.06790  0.13730  1.0000 0.1462351194
H   H54       1.0  0.75860  0.41600  0.07600  1.0000 0.1462351194
H   H55       1.0  0.84680  0.42180  0.98270  1.0000 0.1097636108
H   H56       1.0  0.70710  0.15430  0.21030  1.0000 0.1308623563
H   H57       1.0  0.71310  0.29190  0.19830  1.0000 0.1190448273
H   H58       1.0  0.53700  0.33160  0.09960  1.0000 0.1024396803
H   H59       1.0  0.51590  0.24010  0.17220  1.0000 0.1097636108
H   H60       1.0  0.54240  0.18260  0.05050  1.0000 0.1190448273
H   H61       1.0  0.51040  0.09680  0.12160  1.0000 0.1308623563
H   H62       1.0  0.36320  0.13860  0.96460  1.0000 0.1462351194
H   H63       1.0  0.16390  0.16050  0.90720  1.0000 0.1097636108
H   H64       1.0  0.12050  0.32010  0.05000  1.0000 0.1024396803
H   H65       1.0  0.32070  0.31130  0.10610  1.0000 0.1402677905
H   H66       1.0  0.92220  0.96320  0.81700  1.0000 0.1190448273
H   H67       1.0  0.64480  0.82860  0.69330  1.0000 0.1190448273
H   H68       1.0  0.58680  0.08720  0.77850  1.0000 0.1190448273
C   C1        1.0  0.85110  0.14090  0.55100  1.0000 0.0717082742
C   C2        1.0  0.85760  0.19980  0.60600  1.0000 -0.2105439052
C   C3        1.0  0.75850  0.24210  0.61500  1.0000 0.1569466006
C   C4        1.0  0.65520  0.21940  0.57010  1.0000 -0.2105439052
C   C5        1.0  0.65220  0.16340  0.51460  1.0000 0.0846450899
C   C6        1.0  0.76790  0.31150  0.67180  1.0000 -0.2375160842
C   C7        1.0  0.75040  0.44560  0.63230  1.0000 -0.1370543528
C   C8        1.0  0.82130  0.49850  0.58860  1.0000 -0.2375160842
C   C9        1.0  0.78610  0.63410  0.54580  1.0000 0.1754130806
C   C10       1.0  0.82460  0.68480  0.48370  1.0000 -0.2105439052
C   C11       1.0  0.81060  0.80420  0.44920  1.0000 0.0846450899
C   C12       1.0  0.71610  0.82950  0.53180  1.0000 0.0717082742
C   C13       1.0  0.72440  0.71000  0.56730  1.0000 -0.2105439052
C   C14       1.0  0.87730  0.18950  0.34940  1.0000 0.5236234676
C   C15       1.0  0.96150  0.23670  0.30570  1.0000 -0.0315248182
C   C16       1.0  0.03890  0.15970  0.29560  1.0000 -0.1568906296
C   C17       1.0  0.11950  0.20210  0.25420  1.0000 0.057450154
C   C18       1.0  0.11820  0.32540  0.22100  1.0000 -0.1654034991
C   C19       1.0  0.04020  0.40460  0.22800  1.0000 -0.0206108292
C   C20       1.0  0.96330  0.36050  0.27170  1.0000 -0.1267919306
C   C21       1.0  0.03660  0.53560  0.18750  1.0000 0.5296392452
C   C22       1.0  0.14090  0.85110  0.94900  1.0000 0.0717082742
C   C23       1.0  0.19980  0.85760  0.89400  1.0000 -0.2105439052
C   C24       1.0  0.24210  0.75850  0.88500  1.0000 0.1569466006
C   C25       1.0  0.21940  0.65520  0.92990  1.0000 -0.2105439052
C   C26       1.0  0.16340  0.65220  0.98540  1.0000 0.0846450899
C   C27       1.0  0.31150  0.76790  0.82820  1.0000 -0.2375160842
C   C28       1.0  0.44560  0.75040  0.86770  1.0000 -0.1370543528
C   C29       1.0  0.49850  0.82130  0.91140  1.0000 -0.2375160842
C   C30       1.0  0.63410  0.78610  0.95420  1.0000 0.1754130806
C   C31       1.0  0.68480  0.82460  0.01630  1.0000 -0.2105439052
C   C32       1.0  0.80420  0.81060  0.05080  1.0000 0.0846450899
C   C33       1.0  0.82950  0.71610  0.96820  1.0000 0.0717082742
C   C34       1.0  0.71000  0.72440  0.93270  1.0000 -0.2105439052
C   C35       1.0  0.18950  0.87730  0.15060  1.0000 0.5236234676
C   C36       1.0  0.23670  0.96150  0.19430  1.0000 -0.0315248182
C   C37       1.0  0.15970  0.03890  0.20440  1.0000 -0.1568906296
C   C38       1.0  0.20210  0.11950  0.24580  1.0000 0.057450154
C   C39       1.0  0.32540  0.11820  0.27900  1.0000 -0.1654034991
C   C40       1.0  0.40460  0.04020  0.27200  1.0000 -0.0206108292
C   C41       1.0  0.36050  0.96330  0.22830  1.0000 -0.1267919306
C   C42       1.0  0.53560  0.03660  0.31250  1.0000 0.5296392452
C   C43       1.0  0.14890  0.85910  0.44900  1.0000 0.0717082742
C   C44       1.0  0.14240  0.80020  0.39400  1.0000 -0.2105439052
C   C45       1.0  0.24150  0.75790  0.38500  1.0000 0.1569466006
C   C46       1.0  0.34480  0.78060  0.42990  1.0000 -0.2105439052
C   C47       1.0  0.34780  0.83660  0.48540  1.0000 0.0846450899
C   C48       1.0  0.23210  0.68850  0.32820  1.0000 -0.2375160842
C   C49       1.0  0.24960  0.55440  0.36770  1.0000 -0.1370543528
C   C50       1.0  0.17870  0.50150  0.41140  1.0000 -0.2375160842
C   C51       1.0  0.21390  0.36590  0.45420  1.0000 0.1754130806
C   C52       1.0  0.17540  0.31520  0.51630  1.0000 -0.2105439052
C   C53       1.0  0.18940  0.19580  0.55080  1.0000 0.0846450899
C   C54       1.0  0.28390  0.17050  0.46820  1.0000 0.0717082742
C   C55       1.0  0.27560  0.29000  0.43270  1.0000 -0.2105439052
C   C56       1.0  0.12270  0.81050  0.65060  1.0000 0.5236234676
C   C57       1.0  0.03850  0.76330  0.69430  1.0000 -0.0315248182
C   C58       1.0  0.96110  0.84030  0.70440  1.0000 -0.1568906296
C   C59       1.0  0.88050  0.79790  0.74580  1.0000 0.057450154
C   C60       1.0  0.88180  0.67460  0.77900  1.0000 -0.1654034991
C   C61       1.0  0.95980  0.59540  0.77200  1.0000 -0.0206108292
C   C62       1.0  0.03670  0.63950  0.72830  1.0000 -0.1267919306
C   C63       1.0  0.96340  0.46440  0.81250  1.0000 0.5296392452
C   C64       1.0  0.85910  0.14890  0.05100  1.0000 0.0717082742
C   C65       1.0  0.80020  0.14240  0.10600  1.0000 -0.2105439052
C   C66       1.0  0.75790  0.24150  0.11500  1.0000 0.1569466006
C   C67       1.0  0.78060  0.34480  0.07010  1.0000 -0.2105439052
C   C68       1.0  0.83660  0.34780  0.01460  1.0000 0.0846450899
C   C69       1.0  0.68850  0.23210  0.17180  1.0000 -0.2375160842
C   C70       1.0  0.55440  0.24960  0.13230  1.0000 -0.1370543528
C   C71       1.0  0.50150  0.17870  0.08860  1.0000 -0.2375160842
C   C72       1.0  0.36590  0.21390  0.04580  1.0000 0.1754130806
C   C73       1.0  0.31520  0.17540  0.98370  1.0000 -0.2105439052
C   C74       1.0  0.19580  0.18940  0.94920  1.0000 0.0846450899
C   C75       1.0  0.17050  0.28390  0.03180  1.0000 0.0717082742
C   C76       1.0  0.29000  0.27560  0.06730  1.0000 -0.2105439052
C   C77       1.0  0.81050  0.12270  0.84940  1.0000 0.5236234676
C   C78       1.0  0.76330  0.03850  0.80570  1.0000 -0.0315248182
C   C79       1.0  0.84030  0.96110  0.79560  1.0000 -0.1568906296
C   C80       1.0  0.79790  0.88050  0.75420  1.0000 0.057450154
C   C81       1.0  0.67460  0.88180  0.72100  1.0000 -0.1654034991
C   C82       1.0  0.59540  0.95980  0.72800  1.0000 -0.0206108292
C   C83       1.0  0.63950  0.03670  0.77170  1.0000 -0.1267919306
C   C84       1.0  0.46440  0.96340  0.68750  1.0000 0.5296392452
N   N1        1.0  0.74680  0.12440  0.50480  1.0000 -0.2375160842
N   N2        1.0  0.75710  0.87810  0.47270  1.0000 -0.2456797797
N   N3        1.0  0.12440  0.74680  0.99520  1.0000 -0.2375160842
N   N4        1.0  0.87810  0.75710  0.02730  1.0000 -0.2456797797
N   N5        1.0  0.25320  0.87560  0.49520  1.0000 -0.2375160842
N   N6        1.0  0.24290  0.12190  0.52730  1.0000 -0.2456797797
N   N7        1.0  0.87560  0.25320  0.00480  1.0000 -0.2375160842
N   N8        1.0  0.12190  0.24290  0.97270  1.0000 -0.2456797797
O   O1        1.0  0.88080  0.07700  0.37990  1.0000 -0.5496832718
O   O2        1.0  0.80000  0.25460  0.35340  1.0000 -0.5205723931
O   O3        1.0  0.09590  0.56570  0.13960  1.0000 -0.5496832718
O   O4        1.0  0.97930  0.60850  0.20090  1.0000 -0.5423866946
O   O5        1.0  0.07700  0.88080  0.12010  1.0000 -0.5496832718
O   O6        1.0  0.25460  0.80000  0.14660  1.0000 -0.5205723931
O   O7        1.0  0.56570  0.09590  0.36040  1.0000 -0.5496832718
O   O8        1.0  0.60850  0.97930  0.29910  1.0000 -0.5423866946
O   O9        1.0  0.11920  0.92300  0.62010  1.0000 -0.5496832718
O   O10       1.0  0.20000  0.74540  0.64660  1.0000 -0.5205723931
O   O11       1.0  0.90410  0.43430  0.86040  1.0000 -0.5496832718
O   O12       1.0  0.02070  0.39150  0.79910  1.0000 -0.5423866946
O   O13       1.0  0.92300  0.11920  0.87990  1.0000 -0.5496832718
O   O14       1.0  0.74540  0.20000  0.85340  1.0000 -0.5205723931
O   O15       1.0  0.43430  0.90410  0.63960  1.0000 -0.5496832718
O   O16       1.0  0.39150  0.02070  0.70090  1.0000 -0.5423866946
