# DDEC6 charges by PACMAN v1.1 (https://github.com/mtap-research/PACMAN-charge/)
data_2019[Cd][sql]2[FSR]15
_chemical_formula_sum              "Cd1 H24 C26 S2 N2 O6"
_cell_length_a       7.228
_cell_length_b       10.733
_cell_length_c       11.7457
_cell_angle_alpha    108.22
_cell_angle_beta     91.311
_cell_angle_gamma    100.104

_symmetry_space_group_name_H-M    "P 1"
_symmetry_Int_Tables_number       1

loop_
  _symmetry_equiv_pos_as_xyz
  'x, y, z'

loop_
  _atom_site_type_symbol
  _atom_site_label
  _atom_site_symmetry_multiplicity
  _atom_site_fract_x
  _atom_site_fract_y
  _atom_site_fract_z
  _atom_site_occupancy
  _atom_site_charge
Cd  Cd1       1.0  0.50000  0.50000  0.50000  1.0000 0.854478767
H   H1        1.0  0.37205  0.62656  0.38797  1.0000 0.3236240054
H   H2        1.0  0.29378  0.51239  0.29528  1.0000 0.3129487837
H   H3        1.0  0.09631  0.54772  0.59667  1.0000 0.1204049642
H   H4        1.0  0.94739  0.68994  0.73542  1.0000 0.129768541
H   H5        1.0  0.45222  0.90001  0.88610  1.0000 0.1204049642
H   H6        1.0  0.58824  0.75544  0.74043  1.0000 0.1055102999
H   H7        1.0  0.94094  0.95256  0.79604  1.0000 0.1204049642
H   H8        1.0  0.64511  0.14074  0.71329  1.0000 0.1732362489
H   H9        1.0  0.68875  0.00443  0.71825  1.0000 0.144359609
H   H10       1.0  0.85461  0.12279  0.72478  1.0000 0.1534420828
H   H11       1.0  0.05440  0.81009  0.53770  1.0000 0.1204049642
H   H12       1.0  0.30064  0.98859  0.56270  1.0000 0.129768541
H   H13       1.0  0.62795  0.37344  0.61203  1.0000 0.3236240054
H   H14       1.0  0.70622  0.48761  0.70472  1.0000 0.3129487837
H   H15       1.0  0.90369  0.45228  0.40333  1.0000 0.1204049642
H   H16       1.0  0.05261  0.31006  0.26458  1.0000 0.129768541
H   H17       1.0  0.54778  0.09999  0.11390  1.0000 0.1204049642
H   H18       1.0  0.41176  0.24456  0.25957  1.0000 0.1055102999
H   H19       1.0  0.05906  0.04744  0.20396  1.0000 0.1204049642
H   H20       1.0  0.35489  0.85926  0.28671  1.0000 0.1732362489
H   H21       1.0  0.31125  0.99557  0.28175  1.0000 0.144359609
H   H22       1.0  0.14539  0.87721  0.27522  1.0000 0.1534420828
H   H23       1.0  0.94560  0.18991  0.46230  1.0000 0.1204049642
H   H24       1.0  0.69936  0.01141  0.43730  1.0000 0.129768541
C   C1        1.0  0.16950  0.62040  0.65530  1.0000 0.0969144608
C   C2        1.0  0.07840  0.70520  0.73920  1.0000 -0.1815040578
C   C3        1.0  0.18260  0.81220  0.82820  1.0000 0.1204049642
C   C4        1.0  0.37610  0.82920  0.82740  1.0000 -0.1981977915
C   C5        1.0  0.45750  0.74130  0.73960  1.0000 0.0768001209
C   C6        1.0  0.08890  0.90780  0.91790  1.0000 0.0330789963
C   C7        1.0  0.96580  0.97210  0.87840  1.0000 -0.1815040578
C   C8        1.0  0.87620  0.06560  0.95670  1.0000 -0.0002119719
C   C9        1.0  0.72970  0.09980  0.74750  1.0000 -0.4423183744
C   C10       1.0  0.68930  0.77660  0.47120  1.0000 0.5481225754
C   C11       1.0  0.85180  0.89170  0.48450  1.0000 -0.0291970318
C   C12       1.0  0.03200  0.88630  0.52230  1.0000 -0.1158671176
C   C13       1.0  0.18000  0.99360  0.53760  1.0000 -0.1059255545
C   C14       1.0  0.83050  0.37960  0.34470  1.0000 0.0969144608
C   C15       1.0  0.92160  0.29480  0.26080  1.0000 -0.1815040578
C   C16       1.0  0.81740  0.18780  0.17180  1.0000 0.1204049642
C   C17       1.0  0.62390  0.17080  0.17260  1.0000 -0.1981977915
C   C18       1.0  0.54250  0.25870  0.26040  1.0000 0.0768001209
C   C19       1.0  0.91110  0.09220  0.08210  1.0000 0.0330789963
C   C20       1.0  0.03420  0.02790  0.12160  1.0000 -0.1815040578
C   C21       1.0  0.12380  0.93440  0.04330  1.0000 -0.0002119719
C   C22       1.0  0.27030  0.90020  0.25250  1.0000 -0.4423183744
C   C23       1.0  0.31070  0.22340  0.52880  1.0000 0.5481225754
C   C24       1.0  0.14820  0.10830  0.51550  1.0000 -0.0291970318
C   C25       1.0  0.96800  0.11370  0.47770  1.0000 -0.1158671176
C   C26       1.0  0.82000  0.00640  0.46240  1.0000 -0.1059255545
S   S1        1.0  0.73066  0.15817  0.90810  1.0000 0.0395422763
S   S2        1.0  0.26934  0.84183  0.09190  1.0000 0.0395422763
N   N1        1.0  0.35600  0.63710  0.65380  1.0000 -0.2394493764
N   N2        1.0  0.64400  0.36290  0.34620  1.0000 -0.2394493764
O   O1        1.0  0.72260  0.68130  0.50530  1.0000 -0.5906112884
O   O2        1.0  0.29520  0.55230  0.37030  1.0000 -0.6752564405
O   O3        1.0  0.53470  0.78330  0.42810  1.0000 -0.5363376831
O   O4        1.0  0.27740  0.31870  0.49470  1.0000 -0.5906112884
O   O5        1.0  0.70480  0.44770  0.62970  1.0000 -0.6752564405
O   O6        1.0  0.46530  0.21670  0.57190  1.0000 -0.5363376831
