# DDEC6 charges by PACMAN v1.1 (https://github.com/mtap-research/PACMAN-charge/)
data_2019[Zn][pyr]3[FSR]1
_chemical_formula_sum              "Zn16 H120 C112 N8 O72"
_cell_length_a       14.7894
_cell_length_b       16.4229
_cell_length_c       18.9429
_cell_angle_alpha    90
_cell_angle_beta     90
_cell_angle_gamma    90

_symmetry_space_group_name_H-M    "P 1"
_symmetry_Int_Tables_number       1

loop_
  _symmetry_equiv_pos_as_xyz
  'x, y, z'

loop_
  _atom_site_type_symbol
  _atom_site_label
  _atom_site_symmetry_multiplicity
  _atom_site_fract_x
  _atom_site_fract_y
  _atom_site_fract_z
  _atom_site_occupancy
  _atom_site_charge
Zn  Zn1       1.0  0.49790  0.42645  0.44619  1.0000 0.9941172279
Zn  Zn2       1.0  0.53183  0.59120  0.36569  1.0000 0.9388940312
Zn  Zn3       1.0  0.00210  0.57355  0.94619  1.0000 0.9941172279
Zn  Zn4       1.0  0.96817  0.40880  0.86569  1.0000 0.9388940312
Zn  Zn5       1.0  0.50210  0.92645  0.05381  1.0000 0.9941172279
Zn  Zn6       1.0  0.46817  0.09120  0.13431  1.0000 0.9388940312
Zn  Zn7       1.0  0.99790  0.07355  0.55381  1.0000 0.9941172279
Zn  Zn8       1.0  0.03183  0.90880  0.63431  1.0000 0.9388940312
Zn  Zn9       1.0  0.50210  0.57355  0.55381  1.0000 0.9941172279
Zn  Zn10      1.0  0.46817  0.40880  0.63431  1.0000 0.9388940312
Zn  Zn11      1.0  0.99790  0.42645  0.05381  1.0000 0.9941172279
Zn  Zn12      1.0  0.03183  0.59120  0.13431  1.0000 0.9388940312
Zn  Zn13      1.0  0.49790  0.07355  0.94619  1.0000 0.9941172279
Zn  Zn14      1.0  0.53183  0.90880  0.86569  1.0000 0.9388940312
Zn  Zn15      1.0  0.00210  0.92645  0.44619  1.0000 0.9941172279
Zn  Zn16      1.0  0.96817  0.09120  0.36569  1.0000 0.9388940312
H   H1        1.0  0.33100  0.43730  0.46350  1.0000 0.3603560604
H   H2        1.0  0.35040  0.36340  0.49690  1.0000 0.3886495471
H   H3        1.0  0.41850  0.56500  0.44860  1.0000 0.3784568883
H   H4        1.0  0.79010  0.52350  0.27390  1.0000 0.1294782527
H   H5        1.0  0.96250  0.33060  0.27540  1.0000 0.1294782527
H   H6        1.0  0.75830  0.34330  0.41680  1.0000 0.1244083918
H   H7        1.0  0.53340  0.25970  0.31380  1.0000 0.143192587
H   H8        1.0  0.62450  0.30760  0.33500  1.0000 0.1294782527
H   H9        1.0  0.70710  0.19630  0.32290  1.0000 0.1001881447
H   H10       1.0  0.62020  0.15440  0.28700  1.0000 0.1138135172
H   H11       1.0  0.59170  0.08080  0.38380  1.0000 0.1001881447
H   H12       1.0  0.69040  0.10770  0.41140  1.0000 0.1001881447
H   H13       1.0  0.55330  0.20200  0.54480  1.0000 0.1457769476
H   H14       1.0  0.62940  0.13330  0.53710  1.0000 0.1294782527
H   H15       1.0  0.52670  0.11310  0.51720  1.0000 0.1294782527
H   H16       1.0  0.16900  0.56270  0.96350  1.0000 0.3603560604
H   H17       1.0  0.14960  0.63660  0.99690  1.0000 0.3886495471
H   H18       1.0  0.08150  0.43500  0.94860  1.0000 0.3784568883
H   H19       1.0  0.70990  0.47650  0.77390  1.0000 0.1294782527
H   H20       1.0  0.53750  0.66940  0.77540  1.0000 0.1294782527
H   H21       1.0  0.74170  0.65670  0.91680  1.0000 0.1244083918
H   H22       1.0  0.96660  0.74030  0.81380  1.0000 0.143192587
H   H23       1.0  0.87550  0.69240  0.83500  1.0000 0.1294782527
H   H24       1.0  0.79290  0.80370  0.82290  1.0000 0.1001881447
H   H25       1.0  0.87980  0.84560  0.78700  1.0000 0.1138135172
H   H26       1.0  0.90830  0.91920  0.88380  1.0000 0.1001881447
H   H27       1.0  0.80960  0.89230  0.91140  1.0000 0.1001881447
H   H28       1.0  0.94670  0.79800  0.04480  1.0000 0.1457769476
H   H29       1.0  0.87060  0.86670  0.03710  1.0000 0.1294782527
H   H30       1.0  0.97330  0.88690  0.01720  1.0000 0.1294782527
H   H31       1.0  0.66900  0.93730  0.03650  1.0000 0.3603560604
H   H32       1.0  0.64960  0.86340  0.00310  1.0000 0.3886495471
H   H33       1.0  0.58150  0.06500  0.05140  1.0000 0.3784568883
H   H34       1.0  0.20990  0.02350  0.22610  1.0000 0.1294782527
H   H35       1.0  0.03750  0.83060  0.22460  1.0000 0.1294782527
H   H36       1.0  0.24170  0.84330  0.08320  1.0000 0.1244083918
H   H37       1.0  0.46660  0.75970  0.18620  1.0000 0.143192587
H   H38       1.0  0.37550  0.80760  0.16500  1.0000 0.1294782527
H   H39       1.0  0.29290  0.69630  0.17710  1.0000 0.1001881447
H   H40       1.0  0.37980  0.65440  0.21300  1.0000 0.1138135172
H   H41       1.0  0.40830  0.58080  0.11620  1.0000 0.1001881447
H   H42       1.0  0.30960  0.60770  0.08860  1.0000 0.1001881447
H   H43       1.0  0.44670  0.70200  0.95520  1.0000 0.1457769476
H   H44       1.0  0.37060  0.63330  0.96290  1.0000 0.1294782527
H   H45       1.0  0.47330  0.61310  0.98280  1.0000 0.1294782527
H   H46       1.0  0.83100  0.06270  0.53650  1.0000 0.3603560604
H   H47       1.0  0.85040  0.13660  0.50310  1.0000 0.3886495471
H   H48       1.0  0.91850  0.93500  0.55140  1.0000 0.3784568883
H   H49       1.0  0.29010  0.97650  0.72610  1.0000 0.1294782527
H   H50       1.0  0.46250  0.16940  0.72460  1.0000 0.1294782527
H   H51       1.0  0.25830  0.15670  0.58320  1.0000 0.1244083918
H   H52       1.0  0.03340  0.24030  0.68620  1.0000 0.143192587
H   H53       1.0  0.12450  0.19240  0.66500  1.0000 0.1294782527
H   H54       1.0  0.20710  0.30370  0.67710  1.0000 0.1001881447
H   H55       1.0  0.12020  0.34560  0.71300  1.0000 0.1138135172
H   H56       1.0  0.09170  0.41920  0.61620  1.0000 0.1001881447
H   H57       1.0  0.19040  0.39230  0.58860  1.0000 0.1001881447
H   H58       1.0  0.05330  0.29800  0.45520  1.0000 0.1457769476
H   H59       1.0  0.12940  0.36670  0.46290  1.0000 0.1294782527
H   H60       1.0  0.02670  0.38690  0.48280  1.0000 0.1294782527
H   H61       1.0  0.66900  0.56270  0.53650  1.0000 0.3603560604
H   H62       1.0  0.64960  0.63660  0.50310  1.0000 0.3886495471
H   H63       1.0  0.58150  0.43500  0.55140  1.0000 0.3784568883
H   H64       1.0  0.20990  0.47650  0.72610  1.0000 0.1294782527
H   H65       1.0  0.03750  0.66940  0.72460  1.0000 0.1294782527
H   H66       1.0  0.24170  0.65670  0.58320  1.0000 0.1244083918
H   H67       1.0  0.46660  0.74030  0.68620  1.0000 0.143192587
H   H68       1.0  0.37550  0.69240  0.66500  1.0000 0.1294782527
H   H69       1.0  0.29290  0.80370  0.67710  1.0000 0.1001881447
H   H70       1.0  0.37980  0.84560  0.71300  1.0000 0.1138135172
H   H71       1.0  0.40830  0.91920  0.61620  1.0000 0.1001881447
H   H72       1.0  0.30960  0.89230  0.58860  1.0000 0.1001881447
H   H73       1.0  0.44670  0.79800  0.45520  1.0000 0.1457769476
H   H74       1.0  0.37060  0.86670  0.46290  1.0000 0.1294782527
H   H75       1.0  0.47330  0.88690  0.48280  1.0000 0.1294782527
H   H76       1.0  0.83100  0.43730  0.03650  1.0000 0.3603560604
H   H77       1.0  0.85040  0.36340  0.00310  1.0000 0.3886495471
H   H78       1.0  0.91850  0.56500  0.05140  1.0000 0.3784568883
H   H79       1.0  0.29010  0.52350  0.22610  1.0000 0.1294782527
H   H80       1.0  0.46250  0.33060  0.22460  1.0000 0.1294782527
H   H81       1.0  0.25830  0.34330  0.08320  1.0000 0.1244083918
H   H82       1.0  0.03340  0.25970  0.18620  1.0000 0.143192587
H   H83       1.0  0.12450  0.30760  0.16500  1.0000 0.1294782527
H   H84       1.0  0.20710  0.19630  0.17710  1.0000 0.1001881447
H   H85       1.0  0.12020  0.15440  0.21300  1.0000 0.1138135172
H   H86       1.0  0.09170  0.08080  0.11620  1.0000 0.1001881447
H   H87       1.0  0.19040  0.10770  0.08860  1.0000 0.1001881447
H   H88       1.0  0.05330  0.20200  0.95520  1.0000 0.1457769476
H   H89       1.0  0.12940  0.13330  0.96290  1.0000 0.1294782527
H   H90       1.0  0.02670  0.11310  0.98280  1.0000 0.1294782527
H   H91       1.0  0.33100  0.06270  0.96350  1.0000 0.3603560604
H   H92       1.0  0.35040  0.13660  0.99690  1.0000 0.3886495471
H   H93       1.0  0.41850  0.93500  0.94860  1.0000 0.3784568883
H   H94       1.0  0.79010  0.97650  0.77390  1.0000 0.1294782527
H   H95       1.0  0.96250  0.16940  0.77540  1.0000 0.1294782527
H   H96       1.0  0.75830  0.15670  0.91680  1.0000 0.1244083918
H   H97       1.0  0.53340  0.24030  0.81380  1.0000 0.143192587
H   H98       1.0  0.62450  0.19240  0.83500  1.0000 0.1294782527
H   H99       1.0  0.70710  0.30370  0.82290  1.0000 0.1001881447
H   H100      1.0  0.62020  0.34560  0.78700  1.0000 0.1138135172
H   H101      1.0  0.59170  0.41920  0.88380  1.0000 0.1001881447
H   H102      1.0  0.69040  0.39230  0.91140  1.0000 0.1001881447
H   H103      1.0  0.55330  0.29800  0.04480  1.0000 0.1457769476
H   H104      1.0  0.62940  0.36670  0.03710  1.0000 0.1294782527
H   H105      1.0  0.52670  0.38690  0.01720  1.0000 0.1294782527
H   H106      1.0  0.16900  0.93730  0.46350  1.0000 0.3603560604
H   H107      1.0  0.14960  0.86340  0.49690  1.0000 0.3886495471
H   H108      1.0  0.08150  0.06500  0.44860  1.0000 0.3784568883
H   H109      1.0  0.70990  0.02350  0.27390  1.0000 0.1294782527
H   H110      1.0  0.53750  0.83060  0.27540  1.0000 0.1294782527
H   H111      1.0  0.74170  0.84330  0.41680  1.0000 0.1244083918
H   H112      1.0  0.96660  0.75970  0.31380  1.0000 0.143192587
H   H113      1.0  0.87550  0.80760  0.33500  1.0000 0.1294782527
H   H114      1.0  0.79290  0.69630  0.32290  1.0000 0.1001881447
H   H115      1.0  0.87980  0.65440  0.28700  1.0000 0.1138135172
H   H116      1.0  0.90830  0.58080  0.38380  1.0000 0.1001881447
H   H117      1.0  0.80960  0.60770  0.41140  1.0000 0.1001881447
H   H118      1.0  0.94670  0.70200  0.54480  1.0000 0.1457769476
H   H119      1.0  0.87060  0.63330  0.53710  1.0000 0.1294782527
H   H120      1.0  0.97330  0.61310  0.51720  1.0000 0.1294782527
C   C1        1.0  0.76226  0.43848  0.34844  1.0000 -0.0285766977
C   C2        1.0  0.80964  0.47330  0.29365  1.0000 -0.1182196946
C   C3        1.0  0.88719  0.43419  0.26695  1.0000 -0.0285766977
C   C4        1.0  0.91230  0.35891  0.29476  1.0000 -0.1105392849
C   C5        1.0  0.86430  0.32469  0.35079  1.0000 -0.0285766977
C   C6        1.0  0.79020  0.36550  0.37780  1.0000 -0.1105392849
C   C7        1.0  0.67602  0.47735  0.37448  1.0000 0.586607901
C   C8        1.0  0.93890  0.47043  0.20793  1.0000 0.5786912121
C   C9        1.0  0.89060  0.24254  0.37885  1.0000 0.5628307588
C   C10       1.0  0.56250  0.25170  0.42210  1.0000 0.4861004889
C   C11       1.0  0.58810  0.25810  0.34390  1.0000 -0.3139220081
C   C12       1.0  0.64260  0.18240  0.32990  1.0000 -0.1588522013
C   C13       1.0  0.63120  0.12790  0.39450  1.0000 -0.1105392849
C   C14       1.0  0.57360  0.15520  0.51680  1.0000 -0.3139220081
C   C15       1.0  0.73774  0.56152  0.84844  1.0000 -0.0285766977
C   C16       1.0  0.69036  0.52670  0.79365  1.0000 -0.1182196946
C   C17       1.0  0.61281  0.56581  0.76695  1.0000 -0.0285766977
C   C18       1.0  0.58770  0.64109  0.79476  1.0000 -0.1105392849
C   C19       1.0  0.63570  0.67531  0.85079  1.0000 -0.0285766977
C   C20       1.0  0.70980  0.63450  0.87780  1.0000 -0.1105392849
C   C21       1.0  0.82398  0.52265  0.87448  1.0000 0.586607901
C   C22       1.0  0.56110  0.52957  0.70793  1.0000 0.5786912121
C   C23       1.0  0.60940  0.75746  0.87885  1.0000 0.5628307588
C   C24       1.0  0.93750  0.74830  0.92210  1.0000 0.4861004889
C   C25       1.0  0.91190  0.74190  0.84390  1.0000 -0.3139220081
C   C26       1.0  0.85740  0.81760  0.82990  1.0000 -0.1588522013
C   C27       1.0  0.86880  0.87210  0.89450  1.0000 -0.1105392849
C   C28       1.0  0.92640  0.84480  0.01680  1.0000 -0.3139220081
C   C29       1.0  0.23774  0.93848  0.15156  1.0000 -0.0285766977
C   C30       1.0  0.19036  0.97330  0.20635  1.0000 -0.1182196946
C   C31       1.0  0.11281  0.93419  0.23305  1.0000 -0.0285766977
C   C32       1.0  0.08770  0.85891  0.20524  1.0000 -0.1105392849
C   C33       1.0  0.13570  0.82469  0.14921  1.0000 -0.0285766977
C   C34       1.0  0.20980  0.86550  0.12220  1.0000 -0.1105392849
C   C35       1.0  0.32398  0.97735  0.12552  1.0000 0.586607901
C   C36       1.0  0.06110  0.97043  0.29207  1.0000 0.5786912121
C   C37       1.0  0.10940  0.74254  0.12115  1.0000 0.5628307588
C   C38       1.0  0.43750  0.75170  0.07790  1.0000 0.4861004889
C   C39       1.0  0.41190  0.75810  0.15610  1.0000 -0.3139220081
C   C40       1.0  0.35740  0.68240  0.17010  1.0000 -0.1588522013
C   C41       1.0  0.36880  0.62790  0.10550  1.0000 -0.1105392849
C   C42       1.0  0.42640  0.65520  0.98320  1.0000 -0.3139220081
C   C43       1.0  0.26226  0.06152  0.65156  1.0000 -0.0285766977
C   C44       1.0  0.30964  0.02670  0.70635  1.0000 -0.1182196946
C   C45       1.0  0.38719  0.06581  0.73305  1.0000 -0.0285766977
C   C46       1.0  0.41230  0.14109  0.70524  1.0000 -0.1105392849
C   C47       1.0  0.36430  0.17531  0.64921  1.0000 -0.0285766977
C   C48       1.0  0.29020  0.13450  0.62220  1.0000 -0.1105392849
C   C49       1.0  0.17602  0.02265  0.62552  1.0000 0.586607901
C   C50       1.0  0.43890  0.02957  0.79207  1.0000 0.5786912121
C   C51       1.0  0.39060  0.25746  0.62115  1.0000 0.5628307588
C   C52       1.0  0.06250  0.24830  0.57790  1.0000 0.4861004889
C   C53       1.0  0.08810  0.24190  0.65610  1.0000 -0.3139220081
C   C54       1.0  0.14260  0.31760  0.67010  1.0000 -0.1588522013
C   C55       1.0  0.13120  0.37210  0.60550  1.0000 -0.1105392849
C   C56       1.0  0.07360  0.34480  0.48320  1.0000 -0.3150838934
C   C57       1.0  0.23774  0.56152  0.65156  1.0000 -0.0285766977
C   C58       1.0  0.19036  0.52670  0.70635  1.0000 -0.1182196946
C   C59       1.0  0.11281  0.56581  0.73305  1.0000 -0.0285766977
C   C60       1.0  0.08770  0.64109  0.70524  1.0000 -0.1105392849
C   C61       1.0  0.13570  0.67531  0.64921  1.0000 -0.0285766977
C   C62       1.0  0.20980  0.63450  0.62220  1.0000 -0.1105392849
C   C63       1.0  0.32398  0.52265  0.62552  1.0000 0.586607901
C   C64       1.0  0.06110  0.52957  0.79207  1.0000 0.5786912121
C   C65       1.0  0.10940  0.75746  0.62115  1.0000 0.5628307588
C   C66       1.0  0.43750  0.74830  0.57790  1.0000 0.4861004889
C   C67       1.0  0.41190  0.74190  0.65610  1.0000 -0.3139220081
C   C68       1.0  0.35740  0.81760  0.67010  1.0000 -0.1588522013
C   C69       1.0  0.36880  0.87210  0.60550  1.0000 -0.1105392849
C   C70       1.0  0.42640  0.84480  0.48320  1.0000 -0.3139220081
C   C71       1.0  0.26226  0.43848  0.15156  1.0000 -0.0285766977
C   C72       1.0  0.30964  0.47330  0.20635  1.0000 -0.1182196946
C   C73       1.0  0.38719  0.43419  0.23305  1.0000 -0.0285766977
C   C74       1.0  0.41230  0.35891  0.20524  1.0000 -0.1105392849
C   C75       1.0  0.36430  0.32469  0.14921  1.0000 -0.0285766977
C   C76       1.0  0.29020  0.36550  0.12220  1.0000 -0.1105392849
C   C77       1.0  0.17602  0.47735  0.12552  1.0000 0.586607901
C   C78       1.0  0.43890  0.47043  0.29207  1.0000 0.5786912121
C   C79       1.0  0.39060  0.24254  0.12115  1.0000 0.5628307588
C   C80       1.0  0.06250  0.25170  0.07790  1.0000 0.4861004889
C   C81       1.0  0.08810  0.25810  0.15610  1.0000 -0.3139220081
C   C82       1.0  0.14260  0.18240  0.17010  1.0000 -0.1588522013
C   C83       1.0  0.13120  0.12790  0.10550  1.0000 -0.1105392849
C   C84       1.0  0.07360  0.15520  0.98320  1.0000 -0.3139220081
C   C85       1.0  0.76226  0.06152  0.84844  1.0000 -0.0285766977
C   C86       1.0  0.80964  0.02670  0.79365  1.0000 -0.1182196946
C   C87       1.0  0.88719  0.06581  0.76695  1.0000 -0.0285766977
C   C88       1.0  0.91230  0.14109  0.79476  1.0000 -0.1105392849
C   C89       1.0  0.86430  0.17531  0.85079  1.0000 -0.0285766977
C   C90       1.0  0.79020  0.13450  0.87780  1.0000 -0.1105392849
C   C91       1.0  0.67602  0.02265  0.87448  1.0000 0.586607901
C   C92       1.0  0.93890  0.02957  0.70793  1.0000 0.5786912121
C   C93       1.0  0.89060  0.25746  0.87885  1.0000 0.5628307588
C   C94       1.0  0.56250  0.24830  0.92210  1.0000 0.4861004889
C   C95       1.0  0.58810  0.24190  0.84390  1.0000 -0.3139220081
C   C96       1.0  0.64260  0.31760  0.82990  1.0000 -0.1588522013
C   C97       1.0  0.63120  0.37210  0.89450  1.0000 -0.1105392849
C   C98       1.0  0.57360  0.34480  0.01680  1.0000 -0.3139220081
C   C99       1.0  0.73774  0.93848  0.34844  1.0000 -0.0285766977
C   C100      1.0  0.69036  0.97330  0.29365  1.0000 -0.1182196946
C   C101      1.0  0.61281  0.93419  0.26695  1.0000 -0.0285766977
C   C102      1.0  0.58770  0.85891  0.29476  1.0000 -0.1105392849
C   C103      1.0  0.63570  0.82469  0.35079  1.0000 -0.0285766977
C   C104      1.0  0.70980  0.86550  0.37780  1.0000 -0.1105392849
C   C105      1.0  0.82398  0.97735  0.37448  1.0000 0.586607901
C   C106      1.0  0.56110  0.97043  0.20793  1.0000 0.5786912121
C   C107      1.0  0.60940  0.74254  0.37885  1.0000 0.5628307588
C   C108      1.0  0.93750  0.75170  0.42210  1.0000 0.4861004889
C   C109      1.0  0.91190  0.75810  0.34390  1.0000 -0.3139220081
C   C110      1.0  0.85740  0.68240  0.32990  1.0000 -0.1588522013
C   C111      1.0  0.86880  0.62790  0.39450  1.0000 -0.1105392849
C   C112      1.0  0.92640  0.65520  0.51680  1.0000 -0.3139220081
N   N1        1.0  0.59000  0.18060  0.44580  1.0000 -0.039149545
N   N2        1.0  0.91000  0.81940  0.94580  1.0000 -0.039149545
N   N3        1.0  0.41000  0.68060  0.05420  1.0000 -0.039149545
N   N4        1.0  0.09000  0.31940  0.55420  1.0000 -0.039149545
N   N5        1.0  0.41000  0.81940  0.55420  1.0000 -0.039149545
N   N6        1.0  0.09000  0.18060  0.05420  1.0000 -0.039149545
N   N7        1.0  0.59000  0.31940  0.94580  1.0000 -0.039149545
N   N8        1.0  0.91000  0.68060  0.44580  1.0000 -0.039149545
O   O1        1.0  0.63516  0.44267  0.42343  1.0000 -0.5714513707
O   O2        1.0  0.36316  0.39524  0.46490  1.0000 -0.6482144691
O   O3        1.0  0.65003  0.54243  0.34432  1.0000 -0.5473727085
O   O4        1.0  0.94953  0.54747  0.20806  1.0000 -0.5473727085
O   O5        1.0  0.97404  0.42206  0.16391  1.0000 -0.5714513707
O   O6        1.0  0.95508  0.20630  0.34728  1.0000 -0.5576238953
O   O7        1.0  0.84485  0.21224  0.42822  1.0000 -0.5714513707
O   O8        1.0  0.47156  0.55270  0.44915  1.0000 -0.8674809657
O   O9        1.0  0.52281  0.30294  0.45777  1.0000 -0.5058737569
O   O10       1.0  0.86484  0.55733  0.92343  1.0000 -0.5714513707
O   O11       1.0  0.13684  0.60476  0.96490  1.0000 -0.6482144691
O   O12       1.0  0.84997  0.45757  0.84432  1.0000 -0.5473727085
O   O13       1.0  0.55047  0.45253  0.70806  1.0000 -0.5473727085
O   O14       1.0  0.52596  0.57794  0.66391  1.0000 -0.5714513707
O   O15       1.0  0.54492  0.79370  0.84728  1.0000 -0.5576238953
O   O16       1.0  0.65515  0.78776  0.92822  1.0000 -0.5714513707
O   O17       1.0  0.02844  0.44730  0.94915  1.0000 -0.8674809657
O   O18       1.0  0.97719  0.69706  0.95777  1.0000 -0.5058737569
O   O19       1.0  0.36484  0.94267  0.07657  1.0000 -0.5714513707
O   O20       1.0  0.63684  0.89524  0.03510  1.0000 -0.6482144691
O   O21       1.0  0.34997  0.04243  0.15568  1.0000 -0.5473727085
O   O22       1.0  0.05047  0.04747  0.29194  1.0000 -0.5473727085
O   O23       1.0  0.02596  0.92206  0.33609  1.0000 -0.5714513707
O   O24       1.0  0.04492  0.70630  0.15272  1.0000 -0.5576238953
O   O25       1.0  0.15515  0.71224  0.07178  1.0000 -0.5714513707
O   O26       1.0  0.52844  0.05270  0.05085  1.0000 -0.8674809657
O   O27       1.0  0.47719  0.80294  0.04223  1.0000 -0.5058737569
O   O28       1.0  0.13516  0.05733  0.57657  1.0000 -0.5714513707
O   O29       1.0  0.86316  0.10476  0.53510  1.0000 -0.6482144691
O   O30       1.0  0.15003  0.95757  0.65568  1.0000 -0.5473727085
O   O31       1.0  0.44953  0.95253  0.79194  1.0000 -0.5473727085
O   O32       1.0  0.47404  0.07794  0.83609  1.0000 -0.5714513707
O   O33       1.0  0.45508  0.29370  0.65272  1.0000 -0.5576238953
O   O34       1.0  0.34485  0.28776  0.57178  1.0000 -0.5714513707
O   O35       1.0  0.97156  0.94730  0.55085  1.0000 -0.8674809657
O   O36       1.0  0.02281  0.19706  0.54223  1.0000 -0.5058737569
O   O37       1.0  0.36484  0.55733  0.57657  1.0000 -0.5714513707
O   O38       1.0  0.63684  0.60476  0.53510  1.0000 -0.6482144691
O   O39       1.0  0.34997  0.45757  0.65568  1.0000 -0.5473727085
O   O40       1.0  0.05047  0.45253  0.79194  1.0000 -0.5473727085
O   O41       1.0  0.02596  0.57794  0.83609  1.0000 -0.5714513707
O   O42       1.0  0.04492  0.79370  0.65272  1.0000 -0.5576238953
O   O43       1.0  0.15515  0.78776  0.57178  1.0000 -0.5714513707
O   O44       1.0  0.52844  0.44730  0.55085  1.0000 -0.8674809657
O   O45       1.0  0.47719  0.69706  0.54223  1.0000 -0.5058737569
O   O46       1.0  0.13516  0.44267  0.07657  1.0000 -0.5714513707
O   O47       1.0  0.86316  0.39524  0.03510  1.0000 -0.6482144691
O   O48       1.0  0.15003  0.54243  0.15568  1.0000 -0.5473727085
O   O49       1.0  0.44953  0.54747  0.29194  1.0000 -0.5473727085
O   O50       1.0  0.47404  0.42206  0.33609  1.0000 -0.5714513707
O   O51       1.0  0.45508  0.20630  0.15272  1.0000 -0.5576238953
O   O52       1.0  0.34485  0.21224  0.07178  1.0000 -0.5714513707
O   O53       1.0  0.97156  0.55270  0.05085  1.0000 -0.8674809657
O   O54       1.0  0.02281  0.30294  0.04223  1.0000 -0.5058737569
O   O55       1.0  0.63516  0.05733  0.92343  1.0000 -0.5714513707
O   O56       1.0  0.36316  0.10476  0.96490  1.0000 -0.6482144691
O   O57       1.0  0.65003  0.95757  0.84432  1.0000 -0.5473727085
O   O58       1.0  0.94953  0.95253  0.70806  1.0000 -0.5473727085
O   O59       1.0  0.97404  0.07794  0.66391  1.0000 -0.5714513707
O   O60       1.0  0.95508  0.29370  0.84728  1.0000 -0.5576238953
O   O61       1.0  0.84485  0.28776  0.92822  1.0000 -0.5714513707
O   O62       1.0  0.47156  0.94730  0.94915  1.0000 -0.8674809657
O   O63       1.0  0.52281  0.19706  0.95777  1.0000 -0.5058737569
O   O64       1.0  0.86484  0.94267  0.42343  1.0000 -0.5714513707
O   O65       1.0  0.13684  0.89524  0.46490  1.0000 -0.6482144691
O   O66       1.0  0.84997  0.04243  0.34432  1.0000 -0.5473727085
O   O67       1.0  0.55047  0.04747  0.20806  1.0000 -0.5473727085
O   O68       1.0  0.52596  0.92206  0.16391  1.0000 -0.5714513707
O   O69       1.0  0.54492  0.70630  0.34728  1.0000 -0.5576238953
O   O70       1.0  0.65515  0.71224  0.42822  1.0000 -0.5714513707
O   O71       1.0  0.02844  0.05270  0.44915  1.0000 -0.8674809657
O   O72       1.0  0.97719  0.80294  0.45777  1.0000 -0.5058737569
