# DDEC6 charges by PACMAN v1.1 (https://github.com/mtap-research/PACMAN-charge/)
data_2019[Zr][nan]3[FSR]1
_chemical_formula_sum              "Zr4 H16 C48 N8 O28"
_cell_length_a       17.5096
_cell_length_b       17.5096
_cell_length_c       7.7602
_cell_angle_alpha    79.6552
_cell_angle_beta     100.345
_cell_angle_gamma    127.954

_symmetry_space_group_name_H-M    "P 1"
_symmetry_Int_Tables_number       1

loop_
  _symmetry_equiv_pos_as_xyz
  'x, y, z'

loop_
  _atom_site_type_symbol
  _atom_site_label
  _atom_site_symmetry_multiplicity
  _atom_site_fract_x
  _atom_site_fract_y
  _atom_site_fract_z
  _atom_site_occupancy
  _atom_site_charge
Zr  Zr1       1.0  0.06144  0.98224  0.14800  1.0000 2.3007160423
Zr  Zr2       1.0  0.96682  0.05886  0.32070  1.0000 2.3546777961
Zr  Zr3       1.0  0.01776  0.93856  0.64800  1.0000 2.3007160423
Zr  Zr4       1.0  0.94114  0.03318  0.82070  1.0000 2.3565748928
H   H1        1.0  0.34989  0.06621  0.17932  1.0000 0.1397026477
H   H2        1.0  0.28609  0.97820  0.69589  1.0000 0.1568552626
H   H3        1.0  0.75506  0.11004  0.26031  1.0000 0.1460623739
H   H4        1.0  0.69125  0.02203  0.77688  1.0000 0.1397026477
H   H5        1.0  0.25522  0.35686  0.35260  1.0000 0.1310345696
H   H6        1.0  0.36569  0.23291  0.22149  1.0000 0.1568552626
H   H7        1.0  0.68340  0.78308  0.31142  1.0000 0.1568552626
H   H8        1.0  0.79387  0.65913  0.18031  1.0000 0.1310345696
H   H9        1.0  0.93379  0.65011  0.67932  1.0000 0.1397026477
H   H10       1.0  0.02181  0.71391  0.19589  1.0000 0.1568552626
H   H11       1.0  0.88996  0.24494  0.76031  1.0000 0.1460623739
H   H12       1.0  0.97797  0.30875  0.27688  1.0000 0.1397026477
H   H13       1.0  0.64314  0.74478  0.85260  1.0000 0.1310345696
H   H14       1.0  0.76709  0.63431  0.72149  1.0000 0.1568552626
H   H15       1.0  0.21692  0.31660  0.81142  1.0000 0.1568552626
H   H16       1.0  0.34087  0.20613  0.68031  1.0000 0.1310345696
C   C1        1.0  0.47523  0.03921  0.96904  1.0000 0.0988071242
C   C2        1.0  0.36577  0.05167  0.08817  1.0000 0.0478008853
C   C3        1.0  0.30380  0.02066  0.93477  1.0000 -0.0712015222
C   C4        1.0  0.32755  0.99893  0.79851  1.0000 -0.1574365853
C   C5        1.0  0.41326  0.00820  0.81564  1.0000 0.2392921048
C   C6        1.0  0.56592  0.04902  0.98716  1.0000 0.0988071242
C   C7        1.0  0.62789  0.08003  0.14056  1.0000 0.2484612984
C   C8        1.0  0.71360  0.08930  0.15769  1.0000 -0.1486833694
C   C9        1.0  0.73733  0.06757  0.02143  1.0000 -0.0835161062
C   C10       1.0  0.67537  0.03657  0.86803  1.0000 0.0563574878
C   C11       1.0  0.21312  0.01086  0.91664  1.0000 0.6372542379
C   C12       1.0  0.82803  0.07739  0.03956  1.0000 0.6372542379
C   C13       1.0  0.47663  0.46029  0.27106  1.0000 0.0988071242
C   C14       1.0  0.30766  0.36218  0.32341  1.0000 0.0342491951
C   C15       1.0  0.29546  0.27996  0.28849  1.0000 -0.0712015222
C   C16       1.0  0.37385  0.28791  0.24485  1.0000 -0.170981914
C   C17       1.0  0.46443  0.37807  0.23614  1.0000 0.2392921048
C   C18       1.0  0.57246  0.55570  0.26184  1.0000 0.0988071242
C   C19       1.0  0.58466  0.63792  0.29677  1.0000 0.2392921048
C   C20       1.0  0.67524  0.72808  0.28805  1.0000 -0.1574365853
C   C21       1.0  0.75363  0.73603  0.24442  1.0000 -0.0712015222
C   C22       1.0  0.74143  0.65381  0.20950  1.0000 0.0342491951
C   C23       1.0  0.19963  0.18455  0.29770  1.0000 0.6478227076
C   C24       1.0  0.84946  0.83144  0.23520  1.0000 0.6478227076
C   C25       1.0  0.96079  0.52477  0.46904  1.0000 0.0988071242
C   C26       1.0  0.94833  0.63423  0.58817  1.0000 0.0478008853
C   C27       1.0  0.97934  0.69620  0.43477  1.0000 -0.0712015222
C   C28       1.0  0.00107  0.67245  0.29851  1.0000 -0.1574365853
C   C29       1.0  0.99179  0.58674  0.31564  1.0000 0.2392921048
C   C30       1.0  0.95098  0.43408  0.48716  1.0000 0.0988071242
C   C31       1.0  0.91997  0.37211  0.64056  1.0000 0.2484612984
C   C32       1.0  0.91070  0.28640  0.65769  1.0000 -0.1486833694
C   C33       1.0  0.93243  0.26267  0.52143  1.0000 -0.0835161062
C   C34       1.0  0.96343  0.32463  0.36803  1.0000 0.0563574878
C   C35       1.0  0.98914  0.78688  0.41664  1.0000 0.6372542379
C   C36       1.0  0.92261  0.17197  0.53956  1.0000 0.6372542379
C   C37       1.0  0.53971  0.52337  0.77106  1.0000 0.0988071242
C   C38       1.0  0.63782  0.69234  0.82341  1.0000 0.0342491951
C   C39       1.0  0.72004  0.70453  0.78849  1.0000 -0.0712015222
C   C40       1.0  0.71209  0.62615  0.74485  1.0000 -0.170981914
C   C41       1.0  0.62193  0.53557  0.73614  1.0000 0.2392921048
C   C42       1.0  0.44430  0.42754  0.76184  1.0000 0.0988071242
C   C43       1.0  0.36208  0.41534  0.79677  1.0000 0.2392921048
C   C44       1.0  0.27192  0.32476  0.78805  1.0000 -0.1574365853
C   C45       1.0  0.26397  0.24637  0.74442  1.0000 -0.0712015222
C   C46       1.0  0.34619  0.25857  0.70950  1.0000 0.0342491951
C   C47       1.0  0.81545  0.80037  0.79770  1.0000 0.6478227076
C   C48       1.0  0.16856  0.15054  0.73520  1.0000 0.6478227076
N   N1        1.0  0.45148  0.06094  0.10530  1.0000 -0.1574365853
N   N2        1.0  0.58966  0.02730  0.85090  1.0000 -0.1574365853
N   N3        1.0  0.39824  0.45234  0.31470  1.0000 -0.170981914
N   N4        1.0  0.65085  0.56365  0.21821  1.0000 -0.1805769803
N   N5        1.0  0.93906  0.54852  0.60530  1.0000 -0.1574365853
N   N6        1.0  0.97270  0.41034  0.35090  1.0000 -0.1574365853
N   N7        1.0  0.54766  0.60176  0.81470  1.0000 -0.170981914
N   N8        1.0  0.43635  0.34915  0.71821  1.0000 -0.1805769803
O   O1        1.0  0.05885  0.01475  0.40130  1.0000 -0.9423552158
O   O2        1.0  0.00780  0.06840  0.07140  1.0000 -1.1820822361
O   O3        1.0  0.20190  0.05220  0.01945  1.0000 -0.6151953044
O   O4        1.0  0.14543  0.96097  0.79806  1.0000 -0.6049051883
O   O5        1.0  0.89055  0.11677  0.17104  1.0000 -0.5493298771
O   O6        1.0  0.84441  0.04653  0.92384  1.0000 -0.5594183805
O   O7        1.0  0.43631  0.98711  0.68332  1.0000 -0.4230155649
O   O8        1.0  0.60483  0.10113  0.27288  1.0000 -0.4062473926
O   O9        1.0  0.12616  0.17808  0.32732  1.0000 -0.5651553872
O   O10       1.0  0.18971  0.10803  0.27610  1.0000 -0.5020639899
O   O11       1.0  0.86916  0.90056  0.31433  1.0000 -0.6508332792
O   O12       1.0  0.91314  0.84532  0.14806  1.0000 -0.5594183805
O   O13       1.0  0.54055  0.38579  0.19377  1.0000 -0.3790037485
O   O14       1.0  0.50854  0.63020  0.33914  1.0000 -0.3790037485
O   O15       1.0  0.98525  0.94115  0.90130  1.0000 -0.9473363759
O   O16       1.0  0.93160  0.99220  0.57140  1.0000 -1.1820822361
O   O17       1.0  0.94780  0.79810  0.51945  1.0000 -0.6151953044
O   O18       1.0  0.03903  0.85457  0.29806  1.0000 -0.6053297522
O   O19       1.0  0.88323  0.10945  0.67104  1.0000 -0.5493298771
O   O20       1.0  0.95347  0.15559  0.42384  1.0000 -0.5594183805
O   O21       1.0  0.01289  0.56369  0.18332  1.0000 -0.4230155649
O   O22       1.0  0.89887  0.39517  0.77288  1.0000 -0.4062473926
O   O23       1.0  0.82192  0.87384  0.82732  1.0000 -0.5651553872
O   O24       1.0  0.89197  0.81029  0.77610  1.0000 -0.5020639899
O   O25       1.0  0.09944  0.13084  0.81433  1.0000 -0.6508332792
O   O26       1.0  0.15468  0.08686  0.64806  1.0000 -0.5594183805
O   O27       1.0  0.61421  0.45945  0.69377  1.0000 -0.3790037485
O   O28       1.0  0.36980  0.49146  0.83914  1.0000 -0.3790037485
