# DDEC6 charges by PACMAN v1.1 (https://github.com/mtap-research/PACMAN-charge/)
data_2019[Zn][sql]2[FSR]3
_chemical_formula_sum              "Zn2 H60 C68 N24 O2"
_cell_length_a       8.5068
_cell_length_b       20.669
_cell_length_c       22.1447
_cell_angle_alpha    90
_cell_angle_beta     90
_cell_angle_gamma    90

_symmetry_space_group_name_H-M    "P 1"
_symmetry_Int_Tables_number       1

loop_
  _symmetry_equiv_pos_as_xyz
  'x, y, z'

loop_
  _atom_site_type_symbol
  _atom_site_label
  _atom_site_symmetry_multiplicity
  _atom_site_fract_x
  _atom_site_fract_y
  _atom_site_fract_z
  _atom_site_occupancy
  _atom_site_charge
Zn  Zn1       1.0  0.46668  0.50000  0.50000  1.0000 0.646607536
Zn  Zn2       1.0  0.53332  0.00000  0.00000  1.0000 0.646607536
H   H1        1.0  0.55210  0.27180  0.55520  1.0000 0.12018294
H   H2        1.0  0.72550  0.40010  0.44050  1.0000 0.12018294
H   H3        1.0  0.78080  0.20890  0.53180  1.0000 0.1096368103
H   H4        1.0  0.92920  0.12880  0.48450  1.0000 0.1096368103
H   H5        1.0  0.92480  0.23280  0.32960  1.0000 0.1096368103
H   H6        1.0  0.77040  0.31130  0.37580  1.0000 0.12018294
H   H7        1.0  0.13770  0.13970  0.35470  1.0000 0.1306925978
H   H8        1.0  0.07280  0.08730  0.40190  1.0000 0.12018294
H   H9        1.0  0.87380  0.00950  0.36990  1.0000 0.1096368103
H   H10       1.0  0.72070  0.96250  0.29420  1.0000 0.1096368103
H   H11       1.0  0.84280  0.10670  0.18000  1.0000 0.12018294
H   H12       1.0  0.99760  0.15290  0.25640  1.0000 0.1096368103
H   H13       1.0  0.61150  0.91130  0.21260  1.0000 0.12018294
H   H14       1.0  0.65950  0.07220  0.11830  1.0000 0.1096368103
H   H15       1.0  0.18300  0.51200  0.53020  1.0000 0.3553588271
H   H16       1.0  0.55210  0.72820  0.44480  1.0000 0.12018294
H   H17       1.0  0.72550  0.59990  0.55950  1.0000 0.12018294
H   H18       1.0  0.78080  0.79110  0.46820  1.0000 0.1096368103
H   H19       1.0  0.92920  0.87120  0.51550  1.0000 0.1096368103
H   H20       1.0  0.92480  0.76720  0.67040  1.0000 0.1096368103
H   H21       1.0  0.77040  0.68870  0.62420  1.0000 0.12018294
H   H22       1.0  0.13770  0.86030  0.64530  1.0000 0.12018294
H   H23       1.0  0.07280  0.91270  0.59810  1.0000 0.12018294
H   H24       1.0  0.87380  0.99050  0.63010  1.0000 0.1096368103
H   H25       1.0  0.72070  0.03750  0.70580  1.0000 0.1096368103
H   H26       1.0  0.84280  0.89330  0.82000  1.0000 0.12018294
H   H27       1.0  0.99760  0.84710  0.74360  1.0000 0.1096368103
H   H28       1.0  0.61150  0.08870  0.78740  1.0000 0.12018294
H   H29       1.0  0.65950  0.92780  0.88170  1.0000 0.1096368103
H   H30       1.0  0.18300  0.48800  0.46980  1.0000 0.3553588271
H   H31       1.0  0.44790  0.22820  0.05520  1.0000 0.12018294
H   H32       1.0  0.27450  0.09990  0.94050  1.0000 0.12018294
H   H33       1.0  0.21920  0.29110  0.03180  1.0000 0.1096368103
H   H34       1.0  0.07080  0.37120  0.98450  1.0000 0.1096368103
H   H35       1.0  0.07520  0.26720  0.82960  1.0000 0.1096368103
H   H36       1.0  0.22960  0.18870  0.87580  1.0000 0.12018294
H   H37       1.0  0.86230  0.36030  0.85470  1.0000 0.1306925978
H   H38       1.0  0.92720  0.41270  0.90190  1.0000 0.12018294
H   H39       1.0  0.12620  0.49050  0.86990  1.0000 0.1096368103
H   H40       1.0  0.27930  0.53750  0.79420  1.0000 0.1096368103
H   H41       1.0  0.15720  0.39330  0.68000  1.0000 0.12018294
H   H42       1.0  0.00240  0.34710  0.75640  1.0000 0.1096368103
H   H43       1.0  0.38850  0.58870  0.71260  1.0000 0.12018294
H   H44       1.0  0.34050  0.42780  0.61830  1.0000 0.1096368103
H   H45       1.0  0.81700  0.98800  0.03020  1.0000 0.3553588271
H   H46       1.0  0.44790  0.77180  0.94480  1.0000 0.12018294
H   H47       1.0  0.27450  0.90010  0.05950  1.0000 0.12018294
H   H48       1.0  0.21920  0.70890  0.96820  1.0000 0.1096368103
H   H49       1.0  0.07080  0.62880  0.01550  1.0000 0.1096368103
H   H50       1.0  0.07520  0.73280  0.17040  1.0000 0.1096368103
H   H51       1.0  0.22960  0.81130  0.12420  1.0000 0.12018294
H   H52       1.0  0.86230  0.63970  0.14530  1.0000 0.1306925978
H   H53       1.0  0.92720  0.58730  0.09810  1.0000 0.12018294
H   H54       1.0  0.12620  0.50950  0.13010  1.0000 0.1096368103
H   H55       1.0  0.27930  0.46250  0.20580  1.0000 0.1096368103
H   H56       1.0  0.15720  0.60670  0.32000  1.0000 0.12018294
H   H57       1.0  0.00240  0.65290  0.24360  1.0000 0.1096368103
H   H58       1.0  0.38850  0.41130  0.28740  1.0000 0.12018294
H   H59       1.0  0.34050  0.57220  0.38170  1.0000 0.1096368103
H   H60       1.0  0.81700  0.01200  0.96980  1.0000 0.3553588271
C   C1        1.0  0.57220  0.31120  0.53450  1.0000 0.0663377449
C   C2        1.0  0.66690  0.38040  0.47210  1.0000 0.0493573473
C   C3        1.0  0.76500  0.26730  0.45830  1.0000 0.12018294
C   C4        1.0  0.81000  0.21340  0.49060  1.0000 -0.1913426209
C   C5        1.0  0.89830  0.16600  0.46240  1.0000 -0.1603031296
C   C6        1.0  0.94250  0.17210  0.40200  1.0000 0.088870181
C   C7        1.0  0.89460  0.22760  0.37060  1.0000 -0.1495208618
C   C8        1.0  0.80470  0.27450  0.39790  1.0000 -0.2051880032
C   C9        1.0  0.04110  0.12000  0.37160  1.0000 -0.3004530042
C   C10       1.0  0.94910  0.08720  0.32120  1.0000 0.088870181
C   C11       1.0  0.86720  0.02970  0.33150  1.0000 -0.1603031296
C   C12       1.0  0.77630  0.00150  0.28650  1.0000 -0.1913426209
C   C13       1.0  0.76750  0.03100  0.23040  1.0000 0.1306925978
C   C14       1.0  0.84860  0.08690  0.21870  1.0000 -0.2169023574
C   C15       1.0  0.94020  0.11450  0.26460  1.0000 -0.1495208618
C   C16       1.0  0.60630  0.94230  0.18100  1.0000 0.061307599
C   C17       1.0  0.63230  0.02950  0.13020  1.0000 0.061307599
C   C18       1.0  0.57220  0.68880  0.46550  1.0000 0.0663377449
C   C19       1.0  0.66690  0.61960  0.52790  1.0000 0.0493573473
C   C20       1.0  0.76500  0.73270  0.54170  1.0000 0.12018294
C   C21       1.0  0.81000  0.78660  0.50940  1.0000 -0.1913426209
C   C22       1.0  0.89830  0.83400  0.53760  1.0000 -0.1603031296
C   C23       1.0  0.94250  0.82790  0.59800  1.0000 0.088870181
C   C24       1.0  0.89460  0.77240  0.62940  1.0000 -0.1495208618
C   C25       1.0  0.80470  0.72550  0.60210  1.0000 -0.2051880032
C   C26       1.0  0.04110  0.88000  0.62840  1.0000 -0.3004530042
C   C27       1.0  0.94910  0.91280  0.67880  1.0000 0.088870181
C   C28       1.0  0.86720  0.97030  0.66850  1.0000 -0.1603031296
C   C29       1.0  0.77630  0.99850  0.71350  1.0000 -0.1913426209
C   C30       1.0  0.76750  0.96900  0.76960  1.0000 0.1306925978
C   C31       1.0  0.84860  0.91310  0.78130  1.0000 -0.2169023574
C   C32       1.0  0.94020  0.88550  0.73540  1.0000 -0.1495208618
C   C33       1.0  0.60630  0.05770  0.81900  1.0000 0.061307599
C   C34       1.0  0.63230  0.97050  0.86980  1.0000 0.061307599
C   C35       1.0  0.42780  0.18880  0.03450  1.0000 0.0663377449
C   C36       1.0  0.33310  0.11960  0.97210  1.0000 0.0493573473
C   C37       1.0  0.23500  0.23270  0.95830  1.0000 0.12018294
C   C38       1.0  0.19000  0.28660  0.99060  1.0000 -0.1913426209
C   C39       1.0  0.10170  0.33400  0.96240  1.0000 -0.1603031296
C   C40       1.0  0.05750  0.32790  0.90200  1.0000 0.088870181
C   C41       1.0  0.10540  0.27240  0.87060  1.0000 -0.1495208618
C   C42       1.0  0.19530  0.22550  0.89790  1.0000 -0.203227368
C   C43       1.0  0.95890  0.38000  0.87160  1.0000 -0.3004530042
C   C44       1.0  0.05090  0.41280  0.82120  1.0000 0.088870181
C   C45       1.0  0.13280  0.47030  0.83150  1.0000 -0.1603031296
C   C46       1.0  0.22370  0.49850  0.78650  1.0000 -0.1913426209
C   C47       1.0  0.23250  0.46900  0.73040  1.0000 0.1306925978
C   C48       1.0  0.15140  0.41310  0.71870  1.0000 -0.2169023574
C   C49       1.0  0.05980  0.38550  0.76460  1.0000 -0.1495208618
C   C50       1.0  0.39370  0.55770  0.68100  1.0000 0.061307599
C   C51       1.0  0.36770  0.47050  0.63020  1.0000 0.061307599
C   C52       1.0  0.42780  0.81120  0.96550  1.0000 0.0663377449
C   C53       1.0  0.33310  0.88040  0.02790  1.0000 0.0493573473
C   C54       1.0  0.23500  0.76730  0.04170  1.0000 0.12018294
C   C55       1.0  0.19000  0.71340  0.00940  1.0000 -0.1913426209
C   C56       1.0  0.10170  0.66600  0.03760  1.0000 -0.1603031296
C   C57       1.0  0.05750  0.67210  0.09800  1.0000 0.088870181
C   C58       1.0  0.10540  0.72760  0.12940  1.0000 -0.1495208618
C   C59       1.0  0.19530  0.77450  0.10210  1.0000 -0.203227368
C   C60       1.0  0.95890  0.62000  0.12840  1.0000 -0.3004530042
C   C61       1.0  0.05090  0.58720  0.17880  1.0000 0.088870181
C   C62       1.0  0.13280  0.52970  0.16850  1.0000 -0.1603031296
C   C63       1.0  0.22370  0.50150  0.21350  1.0000 -0.1913426209
C   C64       1.0  0.23250  0.53100  0.26960  1.0000 0.1306925978
C   C65       1.0  0.15140  0.58690  0.28130  1.0000 -0.2169023574
C   C66       1.0  0.05980  0.61450  0.23540  1.0000 -0.1495208618
C   C67       1.0  0.39370  0.44230  0.31900  1.0000 0.061307599
C   C68       1.0  0.36770  0.52950  0.36980  1.0000 0.061307599
N   N1        1.0  0.56840  0.41050  0.50743  1.0000 -0.203227368
N   N2        1.0  0.50650  0.36640  0.54768  1.0000 -0.2308787823
N   N3        1.0  0.67340  0.31731  0.48701  1.0000 -0.0189794918
N   N4        1.0  0.67220  0.00270  0.18363  1.0000 -0.0276292831
N   N5        1.0  0.53560  0.93270  0.12961  1.0000 -0.237330892
N   N6        1.0  0.55230  0.98953  0.09727  1.0000 -0.203227368
N   N7        1.0  0.56840  0.58950  0.49257  1.0000 -0.203227368
N   N8        1.0  0.50650  0.63360  0.45232  1.0000 -0.2308787823
N   N9        1.0  0.67340  0.68269  0.51299  1.0000 -0.0189794918
N   N10       1.0  0.67220  0.99730  0.81637  1.0000 -0.0276292831
N   N11       1.0  0.53560  0.06730  0.87039  1.0000 -0.237330892
N   N12       1.0  0.55230  0.01047  0.90273  1.0000 -0.203227368
N   N13       1.0  0.43160  0.08950  0.00743  1.0000 -0.203227368
N   N14       1.0  0.49350  0.13360  0.04768  1.0000 -0.2308787823
N   N15       1.0  0.32660  0.18269  0.98701  1.0000 -0.0189794918
N   N16       1.0  0.32780  0.49730  0.68363  1.0000 -0.0276292831
N   N17       1.0  0.46440  0.56730  0.62961  1.0000 -0.237330892
N   N18       1.0  0.44770  0.51047  0.59727  1.0000 -0.203227368
N   N19       1.0  0.43160  0.91050  0.99257  1.0000 -0.203227368
N   N20       1.0  0.49350  0.86640  0.95232  1.0000 -0.2308787823
N   N21       1.0  0.32660  0.81731  0.01299  1.0000 -0.0189794918
N   N22       1.0  0.32780  0.50270  0.31637  1.0000 -0.0276292831
N   N23       1.0  0.46440  0.43270  0.37039  1.0000 -0.237330892
N   N24       1.0  0.44770  0.48953  0.40273  1.0000 -0.203227368
O   O1        1.0  0.23020  0.50000  0.50000  1.0000 -0.6340796471
O   O2        1.0  0.76980  0.00000  0.00000  1.0000 -0.6340796471
