# DDEC6 charges by PACMAN v1.1 (https://github.com/mtap-research/PACMAN-charge/)
data_2019[Co][nan]3[FSR]18
_chemical_formula_sum              "Co8 H88 C96 N8 O44"
_cell_length_a       11.887
_cell_length_b       12.93
_cell_length_c       21.037
_cell_angle_alpha    103.317
_cell_angle_beta     97.498
_cell_angle_gamma    90.347

_symmetry_space_group_name_H-M    "P 1"
_symmetry_Int_Tables_number       1

loop_
  _symmetry_equiv_pos_as_xyz
  'x, y, z'

loop_
  _atom_site_type_symbol
  _atom_site_label
  _atom_site_symmetry_multiplicity
  _atom_site_fract_x
  _atom_site_fract_y
  _atom_site_fract_z
  _atom_site_occupancy
  _atom_site_charge
Co  Co1       1.0  0.97424  0.08387  0.19900  1.0000 0.9515337269
Co  Co2       1.0  0.93153  0.84195  0.25529  1.0000 0.8860761742
Co  Co3       1.0  0.20777  0.73390  0.29385  1.0000 0.8822899679
Co  Co4       1.0  0.17017  0.93967  0.24024  1.0000 1.0378463487
Co  Co5       1.0  0.02576  0.91613  0.80100  1.0000 0.9515337269
Co  Co6       1.0  0.06847  0.15805  0.74471  1.0000 0.8860761742
Co  Co7       1.0  0.79223  0.26610  0.70615  1.0000 0.8822899679
Co  Co8       1.0  0.82983  0.06033  0.75976  1.0000 1.0378463487
H   H1        1.0  0.92790  0.03350  0.54200  1.0000 0.1501994848
H   H2        1.0  0.63190  0.86800  0.51750  1.0000 0.1434206958
H   H3        1.0  0.19420  0.30350  0.11990  1.0000 0.1501994848
H   H4        1.0  0.04790  0.12040  0.94740  1.0000 0.1501994848
H   H5        1.0  0.83210  0.37750  0.92560  1.0000 0.1214921723
H   H6        1.0  0.74960  0.29980  0.94630  1.0000 0.1214921723
H   H7        1.0  0.68710  0.04950  0.39150  1.0000 0.1214921723
H   H8        1.0  0.60940  0.13010  0.90970  1.0000 0.1297175344
H   H9        1.0  0.92550  0.21310  0.39160  1.0000 0.1297175344
H   H10       1.0  0.79780  0.17800  0.38600  1.0000 0.1089093615
H   H11       1.0  0.77180  0.13160  0.98110  1.0000 0.1214921723
H   H12       1.0  0.47960  0.15100  0.00960  1.0000 0.1214921723
H   H13       1.0  0.71460  0.08390  0.18350  1.0000 0.1089093615
H   H14       1.0  0.54360  0.96190  0.33420  1.0000 0.1214921723
H   H15       1.0  0.48530  0.04370  0.38600  1.0000 0.1297175344
H   H16       1.0  0.29680  0.17390  0.12160  1.0000 0.1214921723
H   H17       1.0  0.32860  0.05950  0.08630  1.0000 0.1214921723
H   H18       1.0  0.91770  0.10090  0.05620  1.0000 0.1089093615
H   H19       1.0  0.17880  0.22320  0.88650  1.0000 0.1089093615
H   H20       1.0  0.91430  0.40120  0.02260  1.0000 0.1297175344
H   H21       1.0  0.55980  0.10940  0.11140  1.0000 0.1297175344
H   H22       1.0  0.77000  0.76890  0.58060  1.0000 0.1089093615
H   H23       1.0  0.69780  0.85390  0.62240  1.0000 0.1214921723
H   H24       1.0  0.91110  0.50050  0.13640  1.0000 0.1297175344
H   H25       1.0  0.97500  0.55490  0.09120  1.0000 0.1214921723
H   H26       1.0  0.93230  0.86270  0.40030  1.0000 0.1015875186
H   H27       1.0  0.92250  0.76770  0.47750  1.0000 0.1297175344
H   H28       1.0  0.32850  0.10960  0.73350  1.0000 0.1015875186
H   H29       1.0  0.49490  0.10070  0.79790  1.0000 0.1501994848
H   H30       1.0  0.33900  0.21260  0.95550  1.0000 0.1297175344
H   H31       1.0  0.80880  0.62430  0.25970  1.0000 0.1089093615
H   H32       1.0  0.70990  0.22430  0.55570  1.0000 0.1089093615
H   H33       1.0  0.70970  0.30540  0.47070  1.0000 0.1297175344
H   H34       1.0  0.77700  0.44380  0.42180  1.0000 0.1214921723
H   H35       1.0  0.79060  0.52280  0.33420  1.0000 0.1297175344
H   H36       1.0  0.88360  0.61050  0.51080  1.0000 0.1214921723
H   H37       1.0  0.91610  0.53390  0.58780  1.0000 0.1297175344
H   H38       1.0  0.91470  0.44550  0.67130  1.0000 0.1089093615
H   H39       1.0  0.10910  0.89990  0.34690  1.0000 0.3605337064
H   H40       1.0  0.99650  0.88610  0.14970  1.0000 0.3605337064
H   H41       1.0  0.04300  0.28200  0.24030  1.0000 0.3369032363
H   H42       1.0  0.00300  0.27000  0.17660  1.0000 0.2998546283
H   H43       1.0  0.37360  0.67930  0.28850  1.0000 0.2998546283
H   H44       1.0  0.29520  0.62420  0.24140  1.0000 0.2806241582
H   H45       1.0  0.07210  0.96650  0.45800  1.0000 0.1501994848
H   H46       1.0  0.36810  0.13200  0.48250  1.0000 0.1434206958
H   H47       1.0  0.80580  0.69650  0.88010  1.0000 0.1501994848
H   H48       1.0  0.95210  0.87960  0.05260  1.0000 0.1501994848
H   H49       1.0  0.16790  0.62250  0.07440  1.0000 0.1214921723
H   H50       1.0  0.25040  0.70020  0.05370  1.0000 0.1214921723
H   H51       1.0  0.31290  0.95050  0.60850  1.0000 0.1214921723
H   H52       1.0  0.39060  0.86990  0.09030  1.0000 0.1214921723
H   H53       1.0  0.07450  0.78690  0.60840  1.0000 0.1297175344
H   H54       1.0  0.20220  0.82200  0.61400  1.0000 0.1089093615
H   H55       1.0  0.22820  0.86840  0.01890  1.0000 0.1214921723
H   H56       1.0  0.52040  0.84900  0.99040  1.0000 0.1214921723
H   H57       1.0  0.28540  0.91610  0.81650  1.0000 0.1089093615
H   H58       1.0  0.45640  0.03810  0.66580  1.0000 0.1214921723
H   H59       1.0  0.51470  0.95630  0.61400  1.0000 0.1297175344
H   H60       1.0  0.70320  0.82610  0.87840  1.0000 0.1214921723
H   H61       1.0  0.67140  0.94050  0.91370  1.0000 0.1214921723
H   H62       1.0  0.08230  0.89910  0.94380  1.0000 0.1089093615
H   H63       1.0  0.82120  0.77680  0.11350  1.0000 0.1089093615
H   H64       1.0  0.08570  0.59880  0.97740  1.0000 0.1297175344
H   H65       1.0  0.44020  0.89060  0.88860  1.0000 0.1297175344
H   H66       1.0  0.23000  0.23110  0.41940  1.0000 0.1089093615
H   H67       1.0  0.30220  0.14610  0.37760  1.0000 0.1214921723
H   H68       1.0  0.08890  0.49950  0.86360  1.0000 0.1297175344
H   H69       1.0  0.02500  0.44510  0.90880  1.0000 0.1214921723
H   H70       1.0  0.06770  0.13730  0.59970  1.0000 0.1015875186
H   H71       1.0  0.07750  0.23230  0.52250  1.0000 0.1297175344
H   H72       1.0  0.67150  0.89040  0.26650  1.0000 0.1015875186
H   H73       1.0  0.50510  0.89930  0.20210  1.0000 0.1501994848
H   H74       1.0  0.66100  0.78740  0.04450  1.0000 0.1297175344
H   H75       1.0  0.19120  0.37570  0.74030  1.0000 0.1089093615
H   H76       1.0  0.29010  0.77570  0.44430  1.0000 0.1089093615
H   H77       1.0  0.29030  0.69460  0.52930  1.0000 0.1297175344
H   H78       1.0  0.22300  0.55620  0.57820  1.0000 0.1214921723
H   H79       1.0  0.20940  0.47720  0.66580  1.0000 0.1297175344
H   H80       1.0  0.11640  0.38950  0.48920  1.0000 0.1214921723
H   H81       1.0  0.08390  0.46610  0.41220  1.0000 0.1297175344
H   H82       1.0  0.08530  0.55450  0.32870  1.0000 0.1089093615
H   H83       1.0  0.89090  0.10010  0.65310  1.0000 0.3605337064
H   H84       1.0  0.00350  0.11390  0.85030  1.0000 0.3605337064
H   H85       1.0  0.95700  0.71800  0.75970  1.0000 0.3369032363
H   H86       1.0  0.99700  0.73000  0.82340  1.0000 0.2998546283
H   H87       1.0  0.62640  0.32070  0.71150  1.0000 0.2998546283
H   H88       1.0  0.70480  0.37580  0.75860  1.0000 0.2806241582
C   C1        1.0  0.88490  0.07250  0.32439  1.0000 0.608680588
C   C2        1.0  0.85630  0.01360  0.51843  1.0000 -0.3770997157
C   C3        1.0  0.18960  0.05770  0.13446  1.0000 0.6021775673
C   C4        1.0  0.37710  0.91880  0.33505  1.0000 0.608680588
C   C5        1.0  0.67890  0.91460  0.50433  1.0000 -0.3658525576
C   C6        1.0  0.13720  0.29160  0.08390  1.0000 -0.3658525576
C   C7        1.0  0.64630  0.12410  0.03710  1.0000 0.1616519201
C   C8        1.0  0.05530  0.36610  0.07860  1.0000 0.2902730438
C   C9        1.0  0.04940  0.18220  0.98050  1.0000 -0.3989390214
C   C10       1.0  0.82090  0.05090  0.46321  1.0000 0.2902730438
C   C11       1.0  0.80090  0.30510  0.91480  1.0000 -0.1784916879
C   C12       1.0  0.71250  0.02280  0.42809  1.0000 -0.3882697006
C   C13       1.0  0.43720  0.15310  0.88550  1.0000 0.1616519201
C   C14       1.0  0.54240  0.13940  0.92840  1.0000 -0.140349247
C   C15       1.0  0.87450  0.15270  0.38825  1.0000 -0.1694155614
C   C16       1.0  0.64480  0.95450  0.44914  1.0000 0.2902730438
C   C17       1.0  0.75700  0.12130  0.02160  1.0000 -0.1916023702
C   C18       1.0  0.54740  0.13960  0.99180  1.0000 -0.1604777633
C   C19       1.0  0.01700  0.62510  0.18942  1.0000 0.608680588
C   C20       1.0  0.72600  0.09220  0.14210  1.0000 0.1015875186
C   C21       1.0  0.96850  0.25820  0.97589  1.0000 0.2902730438
C   C22       1.0  0.13300  0.19990  0.03530  1.0000 0.2998546283
C   C23       1.0  0.49260  0.96860  0.36720  1.0000 -0.1694155614
C   C24       1.0  0.26560  0.10560  0.09510  1.0000 -0.1694155614
C   C25       1.0  0.84330  0.81920  0.67770  1.0000 0.6208111862
C   C26       1.0  0.84450  0.10290  0.06746  1.0000 0.0896382302
C   C27       1.0  0.24270  0.19600  0.86820  1.0000 0.0791782509
C   C28       1.0  0.96940  0.35100  0.02530  1.0000 -0.3989390214
C   C29       1.0  0.78490  0.94640  0.53880  1.0000 0.2806241582
C   C30       1.0  0.73540  0.28090  0.84620  1.0000 0.6021775673
C   C31       1.0  0.63200  0.10870  0.09890  1.0000 -0.1988921926
C   C32       1.0  0.77430  0.83430  0.61470  1.0000 -0.1784916879
C   C33       1.0  0.98350  0.53120  0.13200  1.0000 -0.1784916879
C   C34       1.0  0.90540  0.79230  0.38640  1.0000 0.0896382302
C   C35       1.0  0.89810  0.73640  0.43330  1.0000 -0.1916023702
C   C36       1.0  0.33040  0.13040  0.77900  1.0000 0.070233434
C   C37       1.0  0.43090  0.12420  0.81730  1.0000 -0.1916023702
C   C38       1.0  0.33920  0.19080  0.91020  1.0000 -0.1916023702
C   C39       1.0  0.83260  0.65360  0.30410  1.0000 0.0791782509
C   C40       1.0  0.85470  0.63410  0.41530  1.0000 0.1501994848
C   C41       1.0  0.75220  0.28760  0.56260  1.0000 0.0896382302
C   C42       1.0  0.75190  0.33600  0.51120  1.0000 -0.1988921926
C   C43       1.0  0.81040  0.48120  0.46330  1.0000 -0.140349247
C   C44       1.0  0.82090  0.59200  0.34880  1.0000 -0.1988921926
C   C45       1.0  0.85160  0.57470  0.46870  1.0000 -0.1283783992
C   C46       1.0  0.87390  0.47050  0.58030  1.0000 -0.1988921926
C   C47       1.0  0.87190  0.41720  0.63060  1.0000 0.1015875186
C   C48       1.0  0.81250  0.42840  0.51890  1.0000 0.1501994848
C   C49       1.0  0.11510  0.92750  0.67561  1.0000 0.608680588
C   C50       1.0  0.14370  0.98640  0.48157  1.0000 -0.3770997157
C   C51       1.0  0.81040  0.94230  0.86554  1.0000 0.6021775673
C   C52       1.0  0.62290  0.08120  0.66495  1.0000 0.608680588
C   C53       1.0  0.32110  0.08540  0.49567  1.0000 -0.3658525576
C   C54       1.0  0.86280  0.70840  0.91610  1.0000 -0.3658525576
C   C55       1.0  0.35370  0.87590  0.96290  1.0000 0.1616519201
C   C56       1.0  0.94470  0.63390  0.92140  1.0000 0.2902730438
C   C57       1.0  0.95060  0.81780  0.01950  1.0000 -0.3989390214
C   C58       1.0  0.17910  0.94910  0.53679  1.0000 0.2902730438
C   C59       1.0  0.19910  0.69490  0.08520  1.0000 -0.1784916879
C   C60       1.0  0.28750  0.97720  0.57191  1.0000 -0.3882697006
C   C61       1.0  0.56280  0.84690  0.11450  1.0000 0.1616519201
C   C62       1.0  0.45760  0.86060  0.07160  1.0000 -0.140349247
C   C63       1.0  0.12550  0.84730  0.61175  1.0000 -0.1694155614
C   C64       1.0  0.35520  0.04550  0.55086  1.0000 0.2902730438
C   C65       1.0  0.24300  0.87870  0.97840  1.0000 -0.1916023702
C   C66       1.0  0.45260  0.86040  0.00820  1.0000 -0.1604777633
C   C67       1.0  0.98300  0.37490  0.81058  1.0000 0.608680588
C   C68       1.0  0.27400  0.90780  0.85790  1.0000 0.1015875186
C   C69       1.0  0.03150  0.74180  0.02411  1.0000 0.2902730438
C   C70       1.0  0.86700  0.80010  0.96470  1.0000 0.2998546283
C   C71       1.0  0.50740  0.03140  0.63280  1.0000 -0.1694155614
C   C72       1.0  0.73440  0.89440  0.90490  1.0000 -0.1694155614
C   C73       1.0  0.15670  0.18080  0.32230  1.0000 0.6208111862
C   C74       1.0  0.15550  0.89710  0.93254  1.0000 0.0896382302
C   C75       1.0  0.75730  0.80400  0.13180  1.0000 0.0791782509
C   C76       1.0  0.03060  0.64900  0.97470  1.0000 -0.3989390214
C   C77       1.0  0.21510  0.05360  0.46120  1.0000 0.2806241582
C   C78       1.0  0.26460  0.71910  0.15380  1.0000 0.6021775673
C   C79       1.0  0.36800  0.89130  0.90110  1.0000 -0.2050167104
C   C80       1.0  0.22570  0.16570  0.38530  1.0000 -0.1784916879
C   C81       1.0  0.01650  0.46880  0.86800  1.0000 -0.1784916879
C   C82       1.0  0.09460  0.20770  0.61360  1.0000 0.0896382302
C   C83       1.0  0.10190  0.26360  0.56670  1.0000 -0.1916023702
C   C84       1.0  0.66960  0.86960  0.22100  1.0000 0.070233434
C   C85       1.0  0.56910  0.87580  0.18270  1.0000 -0.1916023702
C   C86       1.0  0.66080  0.80920  0.08980  1.0000 -0.1916023702
C   C87       1.0  0.16740  0.34640  0.69590  1.0000 0.0791782509
C   C88       1.0  0.14530  0.36590  0.58470  1.0000 0.1501994848
C   C89       1.0  0.24780  0.71240  0.43740  1.0000 0.0896382302
C   C90       1.0  0.24810  0.66400  0.48880  1.0000 -0.1988921926
C   C91       1.0  0.18960  0.51880  0.53670  1.0000 -0.140349247
C   C92       1.0  0.17910  0.40800  0.65120  1.0000 -0.1988921926
C   C93       1.0  0.14840  0.42530  0.53130  1.0000 -0.1283783992
C   C94       1.0  0.12610  0.52950  0.41970  1.0000 -0.1988921926
C   C95       1.0  0.12810  0.58280  0.36940  1.0000 0.1015875186
C   C96       1.0  0.18750  0.57160  0.48110  1.0000 0.1501994848
N   N1        1.0  0.23430  0.16430  0.80254  1.0000 -0.250469849
N   N2        1.0  0.87660  0.75320  0.32159  1.0000 -0.250469849
N   N3        1.0  0.83100  0.08790  0.12682  1.0000 -0.2621931215
N   N4        1.0  0.81060  0.32690  0.62266  1.0000 -0.2414280554
N   N5        1.0  0.76570  0.83570  0.19746  1.0000 -0.250469849
N   N6        1.0  0.12340  0.24680  0.67841  1.0000 -0.250469849
N   N7        1.0  0.16900  0.91210  0.87318  1.0000 -0.2621931215
N   N8        1.0  0.18940  0.67310  0.37734  1.0000 -0.2414280554
O   O1        1.0  0.87340  0.11100  0.27380  1.0000 -0.5681031053
O   O2        1.0  0.90280  0.97830  0.32589  1.0000 -0.5397078772
O   O3        1.0  0.89870  0.11480  0.44629  1.0000 -0.1694155614
O   O4        1.0  0.53860  0.91860  0.41715  1.0000 -0.1538565014
O   O5        1.0  0.83060  0.91670  0.59507  1.0000 -0.1604777633
O   O6        1.0  0.08650  0.07830  0.12831  1.0000 -0.5681031053
O   O7        1.0  0.23940  0.00370  0.17171  1.0000 -0.5608032127
O   O8        1.0  0.06700  0.45330  0.13001  1.0000 -0.1604777633
O   O9        1.0  0.89050  0.23440  0.92032  1.0000 -0.1604777633
O   O10       1.0  0.20850  0.12030  0.03422  1.0000 -0.1784916879
O   O11       1.0  0.32670  0.96970  0.29589  1.0000 -0.5681031053
O   O12       1.0  0.34340  0.83530  0.34723  1.0000 -0.5397078772
O   O13       1.0  0.09890  0.61690  0.23145  1.0000 -0.5221848269
O   O14       1.0  0.95620  0.70260  0.18799  1.0000 -0.5608032127
O   O15       1.0  0.10260  0.85730  0.30150  1.0000 -0.8624797245
O   O16       1.0  0.00300  0.92758  0.19536  1.0000 -0.8709801515
O   O17       1.0  0.88470  0.90000  0.72021  1.0000 -0.5777204414
O   O18       1.0  0.77290  0.21930  0.79983  1.0000 -0.5681031053
O   O19       1.0  0.98840  0.25420  0.21163  1.0000 -0.6430966039
O   O20       1.0  0.85670  0.72600  0.68340  1.0000 -0.5460886141
O   O21       1.0  0.64820  0.33333  0.84147  1.0000 -0.5221848269
O   O22       1.0  0.33870  0.61850  0.27587  1.0000 -0.6274737497
O   O23       1.0  0.12660  0.88900  0.72620  1.0000 -0.5681031053
O   O24       1.0  0.09720  0.02170  0.67411  1.0000 -0.5397078772
O   O25       1.0  0.10130  0.88520  0.55371  1.0000 -0.1694155614
O   O26       1.0  0.46140  0.08140  0.58285  1.0000 -0.1538565014
O   O27       1.0  0.16940  0.08330  0.40493  1.0000 -0.1694155614
O   O28       1.0  0.91350  0.92170  0.87169  1.0000 -0.5681031053
O   O29       1.0  0.76060  0.99630  0.82829  1.0000 -0.5608032127
O   O30       1.0  0.93300  0.54670  0.86999  1.0000 -0.1604777633
O   O31       1.0  0.10950  0.76560  0.07968  1.0000 -0.1604777633
O   O32       1.0  0.79150  0.87970  0.96578  1.0000 -0.1784916879
O   O33       1.0  0.67330  0.03030  0.70411  1.0000 -0.5681031053
O   O34       1.0  0.65660  0.16470  0.65277  1.0000 -0.5397078772
O   O35       1.0  0.90110  0.38310  0.76855  1.0000 -0.5221848269
O   O36       1.0  0.04380  0.29740  0.81201  1.0000 -0.5608032127
O   O37       1.0  0.89740  0.14270  0.69850  1.0000 -0.8624797245
O   O38       1.0  0.99700  0.07242  0.80464  1.0000 -0.8709801515
O   O39       1.0  0.11530  0.10000  0.27979  1.0000 -0.5777204414
O   O40       1.0  0.22710  0.78070  0.20017  1.0000 -0.5681031053
O   O41       1.0  0.01160  0.74580  0.78837  1.0000 -0.6430966039
O   O42       1.0  0.14330  0.27400  0.31660  1.0000 -0.5460886141
O   O43       1.0  0.35180  0.66667  0.15853  1.0000 -0.5250383993
O   O44       1.0  0.66130  0.38150  0.72413  1.0000 -0.6274737497
