# DDEC6 charges by PACMAN v1.1 (https://github.com/mtap-research/PACMAN-charge/)
data_2019[Cd][sql]2[FSR]4
_chemical_formula_sum              "Cd2 H42 C66 N10 O10"
_cell_length_a       10.5034
_cell_length_b       12.4915
_cell_length_c       14.0674
_cell_angle_alpha    100.833
_cell_angle_beta     106.746
_cell_angle_gamma    103.731

_symmetry_space_group_name_H-M    "P 1"
_symmetry_Int_Tables_number       1

loop_
  _symmetry_equiv_pos_as_xyz
  'x, y, z'

loop_
  _atom_site_type_symbol
  _atom_site_label
  _atom_site_symmetry_multiplicity
  _atom_site_fract_x
  _atom_site_fract_y
  _atom_site_fract_z
  _atom_site_occupancy
  _atom_site_charge
Cd  Cd1       1.0  0.24367  0.56493  0.50044  1.0000 0.8539368382
Cd  Cd2       1.0  0.75633  0.43507  0.49956  1.0000 0.8539368382
H   H1        1.0  0.25310  0.30060  0.69730  1.0000 0.1100789417
H   H2        1.0  0.32840  0.22170  0.82890  1.0000 0.1303381274
H   H3        1.0  0.71930  0.42660  0.89950  1.0000 0.1303381274
H   H4        1.0  0.63730  0.51110  0.77280  1.0000 0.1303381274
H   H5        1.0  0.78240  0.18920  0.00630  1.0000 0.1303381274
H   H6        1.0  0.97750  0.26610  0.15700  1.0000 0.1175138468
H   H7        1.0  0.82250  0.51720  0.24020  1.0000 0.1175138468
H   H8        1.0  0.63360  0.44160  0.08770  1.0000 0.1303381274
H   H9        1.0  0.00690  0.69740  0.49390  1.0000 0.1303381274
H   H10       1.0  0.44910  0.75230  0.74240  1.0000 0.1376162699
H   H11       1.0  0.54550  0.90530  0.88790  1.0000 0.1175138468
H   H12       1.0  0.42850  0.03160  0.91970  1.0000 0.1100789417
H   H13       1.0  0.20570  0.01320  0.80670  1.0000 0.1303381274
H   H14       1.0  0.80880  0.74880  0.53730  1.0000 0.156943219
H   H15       1.0  0.72020  0.04300  0.53130  1.0000 0.1100789417
H   H16       1.0  0.10710  0.05090  0.64640  1.0000 0.1100789417
H   H17       1.0  0.57720  0.70510  0.56070  1.0000 0.1303381274
H   H18       1.0  0.16070  0.68860  0.30350  1.0000 0.1376162699
H   H19       1.0  0.16360  0.81530  0.20340  1.0000 0.1100789417
H   H20       1.0  0.36410  0.95370  0.22730  1.0000 0.1100789417
H   H21       1.0  0.57300  0.97560  0.35300  1.0000 0.1175138468
H   H22       1.0  0.74690  0.69940  0.30270  1.0000 0.1100789417
H   H23       1.0  0.67160  0.77830  0.17110  1.0000 0.1303381274
H   H24       1.0  0.28070  0.57340  0.10050  1.0000 0.1303381274
H   H25       1.0  0.36270  0.48890  0.22720  1.0000 0.1303381274
H   H26       1.0  0.21760  0.81080  0.99370  1.0000 0.1303381274
H   H27       1.0  0.02250  0.73390  0.84300  1.0000 0.1175138468
H   H28       1.0  0.17750  0.48280  0.75980  1.0000 0.1175138468
H   H29       1.0  0.36640  0.55840  0.91230  1.0000 0.1376162699
H   H30       1.0  0.99310  0.30260  0.50610  1.0000 0.1303381274
H   H31       1.0  0.55090  0.24770  0.25760  1.0000 0.1376162699
H   H32       1.0  0.45450  0.09470  0.11210  1.0000 0.1175138468
H   H33       1.0  0.57150  0.96840  0.08030  1.0000 0.1100789417
H   H34       1.0  0.79430  0.98680  0.19330  1.0000 0.1303381274
H   H35       1.0  0.19120  0.25120  0.46270  1.0000 0.156943219
H   H36       1.0  0.27980  0.95700  0.46870  1.0000 0.1100789417
H   H37       1.0  0.89290  0.94910  0.35360  1.0000 0.1100789417
H   H38       1.0  0.42280  0.29490  0.43930  1.0000 0.1303381274
H   H39       1.0  0.83930  0.31140  0.69650  1.0000 0.1376162699
H   H40       1.0  0.83640  0.18470  0.79660  1.0000 0.1100789417
H   H41       1.0  0.63590  0.04630  0.77270  1.0000 0.1100789417
H   H42       1.0  0.42700  0.02440  0.64700  1.0000 0.1175138468
C   C1        1.0  0.38160  0.47370  0.64340  1.0000 0.5351261965
C   C2        1.0  0.43600  0.41640  0.72330  1.0000 -0.0429663581
C   C3        1.0  0.34670  0.32770  0.73960  1.0000 -0.1084168514
C   C4        1.0  0.39160  0.27840  0.81620  1.0000 -0.2103853667
C   C5        1.0  0.53220  0.31370  0.87480  1.0000 0.2516448966
C   C6        1.0  0.62480  0.40170  0.85930  1.0000 -0.2103853667
C   C7        1.0  0.57530  0.45190  0.78360  1.0000 -0.0748813727
C   C8        1.0  0.69140  0.30930  0.03380  1.0000 0.2290391794
C   C9        1.0  0.79180  0.25610  0.05360  1.0000 -0.2103853667
C   C10       1.0  0.90790  0.30130  0.14420  1.0000 -0.081379486
C   C11       1.0  0.91860  0.39980  0.21520  1.0000 -0.0339241505
C   C12       1.0  0.81580  0.45110  0.19310  1.0000 -0.081379486
C   C13       1.0  0.70230  0.40580  0.10200  1.0000 -0.199240485
C   C14       1.0  0.07870  0.73870  0.55600  1.0000 0.1474145188
C   C15       1.0  0.27160  0.79340  0.68510  1.0000 0.1303381274
C   C16       1.0  0.40180  0.80460  0.75450  1.0000 -0.1531793976
C   C17       1.0  0.45770  0.89500  0.84080  1.0000 -0.1084168514
C   C18       1.0  0.38670  0.97130  0.85960  1.0000 -0.0968158448
C   C19       1.0  0.25460  0.96270  0.79280  1.0000 -0.199240485
C   C20       1.0  0.20310  0.87220  0.70380  1.0000 0.0807376991
C   C21       1.0  0.97320  0.89170  0.59710  1.0000 0.1474145188
C   C22       1.0  0.83630  0.82820  0.55130  1.0000 -0.2103853667
C   C23       1.0  0.73890  0.88550  0.52610  1.0000 0.1474145188
C   C24       1.0  0.78580  0.00480  0.54860  1.0000 -0.0429663581
C   C25       1.0  0.01250  0.00970  0.61640  1.0000 -0.0339241505
C   C26       1.0  0.53030  0.73370  0.50950  1.0000 0.1474145188
C   C27       1.0  0.49050  0.84110  0.40270  1.0000 0.0807376991
C   C28       1.0  0.36830  0.75640  0.38900  1.0000 0.1303381274
C   C29       1.0  0.24280  0.74500  0.31350  1.0000 -0.1612353453
C   C30       1.0  0.24580  0.82070  0.25470  1.0000 -0.0968158448
C   C31       1.0  0.36720  0.90440  0.26930  1.0000 -0.0968158448
C   C32       1.0  0.49190  0.91810  0.34320  1.0000 -0.1889512071
C   C33       1.0  0.03770  0.45110  0.31570  1.0000 0.5274712315
C   C34       1.0  0.61840  0.52630  0.35660  1.0000 0.5351261965
C   C35       1.0  0.56400  0.58360  0.27670  1.0000 -0.0429663581
C   C36       1.0  0.65330  0.67230  0.26040  1.0000 -0.1084168514
C   C37       1.0  0.60840  0.72160  0.18380  1.0000 -0.2103853667
C   C38       1.0  0.46780  0.68630  0.12520  1.0000 0.2516448966
C   C39       1.0  0.37520  0.59830  0.14070  1.0000 -0.2103853667
C   C40       1.0  0.42470  0.54810  0.21640  1.0000 -0.0748813727
C   C41       1.0  0.30860  0.69070  0.96620  1.0000 0.2290391794
C   C42       1.0  0.20820  0.74390  0.94640  1.0000 -0.2103853667
C   C43       1.0  0.09210  0.69870  0.85580  1.0000 -0.081379486
C   C44       1.0  0.08140  0.60020  0.78480  1.0000 -0.0339241505
C   C45       1.0  0.18420  0.54890  0.80690  1.0000 -0.081379486
C   C46       1.0  0.29770  0.59420  0.89800  1.0000 -0.199240485
C   C47       1.0  0.92130  0.26130  0.44400  1.0000 0.1474145188
C   C48       1.0  0.72840  0.20660  0.31490  1.0000 0.1303381274
C   C49       1.0  0.59820  0.19540  0.24550  1.0000 -0.1531793976
C   C50       1.0  0.54230  0.10500  0.15920  1.0000 -0.1084168514
C   C51       1.0  0.61330  0.02870  0.14040  1.0000 -0.0947562808
C   C52       1.0  0.74540  0.03730  0.20720  1.0000 -0.199240485
C   C53       1.0  0.79690  0.12780  0.29620  1.0000 0.0807376991
C   C54       1.0  0.02680  0.10830  0.40290  1.0000 0.1474145188
C   C55       1.0  0.16370  0.17180  0.44870  1.0000 -0.2103853667
C   C56       1.0  0.26110  0.11450  0.47390  1.0000 0.1474145188
C   C57       1.0  0.21420  0.99520  0.45140  1.0000 -0.0429663581
C   C58       1.0  0.98750  0.99030  0.38360  1.0000 -0.0339241505
C   C59       1.0  0.46970  0.26630  0.49050  1.0000 0.1474145188
C   C60       1.0  0.50950  0.15890  0.59730  1.0000 0.0807376991
C   C61       1.0  0.63170  0.24360  0.61100  1.0000 0.1303381274
C   C62       1.0  0.75720  0.25500  0.68650  1.0000 -0.1612353453
C   C63       1.0  0.75420  0.17930  0.74530  1.0000 -0.0968158448
C   C64       1.0  0.63280  0.09560  0.73070  1.0000 -0.0968158448
C   C65       1.0  0.50810  0.08190  0.65680  1.0000 -0.1889512071
C   C66       1.0  0.96230  0.54890  0.68430  1.0000 0.5274712315
N   N1        1.0  0.19100  0.71060  0.59150  1.0000 -0.341650618
N   N2        1.0  0.07690  0.83610  0.62000  1.0000 -0.049998231
N   N3        1.0  0.92120  0.06660  0.59390  1.0000 -0.2103853667
N   N4        1.0  0.59410  0.82540  0.48230  1.0000 -0.049998231
N   N5        1.0  0.39790  0.69050  0.45700  1.0000 -0.334793655
N   N6        1.0  0.80900  0.28940  0.40850  1.0000 -0.341650618
N   N7        1.0  0.92310  0.16390  0.38000  1.0000 -0.049998231
N   N8        1.0  0.07880  0.93340  0.40610  1.0000 -0.2103853667
N   N9        1.0  0.40590  0.17460  0.51770  1.0000 -0.049998231
N   N10       1.0  0.60210  0.30950  0.54300  1.0000 -0.334793655
O   O1        1.0  0.25690  0.43040  0.58370  1.0000 -0.540550051
O   O2        1.0  0.45990  0.56420  0.63890  1.0000 -0.5527862736
O   O3        1.0  0.57220  0.25510  0.94660  1.0000 -0.2320354113
O   O4        1.0  0.13430  0.40720  0.33640  1.0000 -0.540550051
O   O5        1.0  0.03640  0.53530  0.37670  1.0000 -0.5242678651
O   O6        1.0  0.74310  0.56960  0.41630  1.0000 -0.540550051
O   O7        1.0  0.54010  0.43580  0.36110  1.0000 -0.5527862736
O   O8        1.0  0.42780  0.74490  0.05340  1.0000 -0.2320354113
O   O9        1.0  0.86570  0.59280  0.66360  1.0000 -0.540550051
O   O10       1.0  0.96360  0.46470  0.62330  1.0000 -0.5242678651
