# DDEC6 charges by PACMAN v1.1 (https://github.com/mtap-research/PACMAN-charge/)
data_2019[Eu][kgd]2[FSR]1
_chemical_formula_sum              "Eu2 H38 C54 O16"
_cell_length_a       9.2794
_cell_length_b       13.5621
_cell_length_c       15.3389
_cell_angle_alpha    105.03
_cell_angle_beta     96.304
_cell_angle_gamma    97.237

_symmetry_space_group_name_H-M    "P 1"
_symmetry_Int_Tables_number       1

loop_
  _symmetry_equiv_pos_as_xyz
  'x, y, z'

loop_
  _atom_site_type_symbol
  _atom_site_label
  _atom_site_symmetry_multiplicity
  _atom_site_fract_x
  _atom_site_fract_y
  _atom_site_fract_z
  _atom_site_occupancy
  _atom_site_charge
Eu  Eu1       1.0  0.41710  0.33836  0.95703  1.0000 2.0481055523
Eu  Eu2       1.0  0.58290  0.66164  0.04297  1.0000 2.0481055523
H   H1        1.0  0.19200  0.16100  0.96200  1.0000 0.3211565162
H   H2        1.0  0.11900  0.23200  0.97100  1.0000 0.3065342899
H   H3        1.0  0.73900  0.32200  0.95700  1.0000 0.2989259656
H   H4        1.0  0.74400  0.41500  0.99300  1.0000 0.3305528904
H   H5        1.0  0.55937  0.98062  0.93339  1.0000 0.1308852727
H   H6        1.0  0.51909  0.07045  0.70101  1.0000 0.1308852727
H   H7        1.0  0.62897  0.82698  0.85432  1.0000 0.1308852727
H   H8        1.0  0.59661  0.91961  0.62361  1.0000 0.1132620665
H   H9        1.0  0.56515  0.75402  0.55495  1.0000 0.1132620665
H   H10       1.0  0.79546  0.73864  0.79000  1.0000 0.1205924074
H   H11       1.0  0.79711  0.51964  0.55274  1.0000 0.1132620665
H   H12       1.0  0.58946  0.72112  0.40905  1.0000 0.1205924074
H   H13       1.0  0.64358  0.43696  0.43313  1.0000 0.1132620665
H   H14       1.0  0.00833  0.49953  0.62311  1.0000 0.1132620665
H   H15       1.0  0.82750  0.60802  0.85176  1.0000 0.1205924074
H   H16       1.0  0.51795  0.65130  0.25210  1.0000 0.1373650874
H   H17       1.0  0.56660  0.36664  0.27709  1.0000 0.1205924074
H   H18       1.0  0.14615  0.40718  0.69965  1.0000 0.1205924074
H   H19       1.0  0.98143  0.52756  0.93104  1.0000 0.1205924074
H   H20       1.0  0.80800  0.83900  0.03800  1.0000 0.3211565162
H   H21       1.0  0.88100  0.76800  0.02900  1.0000 0.3065342899
H   H22       1.0  0.26100  0.67800  0.04300  1.0000 0.2989259656
H   H23       1.0  0.25600  0.58500  0.00700  1.0000 0.3305528904
H   H24       1.0  0.44063  0.01938  0.06661  1.0000 0.1308852727
H   H25       1.0  0.48091  0.92955  0.29899  1.0000 0.1308852727
H   H26       1.0  0.37103  0.17302  0.14568  1.0000 0.1308852727
H   H27       1.0  0.40339  0.08039  0.37639  1.0000 0.1132620665
H   H28       1.0  0.43485  0.24598  0.44505  1.0000 0.1132620665
H   H29       1.0  0.20454  0.26136  0.21000  1.0000 0.1205924074
H   H30       1.0  0.20289  0.48036  0.44726  1.0000 0.1132620665
H   H31       1.0  0.41054  0.27888  0.59095  1.0000 0.1205924074
H   H32       1.0  0.35642  0.56304  0.56687  1.0000 0.1132620665
H   H33       1.0  0.99167  0.50047  0.37689  1.0000 0.1132620665
H   H34       1.0  0.17250  0.39198  0.14824  1.0000 0.1205924074
H   H35       1.0  0.48205  0.34870  0.74790  1.0000 0.1373650874
H   H36       1.0  0.43340  0.63336  0.72291  1.0000 0.1205924074
H   H37       1.0  0.85385  0.59282  0.30035  1.0000 0.1205924074
H   H38       1.0  0.01857  0.47244  0.06896  1.0000 0.1205924074
C   C1        1.0  0.48970  0.14120  0.87430  1.0000 0.5601240243
C   C2        1.0  0.53220  0.04090  0.82460  1.0000 -0.0190636576
C   C3        1.0  0.56600  0.96790  0.87020  1.0000 -0.0816210587
C   C4        1.0  0.54310  0.02170  0.73270  1.0000 -0.0937094097
C   C5        1.0  0.60920  0.87710  0.82330  1.0000 -0.1351206754
C   C6        1.0  0.58900  0.93160  0.68660  1.0000 -0.151693041
C   C7        1.0  0.62410  0.85840  0.73110  1.0000 0.0730595826
C   C8        1.0  0.67430  0.76260  0.68020  1.0000 0.0891667656
C   C9        1.0  0.62910  0.72100  0.58640  1.0000 -0.2011129637
C   C10       1.0  0.76450  0.71110  0.72620  1.0000 -0.1849453007
C   C11       1.0  0.67670  0.63090  0.53760  1.0000 0.081301631
C   C12       1.0  0.81010  0.61940  0.67950  1.0000 0.0891667656
C   C13       1.0  0.62620  0.58650  0.43810  1.0000 0.0730595826
C   C14       1.0  0.76570  0.58100  0.58500  1.0000 -0.2011129637
C   C15       1.0  0.90210  0.56370  0.72900  1.0000 0.081301631
C   C16       1.0  0.58650  0.64920  0.38240  1.0000 -0.151693041
C   C17       1.0  0.61780  0.48090  0.39680  1.0000 -0.151693041
C   C18       1.0  0.99980  0.50350  0.68500  1.0000 -0.151693041
C   C19       1.0  0.89470  0.56940  0.82110  1.0000 -0.129352575
C   C20       1.0  0.54290  0.60760  0.28890  1.0000 -0.0816210587
C   C21       1.0  0.57250  0.43880  0.30360  1.0000 -0.0816210587
C   C22       1.0  0.08370  0.44980  0.73090  1.0000 -0.0816210587
C   C23       1.0  0.98390  0.51960  0.86790  1.0000 -0.1030860101
C   C24       1.0  0.53580  0.50190  0.24910  1.0000 -0.0269632787
C   C25       1.0  0.07680  0.45810  0.82300  1.0000 -0.0269632787
C   C26       1.0  0.49460  0.45460  0.14870  1.0000 0.6034026886
C   C27       1.0  0.17320  0.40430  0.87240  1.0000 0.5601240243
C   C28       1.0  0.51030  0.85880  0.12570  1.0000 0.5601240243
C   C29       1.0  0.46780  0.95910  0.17540  1.0000 -0.0190636576
C   C30       1.0  0.43400  0.03210  0.12980  1.0000 -0.0816210587
C   C31       1.0  0.45690  0.97830  0.26730  1.0000 -0.0937094097
C   C32       1.0  0.39080  0.12290  0.17670  1.0000 -0.129352575
C   C33       1.0  0.41100  0.06840  0.31340  1.0000 -0.151693041
C   C34       1.0  0.37590  0.14160  0.26890  1.0000 0.0730595826
C   C35       1.0  0.32570  0.23740  0.31980  1.0000 0.0891667656
C   C36       1.0  0.37090  0.27900  0.41360  1.0000 -0.2011129637
C   C37       1.0  0.23550  0.28890  0.27380  1.0000 -0.1849453007
C   C38       1.0  0.32330  0.36910  0.46240  1.0000 0.081301631
C   C39       1.0  0.18990  0.38060  0.32050  1.0000 0.0891667656
C   C40       1.0  0.37380  0.41350  0.56190  1.0000 0.0730595826
C   C41       1.0  0.23430  0.41900  0.41500  1.0000 -0.2011129637
C   C42       1.0  0.09790  0.43630  0.27100  1.0000 0.081301631
C   C43       1.0  0.41350  0.35080  0.61760  1.0000 -0.151693041
C   C44       1.0  0.38220  0.51910  0.60320  1.0000 -0.151693041
C   C45       1.0  0.00020  0.49650  0.31500  1.0000 -0.151693041
C   C46       1.0  0.10530  0.43060  0.17890  1.0000 -0.129352575
C   C47       1.0  0.45710  0.39240  0.71110  1.0000 -0.0816210587
C   C48       1.0  0.42750  0.56120  0.69640  1.0000 -0.0816210587
C   C49       1.0  0.91630  0.55020  0.26910  1.0000 -0.0816210587
C   C50       1.0  0.01610  0.48040  0.13210  1.0000 -0.1030860101
C   C51       1.0  0.46420  0.49810  0.75090  1.0000 -0.0269632787
C   C52       1.0  0.92320  0.54190  0.17700  1.0000 -0.0269632787
C   C53       1.0  0.50540  0.54540  0.85130  1.0000 0.6034026886
C   C54       1.0  0.82680  0.59570  0.12760  1.0000 0.5601240243
O   O1        1.0  0.21030  0.22730  0.98200  1.0000 -0.7301379745
O   O2        1.0  0.68190  0.36270  0.97250  1.0000 -0.7301379745
O   O3        1.0  0.45900  0.35800  0.11920  1.0000 -0.6079522326
O   O4        1.0  0.49710  0.51070  0.09350  1.0000 -0.7196871494
O   O5        1.0  0.44880  0.20110  0.82840  1.0000 -0.6401226674
O   O6        1.0  0.49490  0.16650  0.96000  1.0000 -0.6079522326
O   O7        1.0  0.20580  0.43560  0.95940  1.0000 -0.6401226674
O   O8        1.0  0.22850  0.32970  0.82810  1.0000 -0.6079522326
O   O9        1.0  0.78970  0.77270  0.01800  1.0000 -0.7301379745
O   O10       1.0  0.31810  0.63730  0.02750  1.0000 -0.7301379745
O   O11       1.0  0.54100  0.64200  0.88080  1.0000 -0.6079522326
O   O12       1.0  0.50290  0.48930  0.90650  1.0000 -0.7196871494
O   O13       1.0  0.55120  0.79890  0.17160  1.0000 -0.6401226674
O   O14       1.0  0.50510  0.83350  0.04000  1.0000 -0.6079522326
O   O15       1.0  0.79420  0.56440  0.04060  1.0000 -0.6401226674
O   O16       1.0  0.77150  0.67030  0.17190  1.0000 -0.6079522326
