# DDEC6 charges by PACMAN v1.1 (https://github.com/mtap-research/PACMAN-charge/)
data_2019[Zn][lon]3[FSR]2
_chemical_formula_sum              "Zn2 H26 C20 N10 O8"
_cell_length_a       9.6261
_cell_length_b       9.0444
_cell_length_c       11.6284
_cell_angle_alpha    90
_cell_angle_beta     112.735
_cell_angle_gamma    90

_symmetry_space_group_name_H-M    "P 1"
_symmetry_Int_Tables_number       1

loop_
  _symmetry_equiv_pos_as_xyz
  'x, y, z'

loop_
  _atom_site_type_symbol
  _atom_site_label
  _atom_site_symmetry_multiplicity
  _atom_site_fract_x
  _atom_site_fract_y
  _atom_site_fract_z
  _atom_site_occupancy
  _atom_site_charge
Zn  Zn1       1.0  0.13890  0.57409  0.92570  1.0000 0.7124249155
Zn  Zn2       1.0  0.86110  0.07409  0.07430  1.0000 0.7124249155
H   H1        1.0  0.66390  0.55020  0.07840  1.0000 0.2729306633
H   H2        1.0  0.77630  0.56440  0.84340  1.0000 0.1204778144
H   H3        1.0  0.58320  0.25770  0.05600  1.0000 0.0979075024
H   H4        1.0  0.07970  0.26570  0.01770  1.0000 0.0979075024
H   H5        1.0  0.16080  0.67720  0.73830  1.0000 0.2729306633
H   H6        1.0  0.01350  0.71400  0.73230  1.0000 0.2439898962
H   H7        1.0  0.53740  0.44100  0.84820  1.0000 0.1323426107
H   H8        1.0  0.54580  0.26820  0.85090  1.0000 0.1323426107
H   H9        1.0  0.73010  0.65490  0.29970  1.0000 0.1323426107
H   H10       1.0  0.86880  0.60150  0.27050  1.0000 0.1323426107
H   H11       1.0  0.09120  0.46030  0.65290  1.0000 0.1367242152
H   H12       1.0  0.93460  0.47980  0.66340  1.0000 0.1204778144
H   H13       1.0  0.85420  0.42710  0.44540  1.0000 0.2768210734
H   H14       1.0  0.33610  0.05020  0.92160  1.0000 0.2729306633
H   H15       1.0  0.22370  0.06440  0.15660  1.0000 0.1204778144
H   H16       1.0  0.41680  0.75770  0.94400  1.0000 0.0979075024
H   H17       1.0  0.92030  0.76570  0.98230  1.0000 0.0979075024
H   H18       1.0  0.83920  0.17720  0.26170  1.0000 0.2729306633
H   H19       1.0  0.98650  0.21400  0.26770  1.0000 0.2439898962
H   H20       1.0  0.46260  0.94100  0.15180  1.0000 0.1323426107
H   H21       1.0  0.45420  0.76820  0.14910  1.0000 0.1323426107
H   H22       1.0  0.26990  0.15490  0.70030  1.0000 0.1323426107
H   H23       1.0  0.13120  0.10150  0.72950  1.0000 0.1323426107
H   H24       1.0  0.90880  0.96030  0.34710  1.0000 0.1367242152
H   H25       1.0  0.06540  0.97980  0.33660  1.0000 0.1204778144
H   H26       1.0  0.14580  0.92710  0.55460  1.0000 0.2768210734
C   C1        1.0  0.38640  0.37780  0.98010  1.0000 0.5509552473
C   C2        1.0  0.75120  0.36450  0.92020  1.0000 0.1823820734
C   C3        1.0  0.82210  0.47910  0.88580  1.0000 -0.152353782
C   C4        1.0  0.55600  0.35530  0.01700  1.0000 -0.0045057373
C   C5        1.0  0.98830  0.31500  0.98160  1.0000 0.156272527
C   C6        1.0  0.69910  0.44350  0.22400  1.0000 0.4658359403
C   C7        1.0  0.58830  0.35680  0.89840  1.0000 -0.3001515826
C   C8        1.0  0.79390  0.57090  0.30250  1.0000 -0.2007103896
C   C9        1.0  0.95100  0.60410  0.51940  1.0000 0.4848008866
C   C10       1.0  0.01470  0.53200  0.64940  1.0000 -0.1893888672
C   C11       1.0  0.61360  0.87780  0.01990  1.0000 0.5509552473
C   C12       1.0  0.24880  0.86450  0.07980  1.0000 0.1823820734
C   C13       1.0  0.17790  0.97910  0.11420  1.0000 -0.152353782
C   C14       1.0  0.44400  0.85530  0.98300  1.0000 -0.0045057373
C   C15       1.0  0.01170  0.81500  0.01840  1.0000 0.156272527
C   C16       1.0  0.30090  0.94350  0.77600  1.0000 0.4648622984
C   C17       1.0  0.41170  0.85680  0.10160  1.0000 -0.3001515826
C   C18       1.0  0.20610  0.07090  0.69750  1.0000 -0.2007103896
C   C19       1.0  0.04900  0.10410  0.48060  1.0000 0.4848008866
C   C20       1.0  0.98530  0.03200  0.35060  1.0000 -0.1893888672
N   N1        1.0  0.85870  0.26120  0.98180  1.0000 -0.372271288
N   N2        1.0  0.64610  0.46700  0.10590  1.0000 -0.3310850149
N   N3        1.0  0.97460  0.44410  0.92570  1.0000 -0.3086131697
N   N4        1.0  0.07920  0.64030  0.74620  1.0000 -0.4814149176
N   N5        1.0  0.86670  0.51770  0.42910  1.0000 -0.3001515826
N   N6        1.0  0.14130  0.76120  0.01820  1.0000 -0.372271288
N   N7        1.0  0.35390  0.96700  0.89410  1.0000 -0.3310850149
N   N8        1.0  0.02540  0.94410  0.07430  1.0000 -0.3086131697
N   N9        1.0  0.92080  0.14030  0.25380  1.0000 -0.4814149176
N   N10       1.0  0.13330  0.01770  0.57090  1.0000 -0.3001515826
O   O1        1.0  0.34560  0.50870  0.99200  1.0000 -0.5319479292
O   O2        1.0  0.30140  0.27470  0.93810  1.0000 -0.5441961771
O   O3        1.0  0.68090  0.32770  0.27310  1.0000 -0.4958543514
O   O4        1.0  0.97540  0.73220  0.50140  1.0000 -0.5090775674
O   O5        1.0  0.65440  0.00870  0.00800  1.0000 -0.5319479292
O   O6        1.0  0.69860  0.77470  0.06190  1.0000 -0.5441961771
O   O7        1.0  0.31910  0.82770  0.72690  1.0000 -0.4958543514
O   O8        1.0  0.02460  0.23220  0.49860  1.0000 -0.5090775674
