# DDEC6 charges by PACMAN v1.1 (https://github.com/mtap-research/PACMAN-charge/)
data_2019[Cd][kgd]2[FSR]4
_chemical_formula_sum              "Cd6 H48 C52 N8 O34"
_cell_length_a       7.7527
_cell_length_b       10.316
_cell_length_c       25.513
_cell_angle_alpha    98.471
_cell_angle_beta     89.728
_cell_angle_gamma    95.312

_symmetry_space_group_name_H-M    "P 1"
_symmetry_Int_Tables_number       1

loop_
  _symmetry_equiv_pos_as_xyz
  'x, y, z'

loop_
  _atom_site_type_symbol
  _atom_site_label
  _atom_site_symmetry_multiplicity
  _atom_site_fract_x
  _atom_site_fract_y
  _atom_site_fract_z
  _atom_site_occupancy
  _atom_site_charge
Cd  Cd1       1.0  0.31481  0.21446  0.11001  1.0000 0.9304129886
Cd  Cd2       1.0  0.98730  0.82190  0.74900  1.0000 0.9899133252
Cd  Cd3       1.0  0.67892  0.85467  0.61148  1.0000 0.9304129886
Cd  Cd4       1.0  0.68519  0.78554  0.88999  1.0000 0.9304129886
Cd  Cd5       1.0  0.01270  0.17810  0.25100  1.0000 0.9899133252
Cd  Cd6       1.0  0.32108  0.14533  0.38852  1.0000 0.9304129886
H   H1        1.0  0.42310  0.87600  0.68840  1.0000 0.3799188244
H   H2        1.0  0.55560  0.97150  0.70670  1.0000 0.3593827741
H   H3        1.0  0.75920  0.58500  0.73690  1.0000 0.3177434014
H   H4        1.0  0.72180  0.64030  0.69700  1.0000 0.3429254996
H   H5        1.0  0.83370  0.05640  0.75550  1.0000 0.3593827741
H   H6        1.0  0.79950  0.01710  0.80470  1.0000 0.3593827741
H   H7        1.0  0.13930  0.58290  0.72320  1.0000 0.2825956749
H   H8        1.0  0.23910  0.66600  0.74770  1.0000 0.2736738728
H   H9        1.0  0.56840  0.18520  0.18270  1.0000 0.3429254996
H   H10       1.0  0.41870  0.18030  0.21060  1.0000 0.3429254996
H   H11       1.0  0.31300  0.69520  0.11370  1.0000 0.1264555759
H   H12       1.0  0.71030  0.52680  0.03900  1.0000 0.1218129255
H   H13       1.0  0.25130  0.89320  0.91320  1.0000 0.1585608857
H   H14       1.0  0.09320  0.97730  0.92260  1.0000 0.1681668467
H   H15       1.0  0.06140  0.03730  0.59980  1.0000 0.1681668467
H   H16       1.0  0.23910  0.97680  0.60080  1.0000 0.1585608857
H   H17       1.0  0.26950  0.76850  0.53060  1.0000 0.140087198
H   H18       1.0  0.06900  0.63290  0.46580  1.0000 0.1585608857
H   H19       1.0  0.71590  0.51160  0.46230  1.0000 0.1218129255
H   H20       1.0  0.32380  0.63310  0.38640  1.0000 0.1264555759
H   H21       1.0  0.66210  0.89430  0.47230  1.0000 0.1264555759
H   H22       1.0  0.25550  0.71660  0.97270  1.0000 0.140087198
H   H23       1.0  0.04020  0.62290  0.03240  1.0000 0.1585608857
H   H24       1.0  0.64090  0.90100  0.02740  1.0000 0.1218129255
H   H25       1.0  0.57690  0.12400  0.31160  1.0000 0.3799188244
H   H26       1.0  0.44440  0.02850  0.29330  1.0000 0.3593827741
H   H27       1.0  0.24080  0.41500  0.26310  1.0000 0.3177434014
H   H28       1.0  0.27820  0.35970  0.30300  1.0000 0.3429254996
H   H29       1.0  0.16630  0.94360  0.24450  1.0000 0.3593827741
H   H30       1.0  0.20050  0.98290  0.19530  1.0000 0.3593827741
H   H31       1.0  0.86070  0.41710  0.27680  1.0000 0.2825956749
H   H32       1.0  0.76090  0.33400  0.25230  1.0000 0.2736738728
H   H33       1.0  0.43160  0.81480  0.81730  1.0000 0.3429254996
H   H34       1.0  0.58130  0.81970  0.78940  1.0000 0.3451868402
H   H35       1.0  0.68700  0.30480  0.88630  1.0000 0.1264555759
H   H36       1.0  0.28970  0.47320  0.96100  1.0000 0.1218129255
H   H37       1.0  0.74870  0.10680  0.08680  1.0000 0.1585608857
H   H38       1.0  0.90680  0.02270  0.07740  1.0000 0.1681668467
H   H39       1.0  0.93860  0.96270  0.40020  1.0000 0.1681668467
H   H40       1.0  0.76090  0.02320  0.39920  1.0000 0.1585608857
H   H41       1.0  0.73050  0.23150  0.46940  1.0000 0.140087198
H   H42       1.0  0.93100  0.36710  0.53420  1.0000 0.1585608857
H   H43       1.0  0.28410  0.48840  0.53770  1.0000 0.1218129255
H   H44       1.0  0.67620  0.36690  0.61360  1.0000 0.1264555759
H   H45       1.0  0.33790  0.10570  0.52770  1.0000 0.1264555759
H   H46       1.0  0.74450  0.28340  0.02730  1.0000 0.140087198
H   H47       1.0  0.95980  0.37710  0.96760  1.0000 0.1585608857
H   H48       1.0  0.35910  0.09900  0.97260  1.0000 0.1218129255
C   C1        1.0  0.37730  0.94200  0.09240  1.0000 0.5476887929
C   C2        1.0  0.46540  0.81850  0.07450  1.0000 -0.0115109613
C   C3        1.0  0.41040  0.70030  0.09240  1.0000 -0.1282396508
C   C4        1.0  0.49980  0.59080  0.07860  1.0000 -0.0013003547
C   C5        1.0  0.43710  0.46090  0.09540  1.0000 0.5390468048
C   C6        1.0  0.64780  0.59970  0.04720  1.0000 -0.1393303168
C   C7        1.0  0.70230  0.71530  0.02850  1.0000 0.0504804137
C   C8        1.0  0.86610  0.72850  0.99930  1.0000 0.1585608857
C   C9        1.0  0.12600  0.88930  0.91080  1.0000 -0.3026718018
C   C10       1.0  0.07330  0.85060  0.85380  1.0000 0.6315665053
C   C11       1.0  0.11470  0.95740  0.60300  1.0000 -0.3026718018
C   C12       1.0  0.07290  0.91890  0.65610  1.0000 0.6358306216
C   C13       1.0  0.15090  0.77420  0.52800  1.0000 -0.0374315573
C   C14       1.0  0.04100  0.69980  0.49210  1.0000 -0.2396598724
C   C15       1.0  0.87750  0.74350  0.50250  1.0000 0.1681668467
C   C16       1.0  0.71480  0.70850  0.47220  1.0000 0.0504804137
C   C17       1.0  0.65550  0.57960  0.45380  1.0000 -0.1393303168
C   C18       1.0  0.50490  0.55040  0.42250  1.0000 -0.0115109613
C   C19       1.0  0.43780  0.40900  0.40520  1.0000 0.5390468048
C   C20       1.0  0.42090  0.65220  0.40850  1.0000 -0.1230647756
C   C21       1.0  0.47770  0.78250  0.42650  1.0000 -0.0115109613
C   C22       1.0  0.39600  0.89560  0.40930  1.0000 0.5476887929
C   C23       1.0  0.62420  0.80750  0.45900  1.0000 -0.1393303168
C   C24       1.0  0.13870  0.73030  0.97520  1.0000 -0.0374315573
C   C25       1.0  0.02030  0.67960  0.00830  1.0000 -0.2396598724
C   C26       1.0  0.60820  0.82390  0.04120  1.0000 -0.1393303168
C   C27       1.0  0.62270  0.05800  0.90760  1.0000 0.5476887929
C   C28       1.0  0.53460  0.18150  0.92550  1.0000 -0.0115109613
C   C29       1.0  0.58960  0.29970  0.90760  1.0000 -0.1282396508
C   C30       1.0  0.50020  0.40920  0.92140  1.0000 -0.0013003547
C   C31       1.0  0.56290  0.53910  0.90460  1.0000 0.5390468048
C   C32       1.0  0.35220  0.40030  0.95280  1.0000 -0.1393303168
C   C33       1.0  0.29770  0.28470  0.97150  1.0000 0.0504804137
C   C34       1.0  0.13390  0.27150  0.00070  1.0000 0.1585608857
C   C35       1.0  0.87400  0.11070  0.08920  1.0000 -0.3026718018
C   C36       1.0  0.92670  0.14940  0.14620  1.0000 0.6315665053
C   C37       1.0  0.88530  0.04260  0.39700  1.0000 -0.3026718018
C   C38       1.0  0.92710  0.08110  0.34390  1.0000 0.6358306216
C   C39       1.0  0.84910  0.22580  0.47200  1.0000 -0.0374315573
C   C40       1.0  0.95900  0.30020  0.50790  1.0000 -0.2396598724
C   C41       1.0  0.12250  0.25650  0.49750  1.0000 0.1681668467
C   C42       1.0  0.28520  0.29150  0.52780  1.0000 0.0504804137
C   C43       1.0  0.34450  0.42040  0.54620  1.0000 -0.1393303168
C   C44       1.0  0.49510  0.44960  0.57750  1.0000 -0.0115109613
C   C45       1.0  0.56220  0.59100  0.59480  1.0000 0.5390468048
C   C46       1.0  0.57910  0.34780  0.59150  1.0000 -0.1230647756
C   C47       1.0  0.52230  0.21750  0.57350  1.0000 -0.0115109613
C   C48       1.0  0.60400  0.10440  0.59070  1.0000 0.5476887929
C   C49       1.0  0.37580  0.19250  0.54100  1.0000 -0.1393303168
C   C50       1.0  0.86130  0.26970  0.02480  1.0000 -0.0374315573
C   C51       1.0  0.97970  0.32040  0.99170  1.0000 -0.2396598724
C   C52       1.0  0.39180  0.17610  0.95880  1.0000 -0.1393303168
N   N1        1.0  0.88490  0.80740  0.96170  1.0000 -0.320600648
N   N2        1.0  0.05310  0.80360  0.94690  1.0000 0.2210491853
N   N3        1.0  0.88610  0.83990  0.54430  1.0000 -0.3325047685
N   N4        1.0  0.05750  0.85800  0.55920  1.0000 0.2210491853
N   N5        1.0  0.11510  0.19260  0.03830  1.0000 -0.320600648
N   N6        1.0  0.94690  0.19640  0.05310  1.0000 0.2210491853
N   N7        1.0  0.11390  0.16010  0.45570  1.0000 -0.3325047685
N   N8        1.0  0.94250  0.14200  0.44080  1.0000 0.2210491853
O   O1        1.0  0.44690  0.04370  0.07510  1.0000 -0.5525391443
O   O2        1.0  0.25010  0.93980  0.12130  1.0000 -0.5525391443
O   O3        1.0  0.30320  0.45290  0.12290  1.0000 -0.5413345489
O   O4        1.0  0.51570  0.36310  0.07960  1.0000 -0.5413345489
O   O5        1.0  0.91970  0.86650  0.66351  1.0000 -0.5808728231
O   O6        1.0  0.53870  0.88720  0.69200  1.0000 -0.6601529413
O   O7        1.0  0.18270  0.93520  0.69180  1.0000 -0.5190670682
O   O8        1.0  0.30050  0.38400  0.37820  1.0000 -0.5525391443
O   O9        1.0  0.51820  0.32100  0.41870  1.0000 -0.5253524972
O   O10       1.0  0.47210  0.00930  0.42370  1.0000 -0.5525391443
O   O11       1.0  0.26060  0.87590  0.38190  1.0000 -0.5605420662
O   O12       1.0  0.93070  0.78870  0.84017  1.0000 -0.5605420662
O   O13       1.0  0.17820  0.88820  0.81990  1.0000 -0.5413345489
O   O14       1.0  0.75300  0.66730  0.73060  1.0000 -0.6601529413
O   O15       1.0  0.81260  0.99220  0.77200  1.0000 -0.6601529413
O   O16       1.0  0.16710  0.66610  0.72350  1.0000 -0.6354933573
O   O17       1.0  0.47580  0.22500  0.18900  1.0000 -0.6653592182
O   O18       1.0  0.55310  0.95630  0.92490  1.0000 -0.5525391443
O   O19       1.0  0.74990  0.06020  0.87870  1.0000 -0.5525391443
O   O20       1.0  0.69680  0.54710  0.87710  1.0000 -0.5413345489
O   O21       1.0  0.48430  0.63690  0.92040  1.0000 -0.5413345489
O   O22       1.0  0.08030  0.13350  0.33649  1.0000 -0.5808728231
O   O23       1.0  0.46130  0.11280  0.30800  1.0000 -0.6601529413
O   O24       1.0  0.81730  0.06480  0.30820  1.0000 -0.5190670682
O   O25       1.0  0.69950  0.61600  0.62180  1.0000 -0.5525391443
O   O26       1.0  0.48180  0.67900  0.58130  1.0000 -0.5253524972
O   O27       1.0  0.52790  0.99070  0.57630  1.0000 -0.5525391443
O   O28       1.0  0.73940  0.12410  0.61810  1.0000 -0.5605420662
O   O29       1.0  0.06930  0.21130  0.15983  1.0000 -0.5605420662
O   O30       1.0  0.82180  0.11180  0.18010  1.0000 -0.5413345489
O   O31       1.0  0.24700  0.33270  0.26940  1.0000 -0.6601529413
O   O32       1.0  0.18740  0.00780  0.22800  1.0000 -0.6601529413
O   O33       1.0  0.83290  0.33390  0.27650  1.0000 -0.6354933573
O   O34       1.0  0.52420  0.77500  0.81100  1.0000 -0.6653592182
