# DDEC6 charges by PACMAN v1.1 (https://github.com/mtap-research/PACMAN-charge/)
data_2019[Dy][sql]2[FSR]4
_chemical_formula_sum              "Dy8 H128 C72 O64"
_cell_length_a       8.6662
_cell_length_b       14.173
_cell_length_c       23.336
_cell_angle_alpha    90
_cell_angle_beta     90
_cell_angle_gamma    90

_symmetry_space_group_name_H-M    "P 1"
_symmetry_Int_Tables_number       1

loop_
  _symmetry_equiv_pos_as_xyz
  'x, y, z'

loop_
  _atom_site_type_symbol
  _atom_site_label
  _atom_site_symmetry_multiplicity
  _atom_site_fract_x
  _atom_site_fract_y
  _atom_site_fract_z
  _atom_site_occupancy
  _atom_site_charge
Dy  Dy1       1.0  0.27660  0.03353  0.30821  1.0000 1.9778881905
Dy  Dy2       1.0  0.22669  0.82270  0.18800  1.0000 1.9778881905
Dy  Dy3       1.0  0.22340  0.96647  0.80821  1.0000 1.9778881905
Dy  Dy4       1.0  0.27331  0.17730  0.68800  1.0000 1.9778881905
Dy  Dy5       1.0  0.72340  0.53353  0.19179  1.0000 1.9778881905
Dy  Dy6       1.0  0.77331  0.32270  0.31200  1.0000 1.9778881905
Dy  Dy7       1.0  0.77660  0.46647  0.69179  1.0000 1.9778881905
Dy  Dy8       1.0  0.72669  0.67730  0.81200  1.0000 1.9778881905
H   H1        1.0  0.09376  0.05356  0.21262  1.0000 0.3602275861
H   H2        1.0  0.13720  0.14219  0.22540  1.0000 0.3474529659
H   H3        1.0  0.32567  0.20083  0.36924  1.0000 0.3710199706
H   H4        1.0  0.19546  0.21827  0.33645  1.0000 0.3710199706
H   H5        1.0  0.25372  0.65387  0.12897  1.0000 0.3602275861
H   H6        1.0  0.11813  0.64562  0.15921  1.0000 0.3778378305
H   H7        1.0  0.42539  0.71042  0.24975  1.0000 0.3710199706
H   H8        1.0  0.35692  0.76471  0.28960  1.0000 0.3474529659
H   H9        1.0  0.75292  0.96335  0.39669  1.0000 0.1085851347
H   H10       1.0  0.83400  0.93928  0.30770  1.0000 0.1199213505
H   H11       1.0  0.73799  0.84636  0.30147  1.0000 0.1199213505
H   H12       1.0  0.99492  0.85220  0.37932  1.0000 0.1479173538
H   H13       1.0  0.91502  0.75987  0.35612  1.0000 0.1374032385
H   H14       1.0  0.62086  0.86680  0.45170  1.0000 0.1199213505
H   H15       1.0  0.74739  0.80117  0.42494  1.0000 0.1085851347
H   H16       1.0  0.57860  0.79939  0.40080  1.0000 0.1302157857
H   H17       1.0  0.91717  0.20990  0.53492  1.0000 0.0916537878
H   H18       1.0  0.05435  0.22075  0.44409  1.0000 0.1004458752
H   H19       1.0  0.20151  0.18691  0.47724  1.0000 0.1004458752
H   H20       1.0  0.92946  0.07677  0.46720  1.0000 0.1302157857
H   H21       1.0  0.08041  0.04264  0.49869  1.0000 0.1479173538
H   H22       1.0  0.98866  0.36234  0.56135  1.0000 0.1302157857
H   H23       1.0  0.97817  0.35552  0.49442  1.0000 0.1374032385
H   H24       1.0  0.13966  0.35440  0.52468  1.0000 0.1199213505
H   H25       1.0  0.50282  0.98539  0.12089  1.0000 0.1085851347
H   H26       1.0  0.75568  0.01404  0.19684  1.0000 0.1199213505
H   H27       1.0  0.66893  0.91729  0.19194  1.0000 0.1199213505
H   H28       1.0  0.75225  0.90094  0.09642  1.0000 0.1374032385
H   H29       1.0  0.83471  0.99955  0.09963  1.0000 0.1302157857
H   H30       1.0  0.49758  0.15413  0.11654  1.0000 0.1302157857
H   H31       1.0  0.64040  0.10851  0.08600  1.0000 0.1199213505
H   H32       1.0  0.65899  0.15392  0.14687  1.0000 0.1302157857
H   H33       1.0  0.40624  0.94644  0.71262  1.0000 0.3602275861
H   H34       1.0  0.36280  0.85781  0.72540  1.0000 0.3474529659
H   H35       1.0  0.17433  0.79917  0.86924  1.0000 0.3710199706
H   H36       1.0  0.30454  0.78173  0.83645  1.0000 0.3710199706
H   H37       1.0  0.24628  0.34613  0.62897  1.0000 0.3602275861
H   H38       1.0  0.38187  0.35438  0.65921  1.0000 0.3778378305
H   H39       1.0  0.07461  0.28958  0.74975  1.0000 0.3710199706
H   H40       1.0  0.14308  0.23529  0.78960  1.0000 0.3474529659
H   H41       1.0  0.74708  0.03665  0.89669  1.0000 0.1085851347
H   H42       1.0  0.66600  0.06072  0.80770  1.0000 0.1199213505
H   H43       1.0  0.76201  0.15364  0.80147  1.0000 0.1199213505
H   H44       1.0  0.50508  0.14780  0.87932  1.0000 0.1479173538
H   H45       1.0  0.58498  0.24013  0.85612  1.0000 0.1374032385
H   H46       1.0  0.87914  0.13320  0.95170  1.0000 0.1199213505
H   H47       1.0  0.75261  0.19883  0.92494  1.0000 0.1085851347
H   H48       1.0  0.92140  0.20061  0.90080  1.0000 0.1302157857
H   H49       1.0  0.58283  0.79010  0.03492  1.0000 0.0916537878
H   H50       1.0  0.44565  0.77925  0.94409  1.0000 0.1004458752
H   H51       1.0  0.29849  0.81309  0.97724  1.0000 0.1004458752
H   H52       1.0  0.57054  0.92323  0.96720  1.0000 0.1302157857
H   H53       1.0  0.41959  0.95736  0.99869  1.0000 0.1479173538
H   H54       1.0  0.51134  0.63766  0.06135  1.0000 0.1302157857
H   H55       1.0  0.52183  0.64448  0.99442  1.0000 0.1374032385
H   H56       1.0  0.36034  0.64560  0.02468  1.0000 0.1199213505
H   H57       1.0  0.99718  0.01461  0.62089  1.0000 0.1085851347
H   H58       1.0  0.74432  0.98596  0.69684  1.0000 0.1199213505
H   H59       1.0  0.83107  0.08271  0.69194  1.0000 0.1199213505
H   H60       1.0  0.74775  0.09906  0.59642  1.0000 0.1374032385
H   H61       1.0  0.66529  0.00045  0.59963  1.0000 0.1302157857
H   H62       1.0  0.00242  0.84587  0.61654  1.0000 0.1302157857
H   H63       1.0  0.85960  0.89149  0.58600  1.0000 0.1199213505
H   H64       1.0  0.84101  0.84608  0.64687  1.0000 0.1302157857
H   H65       1.0  0.90624  0.55356  0.28738  1.0000 0.3602275861
H   H66       1.0  0.86280  0.64219  0.27460  1.0000 0.3474529659
H   H67       1.0  0.67433  0.70083  0.13076  1.0000 0.3710199706
H   H68       1.0  0.80454  0.71827  0.16355  1.0000 0.3710199706
H   H69       1.0  0.74628  0.15387  0.37103  1.0000 0.3602275861
H   H70       1.0  0.88187  0.14562  0.34079  1.0000 0.3778378305
H   H71       1.0  0.57461  0.21042  0.25025  1.0000 0.3710199706
H   H72       1.0  0.64308  0.26471  0.21040  1.0000 0.3474529659
H   H73       1.0  0.24708  0.46335  0.10331  1.0000 0.1085851347
H   H74       1.0  0.16600  0.43928  0.19230  1.0000 0.1199213505
H   H75       1.0  0.26201  0.34636  0.19853  1.0000 0.1199213505
H   H76       1.0  0.00508  0.35220  0.12068  1.0000 0.1479173538
H   H77       1.0  0.08498  0.25987  0.14388  1.0000 0.1374032385
H   H78       1.0  0.37914  0.36680  0.04830  1.0000 0.1199213505
H   H79       1.0  0.25261  0.30117  0.07506  1.0000 0.1085851347
H   H80       1.0  0.42140  0.29939  0.09920  1.0000 0.1302157857
H   H81       1.0  0.08283  0.70990  0.96508  1.0000 0.0916537878
H   H82       1.0  0.94565  0.72075  0.05591  1.0000 0.1004458752
H   H83       1.0  0.79849  0.68691  0.02276  1.0000 0.1004458752
H   H84       1.0  0.07054  0.57677  0.03280  1.0000 0.1302157857
H   H85       1.0  0.91959  0.54264  0.00131  1.0000 0.1479173538
H   H86       1.0  0.01134  0.86234  0.93865  1.0000 0.1302157857
H   H87       1.0  0.02183  0.85552  0.00558  1.0000 0.1374032385
H   H88       1.0  0.86034  0.85440  0.97532  1.0000 0.1199213505
H   H89       1.0  0.49718  0.48539  0.37911  1.0000 0.1085851347
H   H90       1.0  0.24432  0.51404  0.30316  1.0000 0.1199213505
H   H91       1.0  0.33107  0.41729  0.30806  1.0000 0.1199213505
H   H92       1.0  0.24775  0.40094  0.40358  1.0000 0.1374032385
H   H93       1.0  0.16529  0.49955  0.40037  1.0000 0.1302157857
H   H94       1.0  0.50242  0.65413  0.38346  1.0000 0.1302157857
H   H95       1.0  0.35960  0.60851  0.41400  1.0000 0.1199213505
H   H96       1.0  0.34101  0.65392  0.35313  1.0000 0.1302157857
H   H97       1.0  0.59376  0.44644  0.78738  1.0000 0.3602275861
H   H98       1.0  0.63720  0.35781  0.77460  1.0000 0.3474529659
H   H99       1.0  0.82567  0.29917  0.63076  1.0000 0.3710199706
H   H100      1.0  0.69546  0.28173  0.66355  1.0000 0.3710199706
H   H101      1.0  0.75372  0.84613  0.87103  1.0000 0.3602275861
H   H102      1.0  0.61813  0.85438  0.84079  1.0000 0.3778378305
H   H103      1.0  0.92539  0.78958  0.75025  1.0000 0.3710199706
H   H104      1.0  0.85692  0.73529  0.71040  1.0000 0.3474529659
H   H105      1.0  0.25292  0.53665  0.60331  1.0000 0.1085851347
H   H106      1.0  0.33400  0.56072  0.69230  1.0000 0.1199213505
H   H107      1.0  0.23799  0.65364  0.69853  1.0000 0.1199213505
H   H108      1.0  0.49492  0.64780  0.62068  1.0000 0.1479173538
H   H109      1.0  0.41502  0.74013  0.64388  1.0000 0.1374032385
H   H110      1.0  0.12086  0.63320  0.54830  1.0000 0.1199213505
H   H111      1.0  0.24739  0.69883  0.57506  1.0000 0.1085851347
H   H112      1.0  0.07860  0.70061  0.59920  1.0000 0.1302157857
H   H113      1.0  0.41717  0.29010  0.46508  1.0000 0.0916537878
H   H114      1.0  0.55435  0.27925  0.55591  1.0000 0.1004458752
H   H115      1.0  0.70151  0.31309  0.52276  1.0000 0.1004458752
H   H116      1.0  0.42946  0.42323  0.53280  1.0000 0.1302157857
H   H117      1.0  0.58041  0.45736  0.50131  1.0000 0.1479173538
H   H118      1.0  0.48866  0.13766  0.43865  1.0000 0.1302157857
H   H119      1.0  0.47817  0.14448  0.50558  1.0000 0.1374032385
H   H120      1.0  0.63966  0.14560  0.47532  1.0000 0.1199213505
H   H121      1.0  0.00282  0.51461  0.87911  1.0000 0.1085851347
H   H122      1.0  0.25568  0.48596  0.80316  1.0000 0.1199213505
H   H123      1.0  0.16893  0.58271  0.80806  1.0000 0.1199213505
H   H124      1.0  0.25225  0.59906  0.90358  1.0000 0.1374032385
H   H125      1.0  0.33471  0.50045  0.90037  1.0000 0.1302157857
H   H126      1.0  0.99758  0.34587  0.88346  1.0000 0.1302157857
H   H127      1.0  0.14040  0.39149  0.91400  1.0000 0.1199213505
H   H128      1.0  0.15899  0.34608  0.85313  1.0000 0.1302157857
C   C1        1.0  0.55600  0.95660  0.35040  1.0000 0.5805768159
C   C2        1.0  0.69850  0.91370  0.37550  1.0000 -0.0613354457
C   C3        1.0  0.79890  0.88360  0.32800  1.0000 -0.1400943033
C   C4        1.0  0.94480  0.82390  0.34640  1.0000 -0.3179153962
C   C5        1.0  0.05100  0.82410  0.29560  1.0000 0.6633908388
C   C6        1.0  0.65800  0.83870  0.41690  1.0000 -0.3932384762
C   C7        1.0  0.10510  0.19520  0.58540  1.0000 0.5564426419
C   C8        1.0  0.02620  0.22760  0.53190  1.0000 -0.0613354457
C   C9        1.0  0.08970  0.18370  0.47650  1.0000 -0.1478490743
C   C10       1.0  0.04110  0.08190  0.46790  1.0000 -0.3256835106
C   C11       1.0  0.11100  0.05100  0.40930  1.0000 0.610337877
C   C12       1.0  0.03400  0.33490  0.52770  1.0000 -0.4064321729
C   C13       1.0  0.44810  0.03140  0.20140  1.0000 0.6192584273
C   C14       1.0  0.55330  0.02510  0.14970  1.0000 -0.0613354457
C   C15       1.0  0.69950  0.97320  0.17080  1.0000 -0.1400943033
C   C16       1.0  0.80580  0.94430  0.12170  1.0000 -0.3149300876
C   C17       1.0  0.95000  0.89710  0.14570  1.0000 0.6294182775
C   C18       1.0  0.59100  0.11900  0.12230  1.0000 -0.4064321729
C   C19       1.0  0.94400  0.04340  0.85040  1.0000 0.5805768159
C   C20       1.0  0.80150  0.08630  0.87550  1.0000 -0.0613354457
C   C21       1.0  0.70110  0.11640  0.82800  1.0000 -0.1400943033
C   C22       1.0  0.55520  0.17610  0.84640  1.0000 -0.3179153962
C   C23       1.0  0.44900  0.17590  0.79560  1.0000 0.6633908388
C   C24       1.0  0.84200  0.16130  0.91690  1.0000 -0.3932384762
C   C25       1.0  0.39490  0.80480  0.08540  1.0000 0.5564426419
C   C26       1.0  0.47380  0.77240  0.03190  1.0000 -0.0613354457
C   C27       1.0  0.41030  0.81630  0.97650  1.0000 -0.1478490743
C   C28       1.0  0.45890  0.91810  0.96790  1.0000 -0.3256835106
C   C29       1.0  0.38900  0.94900  0.90930  1.0000 0.610337877
C   C30       1.0  0.46600  0.66510  0.02770  1.0000 -0.4064321729
C   C31       1.0  0.05190  0.96860  0.70140  1.0000 0.6192584273
C   C32       1.0  0.94670  0.97490  0.64970  1.0000 -0.0613354457
C   C33       1.0  0.80050  0.02680  0.67080  1.0000 -0.1400943033
C   C34       1.0  0.69420  0.05570  0.62170  1.0000 -0.3179153962
C   C35       1.0  0.55000  0.10290  0.64570  1.0000 0.6294182775
C   C36       1.0  0.90900  0.88100  0.62230  1.0000 -0.4064321729
C   C37       1.0  0.44400  0.45660  0.14960  1.0000 0.5805768159
C   C38       1.0  0.30150  0.41370  0.12450  1.0000 -0.0613354457
C   C39       1.0  0.20110  0.38360  0.17200  1.0000 -0.1400943033
C   C40       1.0  0.05520  0.32390  0.15360  1.0000 -0.3179153962
C   C41       1.0  0.94900  0.32410  0.20440  1.0000 0.6633908388
C   C42       1.0  0.34200  0.33870  0.08310  1.0000 -0.3932384762
C   C43       1.0  0.89490  0.69520  0.91460  1.0000 0.5564426419
C   C44       1.0  0.97380  0.72760  0.96810  1.0000 -0.0613354457
C   C45       1.0  0.91030  0.68370  0.02350  1.0000 -0.1478490743
C   C46       1.0  0.95890  0.58190  0.03210  1.0000 -0.3256835106
C   C47       1.0  0.88900  0.55100  0.09070  1.0000 0.610337877
C   C48       1.0  0.96600  0.83490  0.97230  1.0000 -0.4064321729
C   C49       1.0  0.55190  0.53140  0.29860  1.0000 0.6192584273
C   C50       1.0  0.44670  0.52510  0.35030  1.0000 -0.0613354457
C   C51       1.0  0.30050  0.47320  0.32920  1.0000 -0.1400943033
C   C52       1.0  0.19420  0.44430  0.37830  1.0000 -0.3149300876
C   C53       1.0  0.05000  0.39710  0.35430  1.0000 0.6294182775
C   C54       1.0  0.40900  0.61900  0.37770  1.0000 -0.4064321729
C   C55       1.0  0.05600  0.54340  0.64960  1.0000 0.5805768159
C   C56       1.0  0.19850  0.58630  0.62450  1.0000 -0.0613354457
C   C57       1.0  0.29890  0.61640  0.67200  1.0000 -0.1400943033
C   C58       1.0  0.44480  0.67610  0.65360  1.0000 -0.3179153962
C   C59       1.0  0.55100  0.67590  0.70440  1.0000 0.6633908388
C   C60       1.0  0.15800  0.66130  0.58310  1.0000 -0.3932384762
C   C61       1.0  0.60510  0.30480  0.41460  1.0000 0.5564426419
C   C62       1.0  0.52620  0.27240  0.46810  1.0000 -0.0613354457
C   C63       1.0  0.58970  0.31630  0.52350  1.0000 -0.1478490743
C   C64       1.0  0.54110  0.41810  0.53210  1.0000 -0.3256835106
C   C65       1.0  0.61100  0.44900  0.59070  1.0000 0.610337877
C   C66       1.0  0.53400  0.16510  0.47230  1.0000 -0.4064321729
C   C67       1.0  0.94810  0.46860  0.79860  1.0000 0.6192584273
C   C68       1.0  0.05330  0.47490  0.85030  1.0000 -0.0613354457
C   C69       1.0  0.19950  0.52680  0.82920  1.0000 -0.1400943033
C   C70       1.0  0.30580  0.55570  0.87830  1.0000 -0.3179153962
C   C71       1.0  0.45000  0.60290  0.85430  1.0000 0.6294182775
C   C72       1.0  0.09100  0.38100  0.87770  1.0000 -0.4064321729
O   O1        1.0  0.44860  0.90500  0.33280  1.0000 -0.5993438575
O   O2        1.0  0.10100  0.09220  0.24040  1.0000 -0.7486335846
O   O3        1.0  0.54080  0.04600  0.34790  1.0000 -0.6291198942
O   O4        1.0  0.28920  0.19340  0.33390  1.0000 -0.7779825094
O   O5        1.0  0.05230  0.75780  0.26030  1.0000 -0.5993438575
O   O6        1.0  0.21460  0.66350  0.16330  1.0000 -0.7779825094
O   O7        1.0  0.13810  0.89570  0.28530  1.0000 -0.7486335846
O   O8        1.0  0.40150  0.76730  0.25720  1.0000 -0.7486335846
O   O9        1.0  0.04050  0.20870  0.63460  1.0000 -0.6387003425
O   O10       1.0  0.23800  0.15870  0.58550  1.0000 -0.6226453247
O   O11       1.0  0.04390  0.06800  0.36310  1.0000 -0.6226453247
O   O12       1.0  0.24230  0.01210  0.41020  1.0000 -0.6291198942
O   O13       1.0  0.44990  0.10050  0.23450  1.0000 -0.5741421046
O   O14       1.0  0.36120  0.96150  0.21370  1.0000 -0.7392190012
O   O15       1.0  0.06010  0.95160  0.16390  1.0000 -0.6534223321
O   O16       1.0  0.96380  0.81210  0.14770  1.0000 -0.5808134439
O   O17       1.0  0.05140  0.09500  0.83280  1.0000 -0.5993438575
O   O18       1.0  0.39900  0.90780  0.74040  1.0000 -0.7486335846
O   O19       1.0  0.95920  0.95400  0.84790  1.0000 -0.6291198942
O   O20       1.0  0.21080  0.80660  0.83390  1.0000 -0.7779825094
O   O21       1.0  0.44770  0.24220  0.76030  1.0000 -0.5993438575
O   O22       1.0  0.28540  0.33650  0.66330  1.0000 -0.7779825094
O   O23       1.0  0.36190  0.10430  0.78530  1.0000 -0.7486335846
O   O24       1.0  0.09850  0.23270  0.75720  1.0000 -0.7486335846
O   O25       1.0  0.45950  0.79130  0.13460  1.0000 -0.6387003425
O   O26       1.0  0.26200  0.84130  0.08550  1.0000 -0.6226453247
O   O27       1.0  0.45610  0.93200  0.86310  1.0000 -0.6226453247
O   O28       1.0  0.25770  0.98790  0.91020  1.0000 -0.6291198942
O   O29       1.0  0.05010  0.89950  0.73450  1.0000 -0.5741421046
O   O30       1.0  0.13880  0.03850  0.71370  1.0000 -0.7392190012
O   O31       1.0  0.43990  0.04840  0.66390  1.0000 -0.6534223321
O   O32       1.0  0.53620  0.18790  0.64770  1.0000 -0.5808134439
O   O33       1.0  0.55140  0.40500  0.16720  1.0000 -0.5993438575
O   O34       1.0  0.89900  0.59220  0.25960  1.0000 -0.7486335846
O   O35       1.0  0.45920  0.54600  0.15210  1.0000 -0.6291198942
O   O36       1.0  0.71080  0.69340  0.16610  1.0000 -0.7779825094
O   O37       1.0  0.94770  0.25780  0.23970  1.0000 -0.5993438575
O   O38       1.0  0.78540  0.16350  0.33670  1.0000 -0.7779825094
O   O39       1.0  0.86190  0.39570  0.21470  1.0000 -0.7486335846
O   O40       1.0  0.59850  0.26730  0.24280  1.0000 -0.7486335846
O   O41       1.0  0.95950  0.70870  0.86540  1.0000 -0.6387003425
O   O42       1.0  0.76200  0.65870  0.91450  1.0000 -0.6226453247
O   O43       1.0  0.95610  0.56800  0.13690  1.0000 -0.6226453247
O   O44       1.0  0.75770  0.51210  0.08980  1.0000 -0.6291198942
O   O45       1.0  0.55010  0.60050  0.26550  1.0000 -0.5741421046
O   O46       1.0  0.63880  0.46150  0.28630  1.0000 -0.7392190012
O   O47       1.0  0.93990  0.45160  0.33610  1.0000 -0.6534223321
O   O48       1.0  0.03620  0.31210  0.35230  1.0000 -0.5808134439
O   O49       1.0  0.94860  0.59500  0.66720  1.0000 -0.5993438575
O   O50       1.0  0.60100  0.40780  0.75960  1.0000 -0.7486335846
O   O51       1.0  0.04080  0.45400  0.65210  1.0000 -0.6291198942
O   O52       1.0  0.78920  0.30660  0.66610  1.0000 -0.7779825094
O   O53       1.0  0.55230  0.74220  0.73970  1.0000 -0.5993438575
O   O54       1.0  0.71460  0.83650  0.83670  1.0000 -0.7779825094
O   O55       1.0  0.63810  0.60430  0.71470  1.0000 -0.7486335846
O   O56       1.0  0.90150  0.73270  0.74280  1.0000 -0.7486335846
O   O57       1.0  0.54050  0.29130  0.36540  1.0000 -0.6387003425
O   O58       1.0  0.73800  0.34130  0.41450  1.0000 -0.6226453247
O   O59       1.0  0.54390  0.43200  0.63690  1.0000 -0.6226453247
O   O60       1.0  0.74230  0.48790  0.58980  1.0000 -0.6291198942
O   O61       1.0  0.94990  0.39950  0.76550  1.0000 -0.5741421046
O   O62       1.0  0.86120  0.53850  0.78630  1.0000 -0.7392190012
O   O63       1.0  0.56010  0.54840  0.83610  1.0000 -0.6534223321
O   O64       1.0  0.46380  0.68790  0.85230  1.0000 -0.5808134439
