# DDEC6 charges by PACMAN v1.1 (https://github.com/mtap-research/PACMAN-charge/)
data_2019[Ag][sra]3[FSR]3
_chemical_formula_sum              "Ag4 H48 C68 N24"
_cell_length_a       9.3495
_cell_length_b       23.867
_cell_length_c       12.6734
_cell_angle_alpha    90
_cell_angle_beta     119.432
_cell_angle_gamma    90

_symmetry_space_group_name_H-M    "P 1"
_symmetry_Int_Tables_number       1

loop_
  _symmetry_equiv_pos_as_xyz
  'x, y, z'

loop_
  _atom_site_type_symbol
  _atom_site_label
  _atom_site_symmetry_multiplicity
  _atom_site_fract_x
  _atom_site_fract_y
  _atom_site_fract_z
  _atom_site_occupancy
  _atom_site_charge
Ag  Ag1       1.0  0.91244  0.12188  0.13083  1.0000 0.2311155088
Ag  Ag2       1.0  0.08756  0.62188  0.36917  1.0000 0.2311155088
Ag  Ag3       1.0  0.08756  0.87812  0.86917  1.0000 0.2311155088
Ag  Ag4       1.0  0.91244  0.37812  0.63083  1.0000 0.2311155088
H   H1        1.0  0.73120  0.16790  0.50720  1.0000 0.1231872626
H   H2        1.0  0.90100  0.24170  0.61720  1.0000 0.1010596585
H   H3        1.0  0.55360  0.35170  0.43260  1.0000 0.0925325919
H   H4        1.0  0.37270  0.28190  0.31740  1.0000 0.1391102262
H   H5        1.0  0.34310  0.07630  0.03450  1.0000 0.1273492364
H   H6        1.0  0.28260  0.99450  0.92180  1.0000 0.0925325919
H   H7        1.0  0.11880  0.92230  0.12070  1.0000 0.1010596585
H   H8        1.0  0.17380  0.00190  0.23990  1.0000 0.1273492364
H   H9        1.0  0.63730  0.15590  0.20490  1.0000 0.1134379711
H   H10       1.0  0.97110  0.03700  0.34290  1.0000 0.0925325919
H   H11       1.0  0.83950  0.99540  0.43610  1.0000 0.1134379711
H   H12       1.0  0.59780  0.03650  0.41530  1.0000 0.1273492364
H   H13       1.0  0.26880  0.66790  0.99280  1.0000 0.1231872626
H   H14       1.0  0.09900  0.74170  0.88280  1.0000 0.1010596585
H   H15       1.0  0.44640  0.85170  0.06740  1.0000 0.0925325919
H   H16       1.0  0.62730  0.78190  0.18260  1.0000 0.1391102262
H   H17       1.0  0.65690  0.57630  0.46550  1.0000 0.1273492364
H   H18       1.0  0.71740  0.49450  0.57820  1.0000 0.0925325919
H   H19       1.0  0.88120  0.42230  0.37930  1.0000 0.1010596585
H   H20       1.0  0.82620  0.50190  0.26010  1.0000 0.1273492364
H   H21       1.0  0.36270  0.65590  0.29510  1.0000 0.1134379711
H   H22       1.0  0.02890  0.53700  0.15710  1.0000 0.0925325919
H   H23       1.0  0.16050  0.49540  0.06390  1.0000 0.1134379711
H   H24       1.0  0.40220  0.53650  0.08470  1.0000 0.1273492364
H   H25       1.0  0.26880  0.83210  0.49280  1.0000 0.1231872626
H   H26       1.0  0.09900  0.75830  0.38280  1.0000 0.1010596585
H   H27       1.0  0.44640  0.64830  0.56740  1.0000 0.0925325919
H   H28       1.0  0.62730  0.71810  0.68260  1.0000 0.1391102262
H   H29       1.0  0.65690  0.92370  0.96550  1.0000 0.1273492364
H   H30       1.0  0.71740  0.00550  0.07820  1.0000 0.0925325919
H   H31       1.0  0.88120  0.07770  0.87930  1.0000 0.1010596585
H   H32       1.0  0.82620  0.99810  0.76010  1.0000 0.1273492364
H   H33       1.0  0.36270  0.84410  0.79510  1.0000 0.1134379711
H   H34       1.0  0.02890  0.96300  0.65710  1.0000 0.0925325919
H   H35       1.0  0.16050  0.00460  0.56390  1.0000 0.1134379711
H   H36       1.0  0.40220  0.96350  0.58470  1.0000 0.1273492364
H   H37       1.0  0.73120  0.33210  0.00720  1.0000 0.1231872626
H   H38       1.0  0.90100  0.25830  0.11720  1.0000 0.1010596585
H   H39       1.0  0.55360  0.14830  0.93260  1.0000 0.0925325919
H   H40       1.0  0.37270  0.21810  0.81740  1.0000 0.1391102262
H   H41       1.0  0.34310  0.42370  0.53450  1.0000 0.1273492364
H   H42       1.0  0.28260  0.50550  0.42180  1.0000 0.0925325919
H   H43       1.0  0.11880  0.57770  0.62070  1.0000 0.1010596585
H   H44       1.0  0.17380  0.49810  0.73990  1.0000 0.1273492364
H   H45       1.0  0.63730  0.34410  0.70490  1.0000 0.1134379711
H   H46       1.0  0.97110  0.46300  0.84290  1.0000 0.0925325919
H   H47       1.0  0.83950  0.50460  0.93610  1.0000 0.1134379711
H   H48       1.0  0.59780  0.46350  0.91530  1.0000 0.1273492364
C   C1        1.0  0.53310  0.21709  0.39960  1.0000 0.0734470263
C   C2        1.0  0.69220  0.20541  0.49020  1.0000 -0.2096359534
C   C3        1.0  0.79230  0.24976  0.55490  1.0000 0.0533523678
C   C4        1.0  0.58980  0.31390  0.44740  1.0000 0.022320977
C   C5        1.0  0.48110  0.27262  0.37840  1.0000 -0.179883966
C   C6        1.0  0.41340  0.17398  0.32670  1.0000 0.1984225922
C   C7        1.0  0.29370  0.10051  0.21780  1.0000 0.1667368747
C   C8        1.0  0.26420  0.04788  0.14920  1.0000 0.0533523678
C   C9        1.0  0.29690  0.04520  0.05380  1.0000 -0.2096359534
C   C10       1.0  0.26050  0.99619  0.98730  1.0000 0.0294878669
C   C11       1.0  0.16490  0.95410  0.10330  1.0000 0.0533523678
C   C12       1.0  0.19700  0.00131  0.17490  1.0000 -0.2096359534
C   C13       1.0  0.59650  0.10041  0.30750  1.0000 0.1010596585
C   C14       1.0  0.67930  0.12315  0.25290  1.0000 -0.0486877589
C   C15       1.0  0.87303  0.05358  0.33333  1.0000 -0.0103417886
C   C16       1.0  0.79600  0.02853  0.38960  1.0000 -0.1445793658
C   C17       1.0  0.65410  0.05243  0.37730  1.0000 -0.1565296836
C   C18       1.0  0.46690  0.71709  0.10040  1.0000 0.0734470263
C   C19       1.0  0.30780  0.70541  0.00980  1.0000 -0.2096359534
C   C20       1.0  0.20770  0.74976  0.94510  1.0000 0.0533523678
C   C21       1.0  0.41020  0.81390  0.05260  1.0000 0.022320977
C   C22       1.0  0.51890  0.77262  0.12160  1.0000 -0.179883966
C   C23       1.0  0.58660  0.67398  0.17330  1.0000 0.1984225922
C   C24       1.0  0.70630  0.60051  0.28220  1.0000 0.1667368747
C   C25       1.0  0.73580  0.54788  0.35080  1.0000 0.0533523678
C   C26       1.0  0.70310  0.54520  0.44620  1.0000 -0.2096359534
C   C27       1.0  0.73950  0.49619  0.51270  1.0000 0.0294878669
C   C28       1.0  0.83510  0.45410  0.39670  1.0000 0.055388853
C   C29       1.0  0.80300  0.50131  0.32510  1.0000 -0.2096359534
C   C30       1.0  0.40350  0.60041  0.19250  1.0000 0.1010596585
C   C31       1.0  0.32070  0.62315  0.24710  1.0000 -0.0486877589
C   C32       1.0  0.12697  0.55358  0.16667  1.0000 -0.0103417886
C   C33       1.0  0.20400  0.52853  0.11040  1.0000 -0.1445793658
C   C34       1.0  0.34590  0.55243  0.12270  1.0000 -0.1565296836
C   C35       1.0  0.46690  0.78291  0.60040  1.0000 0.0734470263
C   C36       1.0  0.30780  0.79459  0.50980  1.0000 -0.2096359534
C   C37       1.0  0.20770  0.75024  0.44510  1.0000 0.0533523678
C   C38       1.0  0.41020  0.68610  0.55260  1.0000 0.022320977
C   C39       1.0  0.51890  0.72738  0.62160  1.0000 -0.179883966
C   C40       1.0  0.58660  0.82602  0.67330  1.0000 0.1984225922
C   C41       1.0  0.70630  0.89949  0.78220  1.0000 0.1667368747
C   C42       1.0  0.73580  0.95212  0.85080  1.0000 0.0533523678
C   C43       1.0  0.70310  0.95480  0.94620  1.0000 -0.2096359534
C   C44       1.0  0.73950  0.00381  0.01270  1.0000 0.0294878669
C   C45       1.0  0.83510  0.04590  0.89670  1.0000 0.0533523678
C   C46       1.0  0.80300  0.99869  0.82510  1.0000 -0.2096359534
C   C47       1.0  0.40350  0.89959  0.69250  1.0000 0.1010596585
C   C48       1.0  0.32070  0.87685  0.74710  1.0000 -0.0486877589
C   C49       1.0  0.12697  0.94642  0.66667  1.0000 -0.0103417886
C   C50       1.0  0.20400  0.97147  0.61040  1.0000 -0.1445793658
C   C51       1.0  0.34590  0.94757  0.62270  1.0000 -0.1565296836
C   C52       1.0  0.53310  0.28291  0.89960  1.0000 0.0734470263
C   C53       1.0  0.69220  0.29459  0.99020  1.0000 -0.2096359534
C   C54       1.0  0.79230  0.25024  0.05490  1.0000 0.0533523678
C   C55       1.0  0.58980  0.18610  0.94740  1.0000 0.022320977
C   C56       1.0  0.48110  0.22738  0.87840  1.0000 -0.179883966
C   C57       1.0  0.41340  0.32602  0.82670  1.0000 0.1984225922
C   C58       1.0  0.29370  0.39949  0.71780  1.0000 0.1667368747
C   C59       1.0  0.26420  0.45212  0.64920  1.0000 0.0533523678
C   C60       1.0  0.29690  0.45480  0.55380  1.0000 -0.2096359534
C   C61       1.0  0.26050  0.50381  0.48730  1.0000 0.0294878669
C   C62       1.0  0.16490  0.54590  0.60330  1.0000 0.0533523678
C   C63       1.0  0.19700  0.49869  0.67490  1.0000 -0.2096359534
C   C64       1.0  0.59650  0.39959  0.80750  1.0000 0.1010596585
C   C65       1.0  0.67930  0.37685  0.75290  1.0000 -0.0486877589
C   C66       1.0  0.87303  0.44642  0.83333  1.0000 -0.0103417886
C   C67       1.0  0.79600  0.47147  0.88960  1.0000 -0.1445793658
C   C68       1.0  0.65410  0.44757  0.87730  1.0000 -0.1565296836
N   N1        1.0  0.74437  0.30340  0.53457  1.0000 -0.2096359534
N   N2        1.0  0.25518  0.17955  0.28748  1.0000 -0.2666813396
N   N3        1.0  0.18070  0.13248  0.21850  1.0000 -0.1986046843
N   N4        1.0  0.44382  0.12488  0.28552  1.0000 -0.0918585323
N   N5        1.0  0.19530  0.95091  0.01060  1.0000 -0.2198132686
N   N6        1.0  0.81786  0.10001  0.26606  1.0000 -0.1746311448
N   N7        1.0  0.25563  0.80340  0.96543  1.0000 -0.2096359534
N   N8        1.0  0.74482  0.67955  0.21252  1.0000 -0.2666813396
N   N9        1.0  0.81930  0.63248  0.28150  1.0000 -0.1986046843
N   N10       1.0  0.55618  0.62488  0.21448  1.0000 -0.0918585323
N   N11       1.0  0.80470  0.45091  0.48940  1.0000 -0.2198132686
N   N12       1.0  0.18214  0.60001  0.23394  1.0000 -0.179883966
N   N13       1.0  0.25563  0.69660  0.46543  1.0000 -0.2096359534
N   N14       1.0  0.74482  0.82045  0.71252  1.0000 -0.2666813396
N   N15       1.0  0.81930  0.86752  0.78150  1.0000 -0.1986046843
N   N16       1.0  0.55618  0.87512  0.71448  1.0000 -0.0918585323
N   N17       1.0  0.80470  0.04909  0.98940  1.0000 -0.2198132686
N   N18       1.0  0.18214  0.89999  0.73394  1.0000 -0.179883966
N   N19       1.0  0.74437  0.19660  0.03457  1.0000 -0.2096359534
N   N20       1.0  0.25518  0.32045  0.78748  1.0000 -0.2666813396
N   N21       1.0  0.18070  0.36752  0.71850  1.0000 -0.1986046843
N   N22       1.0  0.44382  0.37512  0.78552  1.0000 -0.0918585323
N   N23       1.0  0.19530  0.54909  0.51060  1.0000 -0.2198132686
N   N24       1.0  0.81786  0.39999  0.76606  1.0000 -0.179883966
