# DDEC6 charges by PACMAN v1.1 (https://github.com/mtap-research/PACMAN-charge/)
data_2020[Co][sql]2[FSR]7
_chemical_formula_sum              "Co2 H24 C36 N12 O8"
_cell_length_a       8.8002
_cell_length_b       10.1404
_cell_length_c       12.3422
_cell_angle_alpha    75.473
_cell_angle_beta     81.985
_cell_angle_gamma    79.456

_symmetry_space_group_name_H-M    "P 1"
_symmetry_Int_Tables_number       1

loop_
  _symmetry_equiv_pos_as_xyz
  'x, y, z'

loop_
  _atom_site_type_symbol
  _atom_site_label
  _atom_site_symmetry_multiplicity
  _atom_site_fract_x
  _atom_site_fract_y
  _atom_site_fract_z
  _atom_site_occupancy
  _atom_site_charge
Co  Co1       1.0  0.14019  0.61862  0.03596  1.0000 0.8428659934
Co  Co2       1.0  0.85981  0.38138  0.96404  1.0000 0.8428659934
H   H1        1.0  0.13260  0.08280  0.04220  1.0000 0.1282837886
H   H2        1.0  0.50410  0.82600  0.16450  1.0000 0.1092667906
H   H3        1.0  0.59670  0.00960  0.19960  1.0000 0.1025001901
H   H4        1.0  0.46060  0.22950  0.15130  1.0000 0.1092667906
H   H5        1.0  0.33420  0.80470  0.62540  1.0000 0.1182076382
H   H6        1.0  0.43270  0.47570  0.87430  1.0000 0.141858657
H   H7        1.0  0.69620  0.72290  0.32580  1.0000 0.1282837886
H   H8        1.0  0.85030  0.75090  0.15990  1.0000 0.1092667906
H   H9        1.0  0.11580  0.40420  0.26600  1.0000 0.1092667906
H   H10       1.0  0.96430  0.36450  0.43360  1.0000 0.1282837886
H   H11       1.0  0.17100  0.82290  0.79210  1.0000 0.2872844833
H   H12       1.0  0.56820  0.69640  0.50020  1.0000 0.2989676195
H   H13       1.0  0.86740  0.91720  0.95780  1.0000 0.1282837886
H   H14       1.0  0.49590  0.17400  0.83550  1.0000 0.1092667906
H   H15       1.0  0.40330  0.99040  0.80040  1.0000 0.1025001901
H   H16       1.0  0.53940  0.77050  0.84870  1.0000 0.1092667906
H   H17       1.0  0.66580  0.19530  0.37460  1.0000 0.1182076382
H   H18       1.0  0.56730  0.52430  0.12570  1.0000 0.141858657
H   H19       1.0  0.30380  0.27710  0.67420  1.0000 0.1282837886
H   H20       1.0  0.14970  0.24910  0.84010  1.0000 0.1092667906
H   H21       1.0  0.88420  0.59580  0.73400  1.0000 0.1092667906
H   H22       1.0  0.03570  0.63550  0.56640  1.0000 0.1282837886
H   H23       1.0  0.82900  0.17710  0.20790  1.0000 0.2872844833
H   H24       1.0  0.43180  0.30360  0.49980  1.0000 0.2989676195
C   C1        1.0  0.18860  0.32110  0.06660  1.0000 0.5611752766
C   C2        1.0  0.28150  0.17890  0.09360  1.0000 -0.031987992
C   C3        1.0  0.22610  0.06820  0.07350  1.0000 -0.1213701394
C   C4        1.0  0.30930  0.93620  0.09990  1.0000 -0.0109474351
C   C5        1.0  0.44810  0.91440  0.14670  1.0000 -0.0967650478
C   C6        1.0  0.50390  0.02430  0.16720  1.0000 -0.1149636013
C   C7        1.0  0.42150  0.15570  0.13930  1.0000 -0.0967650478
C   C8        1.0  0.24780  0.81820  0.07730  1.0000 0.5337324935
C   C9        1.0  0.33460  0.74100  0.69430  1.0000 -0.0734828626
C   C10       1.0  0.43130  0.61690  0.71940  1.0000 -0.1213701394
C   C11       1.0  0.38680  0.56010  0.83320  1.0000 -0.0011930815
C   C12       1.0  0.55320  0.55810  0.64520  1.0000 0.2704279917
C   C13       1.0  0.71820  0.52010  0.50960  1.0000 0.2241938907
C   C14       1.0  0.81210  0.54070  0.40050  1.0000 0.0649239021
C   C15       1.0  0.78100  0.65590  0.31580  1.0000 -0.2059162622
C   C16       1.0  0.87530  0.67240  0.21620  1.0000 0.0906691226
C   C17       1.0  0.03000  0.46950  0.27790  1.0000 0.0906691226
C   C18       1.0  0.93960  0.44510  0.37940  1.0000 -0.1777633567
C   C19       1.0  0.81140  0.67890  0.93340  1.0000 0.5611752766
C   C20       1.0  0.71850  0.82110  0.90640  1.0000 -0.031987992
C   C21       1.0  0.77390  0.93180  0.92650  1.0000 -0.1213701394
C   C22       1.0  0.69070  0.06380  0.90010  1.0000 -0.0109474351
C   C23       1.0  0.55190  0.08560  0.85330  1.0000 -0.0967650478
C   C24       1.0  0.49610  0.97570  0.83280  1.0000 -0.1149636013
C   C25       1.0  0.57850  0.84430  0.86070  1.0000 -0.0967650478
C   C26       1.0  0.75220  0.18180  0.92270  1.0000 0.5337324935
C   C27       1.0  0.66540  0.25900  0.30570  1.0000 -0.0734828626
C   C28       1.0  0.56870  0.38310  0.28060  1.0000 -0.1213701394
C   C29       1.0  0.61320  0.43990  0.16680  1.0000 -0.0011930815
C   C30       1.0  0.44680  0.44190  0.35480  1.0000 0.2704279917
C   C31       1.0  0.28180  0.47990  0.49040  1.0000 0.2241938907
C   C32       1.0  0.18790  0.45930  0.59950  1.0000 0.0649239021
C   C33       1.0  0.21900  0.34410  0.68420  1.0000 -0.2059162622
C   C34       1.0  0.12470  0.32760  0.78380  1.0000 0.0906691226
C   C35       1.0  0.97000  0.53050  0.72210  1.0000 0.0906691226
C   C36       1.0  0.06040  0.55490  0.62060  1.0000 -0.1777633567
N   N1        1.0  0.27020  0.64320  0.87410  1.0000 -0.1777633567
N   N2        1.0  0.24150  0.75300  0.78770  1.0000 -0.0641166856
N   N3        1.0  0.60220  0.61640  0.53980  1.0000 -0.295545767
N   N4        1.0  0.63540  0.43230  0.67640  1.0000 -0.2059162622
N   N5        1.0  0.74260  0.40600  0.59060  1.0000 -0.2559741539
N   N6        1.0  0.00020  0.58270  0.19540  1.0000 -0.2310975743
N   N7        1.0  0.72980  0.35680  0.12590  1.0000 -0.1777633567
N   N8        1.0  0.75850  0.24700  0.21230  1.0000 -0.0641166856
N   N9        1.0  0.39780  0.38360  0.46020  1.0000 -0.295545767
N   N10       1.0  0.36460  0.56770  0.32360  1.0000 -0.2059162622
N   N11       1.0  0.25740  0.59400  0.40940  1.0000 -0.2559741539
N   N12       1.0  0.99980  0.41730  0.80460  1.0000 -0.2310975743
O   O1        1.0  0.25290  0.42120  0.07081  1.0000 -0.5297337276
O   O2        1.0  0.05360  0.33310  0.04300  1.0000 -0.5626211864
O   O3        1.0  0.12660  0.83980  0.02960  1.0000 -0.5443675024
O   O4        1.0  0.31810  0.69600  0.10793  1.0000 -0.5297337276
O   O5        1.0  0.74710  0.57880  0.92919  1.0000 -0.5297337276
O   O6        1.0  0.94640  0.66690  0.95700  1.0000 -0.5626211864
O   O7        1.0  0.87340  0.16020  0.97040  1.0000 -0.5443675024
O   O8        1.0  0.68190  0.30400  0.89207  1.0000 -0.5297337276
