# DDEC6 charges by PACMAN v1.1 (https://github.com/mtap-research/PACMAN-charge/)
data_2020[Cd][pcu]3[FSR]4
_chemical_formula_sum              "Cd8 H112 C192 S32 N16 O32"
_cell_length_a       17.0969
_cell_length_b       19.4632
_cell_length_c       19.3285
_cell_angle_alpha    90
_cell_angle_beta     98.71
_cell_angle_gamma    90

_symmetry_space_group_name_H-M    "P 1"
_symmetry_Int_Tables_number       1

loop_
  _symmetry_equiv_pos_as_xyz
  'x, y, z'

loop_
  _atom_site_type_symbol
  _atom_site_label
  _atom_site_symmetry_multiplicity
  _atom_site_fract_x
  _atom_site_fract_y
  _atom_site_fract_z
  _atom_site_occupancy
  _atom_site_charge
Cd  Cd1       1.0  0.15746  0.06573  0.65939  1.0000 0.8635910861
Cd  Cd2       1.0  0.33933  0.93706  0.69183  1.0000 0.866735559
Cd  Cd3       1.0  0.65746  0.43427  0.65939  1.0000 0.8635910861
Cd  Cd4       1.0  0.83933  0.56294  0.69183  1.0000 0.866735559
Cd  Cd5       1.0  0.34254  0.56573  0.34061  1.0000 0.8635910861
Cd  Cd6       1.0  0.16067  0.43706  0.30817  1.0000 0.866735559
Cd  Cd7       1.0  0.84254  0.93427  0.34061  1.0000 0.8635910861
Cd  Cd8       1.0  0.66067  0.06294  0.30817  1.0000 0.866735559
H   H1        1.0  0.50980  0.10935  0.71595  1.0000 0.1016103451
H   H2        1.0  0.58911  0.20243  0.69643  1.0000 0.1107917899
H   H3        1.0  0.39519  0.32187  0.65327  1.0000 0.1107917899
H   H4        1.0  0.31550  0.22598  0.65813  1.0000 0.1212140571
H   H5        1.0  0.18166  0.77281  0.69598  1.0000 0.1212140571
H   H6        1.0  0.10217  0.67757  0.70718  1.0000 0.1107917899
H   H7        1.0  0.90894  0.79915  0.67726  1.0000 0.1107917899
H   H8        1.0  0.98769  0.89453  0.66667  1.0000 0.1107917899
H   H9        1.0  0.39222  0.00848  0.84506  1.0000 0.1107917899
H   H10       1.0  0.37560  0.99480  0.96120  1.0000 0.1320030773
H   H11       1.0  0.24492  0.82490  0.90852  1.0000 0.1320030773
H   H12       1.0  0.26504  0.84156  0.79449  1.0000 0.1107917899
H   H13       1.0  0.22120  0.82229  0.01356  1.0000 0.1395122241
H   H14       1.0  0.43343  0.04052  0.35850  1.0000 0.1613758542
H   H15       1.0  0.42340  0.01911  0.58054  1.0000 0.1107917899
H   H16       1.0  0.43182  0.03148  0.46519  1.0000 0.1320030773
H   H17       1.0  0.25447  0.89576  0.42208  1.0000 0.1320030773
H   H18       1.0  0.24767  0.88986  0.54025  1.0000 0.1107917899
H   H19       1.0  0.22863  0.12798  0.52608  1.0000 0.1107917899
H   H20       1.0  0.21988  0.11769  0.40593  1.0000 0.1320030773
H   H21       1.0  0.06688  0.96311  0.41025  1.0000 0.1455573452
H   H22       1.0  0.07850  0.97489  0.53048  1.0000 0.1107917899
H   H23       1.0  0.05835  0.95672  0.30199  1.0000 0.1745556109
H   H24       1.0  0.28054  0.16919  0.01648  1.0000 0.1455573452
H   H25       1.0  0.24659  0.15064  0.78746  1.0000 0.1107917899
H   H26       1.0  0.26638  0.16461  0.90670  1.0000 0.1320030773
H   H27       1.0  0.11960  0.00135  0.91619  1.0000 0.1320030773
H   H28       1.0  0.10955  0.99021  0.79784  1.0000 0.1107917899
H   H29       1.0  0.00980  0.39065  0.71595  1.0000 0.1016103451
H   H30       1.0  0.08911  0.29757  0.69643  1.0000 0.1107917899
H   H31       1.0  0.89519  0.17813  0.65327  1.0000 0.1107917899
H   H32       1.0  0.81550  0.27402  0.65813  1.0000 0.1212140571
H   H33       1.0  0.68166  0.72719  0.69598  1.0000 0.1212140571
H   H34       1.0  0.60217  0.82243  0.70718  1.0000 0.1107917899
H   H35       1.0  0.40894  0.70085  0.67726  1.0000 0.1107917899
H   H36       1.0  0.48769  0.60547  0.66667  1.0000 0.1107917899
H   H37       1.0  0.89222  0.49152  0.84506  1.0000 0.1107917899
H   H38       1.0  0.87560  0.50520  0.96120  1.0000 0.1320030773
H   H39       1.0  0.74492  0.67510  0.90852  1.0000 0.1320030773
H   H40       1.0  0.76504  0.65844  0.79449  1.0000 0.1107917899
H   H41       1.0  0.72120  0.67771  0.01356  1.0000 0.1395122241
H   H42       1.0  0.93343  0.45948  0.35850  1.0000 0.1613758542
H   H43       1.0  0.92340  0.48089  0.58054  1.0000 0.1107917899
H   H44       1.0  0.93182  0.46852  0.46519  1.0000 0.1320030773
H   H45       1.0  0.75447  0.60424  0.42208  1.0000 0.1320030773
H   H46       1.0  0.74767  0.61014  0.54025  1.0000 0.1107917899
H   H47       1.0  0.72863  0.37202  0.52608  1.0000 0.1107917899
H   H48       1.0  0.71988  0.38231  0.40593  1.0000 0.1320030773
H   H49       1.0  0.56688  0.53689  0.41025  1.0000 0.1455573452
H   H50       1.0  0.57850  0.52511  0.53048  1.0000 0.1107917899
H   H51       1.0  0.55835  0.54328  0.30199  1.0000 0.1745556109
H   H52       1.0  0.78054  0.33081  0.01648  1.0000 0.1455573452
H   H53       1.0  0.74659  0.34936  0.78746  1.0000 0.1107917899
H   H54       1.0  0.76638  0.33539  0.90670  1.0000 0.1320030773
H   H55       1.0  0.61960  0.49865  0.91619  1.0000 0.1320030773
H   H56       1.0  0.60955  0.50979  0.79784  1.0000 0.1107917899
H   H57       1.0  0.99020  0.60935  0.28405  1.0000 0.1016103451
H   H58       1.0  0.91089  0.70243  0.30357  1.0000 0.1107917899
H   H59       1.0  0.10481  0.82187  0.34673  1.0000 0.1107917899
H   H60       1.0  0.18450  0.72598  0.34187  1.0000 0.1212140571
H   H61       1.0  0.31834  0.27281  0.30402  1.0000 0.1212140571
H   H62       1.0  0.39783  0.17757  0.29282  1.0000 0.1107917899
H   H63       1.0  0.59106  0.29915  0.32274  1.0000 0.1107917899
H   H64       1.0  0.51231  0.39453  0.33333  1.0000 0.1107917899
H   H65       1.0  0.10778  0.50848  0.15494  1.0000 0.1107917899
H   H66       1.0  0.12440  0.49480  0.03880  1.0000 0.1320030773
H   H67       1.0  0.25508  0.32490  0.09148  1.0000 0.1320030773
H   H68       1.0  0.23496  0.34156  0.20551  1.0000 0.1107917899
H   H69       1.0  0.27880  0.32229  0.98644  1.0000 0.1395122241
H   H70       1.0  0.06657  0.54052  0.64150  1.0000 0.1613758542
H   H71       1.0  0.07660  0.51911  0.41946  1.0000 0.1107917899
H   H72       1.0  0.06818  0.53148  0.53481  1.0000 0.1320030773
H   H73       1.0  0.24553  0.39576  0.57792  1.0000 0.1320030773
H   H74       1.0  0.25233  0.38986  0.45975  1.0000 0.1107917899
H   H75       1.0  0.27137  0.62798  0.47392  1.0000 0.1107917899
H   H76       1.0  0.28012  0.61769  0.59407  1.0000 0.1320030773
H   H77       1.0  0.43312  0.46311  0.58975  1.0000 0.1455573452
H   H78       1.0  0.42150  0.47489  0.46952  1.0000 0.1107917899
H   H79       1.0  0.44165  0.45672  0.69801  1.0000 0.1745556109
H   H80       1.0  0.21946  0.66919  0.98352  1.0000 0.1455573452
H   H81       1.0  0.25341  0.65064  0.21254  1.0000 0.1107917899
H   H82       1.0  0.23362  0.66461  0.09330  1.0000 0.1320030773
H   H83       1.0  0.38040  0.50135  0.08381  1.0000 0.1320030773
H   H84       1.0  0.39045  0.49021  0.20216  1.0000 0.1107917899
H   H85       1.0  0.49020  0.89065  0.28405  1.0000 0.1016103451
H   H86       1.0  0.41089  0.79757  0.30357  1.0000 0.1107917899
H   H87       1.0  0.60481  0.67813  0.34673  1.0000 0.1107917899
H   H88       1.0  0.68450  0.77402  0.34187  1.0000 0.1212140571
H   H89       1.0  0.81834  0.22719  0.30402  1.0000 0.1212140571
H   H90       1.0  0.89783  0.32243  0.29282  1.0000 0.1107917899
H   H91       1.0  0.09106  0.20085  0.32274  1.0000 0.1107917899
H   H92       1.0  0.01231  0.10547  0.33333  1.0000 0.1107917899
H   H93       1.0  0.60778  0.99152  0.15494  1.0000 0.1107917899
H   H94       1.0  0.62440  0.00520  0.03880  1.0000 0.1320030773
H   H95       1.0  0.75508  0.17510  0.09148  1.0000 0.1320030773
H   H96       1.0  0.73496  0.15844  0.20551  1.0000 0.1107917899
H   H97       1.0  0.77880  0.17771  0.98644  1.0000 0.1395122241
H   H98       1.0  0.56657  0.95948  0.64150  1.0000 0.1613758542
H   H99       1.0  0.57660  0.98089  0.41946  1.0000 0.1107917899
H   H100      1.0  0.56818  0.96852  0.53481  1.0000 0.1320030773
H   H101      1.0  0.74553  0.10424  0.57792  1.0000 0.1320030773
H   H102      1.0  0.75233  0.11014  0.45975  1.0000 0.1107917899
H   H103      1.0  0.77137  0.87202  0.47392  1.0000 0.1107917899
H   H104      1.0  0.78012  0.88231  0.59407  1.0000 0.1320030773
H   H105      1.0  0.93312  0.03689  0.58975  1.0000 0.1455573452
H   H106      1.0  0.92150  0.02511  0.46952  1.0000 0.1107917899
H   H107      1.0  0.94165  0.04328  0.69801  1.0000 0.1745556109
H   H108      1.0  0.71946  0.83081  0.98352  1.0000 0.1455573452
H   H109      1.0  0.75341  0.84936  0.21254  1.0000 0.1107917899
H   H110      1.0  0.73362  0.83539  0.09330  1.0000 0.1320030773
H   H111      1.0  0.88040  0.99865  0.08381  1.0000 0.1320030773
H   H112      1.0  0.89045  0.00979  0.20216  1.0000 0.1107917899
C   C1        1.0  0.35320  0.09460  0.68840  1.0000 0.5500440709
C   C2        1.0  0.40410  0.15780  0.68610  1.0000 -0.0182825001
C   C3        1.0  0.48620  0.15180  0.70010  1.0000 -0.1107285443
C   C4        1.0  0.53330  0.20790  0.69090  1.0000 -0.1107285443
C   C5        1.0  0.50110  0.27050  0.67410  1.0000 -0.0005276254
C   C6        1.0  0.41840  0.27800  0.66340  1.0000 -0.1165115231
C   C7        1.0  0.37140  0.22130  0.66780  1.0000 -0.1107285443
C   C8        1.0  0.55550  0.32920  0.66420  1.0000 0.5500440709
C   C9        1.0  0.14290  0.90540  0.67260  1.0000 0.5662162714
C   C10       1.0  0.09380  0.84280  0.68140  1.0000 -0.0299250335
C   C11       1.0  0.12600  0.77840  0.69230  1.0000 -0.1107285443
C   C12       1.0  0.07890  0.72160  0.69790  1.0000 -0.1165115231
C   C13       1.0  0.99660  0.72930  0.68990  1.0000 -0.0005276254
C   C14       1.0  0.96460  0.79360  0.68030  1.0000 -0.1107285443
C   C15       1.0  0.01120  0.85050  0.67480  1.0000 -0.1107285443
C   C16       1.0  0.94300  0.66810  0.69110  1.0000 0.542319756
C   C17       1.0  0.36160  0.97100  0.85750  1.0000 0.1212140571
C   C18       1.0  0.35160  0.96290  0.92730  1.0000 -0.2117690879
C   C19       1.0  0.30750  0.90970  0.94790  1.0000 0.1212140571
C   C20       1.0  0.27490  0.86310  0.89670  1.0000 -0.188471945
C   C21       1.0  0.28720  0.87360  0.82910  1.0000 0.0587651776
C   C22       1.0  0.29690  0.90140  0.02140  1.0000 0.001724343
C   C23       1.0  0.25020  0.85410  0.04470  1.0000 -0.2320470847
C   C24       1.0  0.31090  0.92080  0.15870  1.0000 -0.0815129205
C   C25       1.0  0.33020  0.94760  0.21960  1.0000 -0.1165115231
C   C26       1.0  0.39980  0.01100  0.32820  1.0000 -0.2200573609
C   C27       1.0  0.35280  0.96690  0.35390  1.0000 -0.0073642472
C   C28       1.0  0.38920  0.99270  0.54750  1.0000 0.0410513021
C   C29       1.0  0.39540  0.99970  0.47970  1.0000 -0.188471945
C   C30       1.0  0.34680  0.95880  0.43000  1.0000 0.1320030773
C   C31       1.0  0.29160  0.92070  0.45410  1.0000 -0.188471945
C   C32       1.0  0.28780  0.91730  0.52510  1.0000 0.1107917899
C   C33       1.0  0.19440  0.09390  0.50290  1.0000 0.1107917899
C   C34       1.0  0.19010  0.08770  0.43060  1.0000 -0.2042171247
C   C35       1.0  0.14370  0.03930  0.39570  1.0000 0.1212140571
C   C36       1.0  0.10080  0.99730  0.43350  1.0000 -0.1805006042
C   C37       1.0  0.10720  0.00510  0.50500  1.0000 0.0301244878
C   C38       1.0  0.13830  0.03140  0.31970  1.0000 -0.0073642472
C   C39       1.0  0.09150  0.98690  0.28100  1.0000 -0.2117690879
C   C40       1.0  0.16340  0.05130  0.19070  1.0000 -0.1107285443
C   C41       1.0  0.18730  0.07340  0.13520  1.0000 -0.0927130468
C   C42       1.0  0.20450  0.09160  0.00340  1.0000 -0.0182825001
C   C43       1.0  0.25100  0.13750  0.03960  1.0000 -0.2320470847
C   C44       1.0  0.22220  0.11920  0.81510  1.0000 0.0784303136
C   C45       1.0  0.23380  0.12840  0.88570  1.0000 -0.188471945
C   C46       1.0  0.19660  0.08350  0.92660  1.0000 0.1395122241
C   C47       1.0  0.14790  0.03190  0.89070  1.0000 -0.2117690879
C   C48       1.0  0.14150  0.02600  0.82060  1.0000 0.1016103451
C   C49       1.0  0.85320  0.40540  0.68840  1.0000 0.5500440709
C   C50       1.0  0.90410  0.34220  0.68610  1.0000 -0.0182825001
C   C51       1.0  0.98620  0.34820  0.70010  1.0000 -0.1107285443
C   C52       1.0  0.03330  0.29210  0.69090  1.0000 -0.1107285443
C   C53       1.0  0.00110  0.22950  0.67410  1.0000 -0.0005276254
C   C54       1.0  0.91840  0.22200  0.66340  1.0000 -0.1165115231
C   C55       1.0  0.87140  0.27870  0.66780  1.0000 -0.1107285443
C   C56       1.0  0.05550  0.17080  0.66420  1.0000 0.5500440709
C   C57       1.0  0.64290  0.59460  0.67260  1.0000 0.5662162714
C   C58       1.0  0.59380  0.65720  0.68140  1.0000 -0.0299250335
C   C59       1.0  0.62600  0.72160  0.69230  1.0000 -0.1107285443
C   C60       1.0  0.57890  0.77840  0.69790  1.0000 -0.1165115231
C   C61       1.0  0.49660  0.77070  0.68990  1.0000 -0.0005276254
C   C62       1.0  0.46460  0.70640  0.68030  1.0000 -0.1107285443
C   C63       1.0  0.51120  0.64950  0.67480  1.0000 -0.1107285443
C   C64       1.0  0.44300  0.83190  0.69110  1.0000 0.542319756
C   C65       1.0  0.86160  0.52900  0.85750  1.0000 0.1212140571
C   C66       1.0  0.85160  0.53710  0.92730  1.0000 -0.2117690879
C   C67       1.0  0.80750  0.59030  0.94790  1.0000 0.1212140571
C   C68       1.0  0.77490  0.63690  0.89670  1.0000 -0.188471945
C   C69       1.0  0.78720  0.62640  0.82910  1.0000 0.0587651776
C   C70       1.0  0.79690  0.59860  0.02140  1.0000 0.001724343
C   C71       1.0  0.75020  0.64590  0.04470  1.0000 -0.2320470847
C   C72       1.0  0.81090  0.57920  0.15870  1.0000 -0.0815129205
C   C73       1.0  0.83020  0.55240  0.21960  1.0000 -0.1165115231
C   C74       1.0  0.89980  0.48900  0.32820  1.0000 -0.2200573609
C   C75       1.0  0.85280  0.53310  0.35390  1.0000 -0.0073642472
C   C76       1.0  0.88920  0.50730  0.54750  1.0000 0.0410513021
C   C77       1.0  0.89540  0.50030  0.47970  1.0000 -0.188471945
C   C78       1.0  0.84680  0.54120  0.43000  1.0000 0.1320030773
C   C79       1.0  0.79160  0.57930  0.45410  1.0000 -0.188471945
C   C80       1.0  0.78780  0.58270  0.52510  1.0000 0.1107917899
C   C81       1.0  0.69440  0.40610  0.50290  1.0000 0.1107917899
C   C82       1.0  0.69010  0.41230  0.43060  1.0000 -0.2042171247
C   C83       1.0  0.64370  0.46070  0.39570  1.0000 0.1212140571
C   C84       1.0  0.60080  0.50270  0.43350  1.0000 -0.1805006042
C   C85       1.0  0.60720  0.49490  0.50500  1.0000 0.0301244878
C   C86       1.0  0.63830  0.46860  0.31970  1.0000 -0.0073642472
C   C87       1.0  0.59150  0.51310  0.28100  1.0000 -0.2117690879
C   C88       1.0  0.66340  0.44870  0.19070  1.0000 -0.1107285443
C   C89       1.0  0.68730  0.42660  0.13520  1.0000 -0.0927130468
C   C90       1.0  0.70450  0.40840  0.00340  1.0000 -0.0182825001
C   C91       1.0  0.75100  0.36250  0.03960  1.0000 -0.2320470847
C   C92       1.0  0.72220  0.38080  0.81510  1.0000 0.0784303136
C   C93       1.0  0.73380  0.37160  0.88570  1.0000 -0.188471945
C   C94       1.0  0.69660  0.41650  0.92660  1.0000 0.1395122241
C   C95       1.0  0.64790  0.46810  0.89070  1.0000 -0.2117690879
C   C96       1.0  0.64150  0.47400  0.82060  1.0000 0.1016103451
C   C97       1.0  0.14680  0.59460  0.31160  1.0000 0.5500440709
C   C98       1.0  0.09590  0.65780  0.31390  1.0000 -0.0182825001
C   C99       1.0  0.01380  0.65180  0.29990  1.0000 -0.1107285443
C   C100      1.0  0.96670  0.70790  0.30910  1.0000 -0.1107285443
C   C101      1.0  0.99890  0.77050  0.32590  1.0000 -0.0005276254
C   C102      1.0  0.08160  0.77800  0.33660  1.0000 -0.1165115231
C   C103      1.0  0.12860  0.72130  0.33220  1.0000 -0.1107285443
C   C104      1.0  0.94450  0.82920  0.33580  1.0000 0.5500440709
C   C105      1.0  0.35710  0.40540  0.32740  1.0000 0.5662162714
C   C106      1.0  0.40620  0.34280  0.31860  1.0000 -0.0299250335
C   C107      1.0  0.37400  0.27840  0.30770  1.0000 -0.1107285443
C   C108      1.0  0.42110  0.22160  0.30210  1.0000 -0.1165115231
C   C109      1.0  0.50340  0.22930  0.31010  1.0000 -0.0005276254
C   C110      1.0  0.53540  0.29360  0.31970  1.0000 -0.1107285443
C   C111      1.0  0.48880  0.35050  0.32520  1.0000 -0.1107285443
C   C112      1.0  0.55700  0.16810  0.30890  1.0000 0.542319756
C   C113      1.0  0.13840  0.47100  0.14250  1.0000 0.1212140571
C   C114      1.0  0.14840  0.46290  0.07270  1.0000 -0.2117690879
C   C115      1.0  0.19250  0.40970  0.05210  1.0000 0.1212140571
C   C116      1.0  0.22510  0.36310  0.10330  1.0000 -0.188471945
C   C117      1.0  0.21280  0.37360  0.17090  1.0000 0.0587651776
C   C118      1.0  0.20310  0.40140  0.97860  1.0000 0.001724343
C   C119      1.0  0.24980  0.35410  0.95530  1.0000 -0.2320470847
C   C120      1.0  0.18910  0.42080  0.84130  1.0000 -0.0815129205
C   C121      1.0  0.16980  0.44760  0.78040  1.0000 -0.1165115231
C   C122      1.0  0.10020  0.51100  0.67180  1.0000 -0.2200573609
C   C123      1.0  0.14720  0.46690  0.64610  1.0000 -0.0073642472
C   C124      1.0  0.11080  0.49270  0.45250  1.0000 0.0410513021
C   C125      1.0  0.10460  0.49970  0.52030  1.0000 -0.188471945
C   C126      1.0  0.15320  0.45880  0.57000  1.0000 0.1320030773
C   C127      1.0  0.20840  0.42070  0.54590  1.0000 -0.188471945
C   C128      1.0  0.21220  0.41730  0.47490  1.0000 0.1107917899
C   C129      1.0  0.30560  0.59390  0.49710  1.0000 0.1107917899
C   C130      1.0  0.30990  0.58770  0.56940  1.0000 -0.2042171247
C   C131      1.0  0.35630  0.53930  0.60430  1.0000 0.1212140571
C   C132      1.0  0.39920  0.49730  0.56650  1.0000 -0.1805006042
C   C133      1.0  0.39280  0.50510  0.49500  1.0000 0.0301244878
C   C134      1.0  0.36170  0.53140  0.68030  1.0000 -0.0073642472
C   C135      1.0  0.40850  0.48690  0.71900  1.0000 -0.2117690879
C   C136      1.0  0.33660  0.55130  0.80930  1.0000 -0.1107285443
C   C137      1.0  0.31270  0.57340  0.86480  1.0000 -0.0927130468
C   C138      1.0  0.29550  0.59160  0.99660  1.0000 -0.0182825001
C   C139      1.0  0.24900  0.63750  0.96040  1.0000 -0.2320470847
C   C140      1.0  0.27780  0.61920  0.18490  1.0000 0.0784303136
C   C141      1.0  0.26620  0.62840  0.11430  1.0000 -0.188471945
C   C142      1.0  0.30340  0.58350  0.07340  1.0000 0.1395122241
C   C143      1.0  0.35210  0.53190  0.10930  1.0000 -0.2117690879
C   C144      1.0  0.35850  0.52600  0.17940  1.0000 0.1016103451
C   C145      1.0  0.64680  0.90540  0.31160  1.0000 0.5500440709
C   C146      1.0  0.59590  0.84220  0.31390  1.0000 -0.0182825001
C   C147      1.0  0.51380  0.84820  0.29990  1.0000 -0.1107285443
C   C148      1.0  0.46670  0.79210  0.30910  1.0000 -0.1107285443
C   C149      1.0  0.49890  0.72950  0.32590  1.0000 -0.0005276254
C   C150      1.0  0.58160  0.72200  0.33660  1.0000 -0.1165115231
C   C151      1.0  0.62860  0.77870  0.33220  1.0000 -0.1107285443
C   C152      1.0  0.44450  0.67080  0.33580  1.0000 0.5500440709
C   C153      1.0  0.85710  0.09460  0.32740  1.0000 0.5662162714
C   C154      1.0  0.90620  0.15720  0.31860  1.0000 -0.0299250335
C   C155      1.0  0.87400  0.22160  0.30770  1.0000 -0.1107285443
C   C156      1.0  0.92110  0.27840  0.30210  1.0000 -0.1165115231
C   C157      1.0  0.00340  0.27070  0.31010  1.0000 -0.0005276254
C   C158      1.0  0.03540  0.20640  0.31970  1.0000 -0.1107285443
C   C159      1.0  0.98880  0.14950  0.32520  1.0000 -0.1107285443
C   C160      1.0  0.05700  0.33190  0.30890  1.0000 0.542319756
C   C161      1.0  0.63840  0.02900  0.14250  1.0000 0.1212140571
C   C162      1.0  0.64840  0.03710  0.07270  1.0000 -0.2117690879
C   C163      1.0  0.69250  0.09030  0.05210  1.0000 0.1212140571
C   C164      1.0  0.72510  0.13690  0.10330  1.0000 -0.188471945
C   C165      1.0  0.71280  0.12640  0.17090  1.0000 0.0587651776
C   C166      1.0  0.70310  0.09860  0.97860  1.0000 0.001724343
C   C167      1.0  0.74980  0.14590  0.95530  1.0000 -0.2320470847
C   C168      1.0  0.68910  0.07920  0.84130  1.0000 -0.0815129205
C   C169      1.0  0.66980  0.05240  0.78040  1.0000 -0.1165115231
C   C170      1.0  0.60020  0.98900  0.67180  1.0000 -0.2200573609
C   C171      1.0  0.64720  0.03310  0.64610  1.0000 -0.0073642472
C   C172      1.0  0.61080  0.00730  0.45250  1.0000 0.0410513021
C   C173      1.0  0.60460  0.00030  0.52030  1.0000 -0.188471945
C   C174      1.0  0.65320  0.04120  0.57000  1.0000 0.1320030773
C   C175      1.0  0.70840  0.07930  0.54590  1.0000 -0.188471945
C   C176      1.0  0.71220  0.08270  0.47490  1.0000 0.1107917899
C   C177      1.0  0.80560  0.90610  0.49710  1.0000 0.1107917899
C   C178      1.0  0.80990  0.91230  0.56940  1.0000 -0.2042171247
C   C179      1.0  0.85630  0.96070  0.60430  1.0000 0.1212140571
C   C180      1.0  0.89920  0.00270  0.56650  1.0000 -0.1805006042
C   C181      1.0  0.89280  0.99490  0.49500  1.0000 0.0301244878
C   C182      1.0  0.86170  0.96860  0.68030  1.0000 -0.0073642472
C   C183      1.0  0.90850  0.01310  0.71900  1.0000 -0.2117690879
C   C184      1.0  0.83660  0.94870  0.80930  1.0000 -0.1107285443
C   C185      1.0  0.81270  0.92660  0.86480  1.0000 -0.0927130468
C   C186      1.0  0.79550  0.90840  0.99660  1.0000 -0.0182825001
C   C187      1.0  0.74900  0.86250  0.96040  1.0000 -0.2320470847
C   C188      1.0  0.77780  0.88080  0.18490  1.0000 0.0784303136
C   C189      1.0  0.76620  0.87160  0.11430  1.0000 -0.188471945
C   C190      1.0  0.80340  0.91650  0.07340  1.0000 0.1395122241
C   C191      1.0  0.85210  0.96810  0.10930  1.0000 -0.2117690879
C   C192      1.0  0.85850  0.97400  0.17940  1.0000 0.1016103451
S   S1        1.0  0.35050  0.95580  0.08454  1.0000 0.0143534764
S   S2        1.0  0.24410  0.85260  0.13505  1.0000 0.1016103451
S   S3        1.0  0.39920  0.01407  0.23879  1.0000 0.1455573452
S   S4        1.0  0.29387  0.91359  0.29462  1.0000 0.0536815459
S   S5        1.0  0.25681  0.13890  0.13075  1.0000 0.1107917899
S   S6        1.0  0.14960  0.03790  0.05027  1.0000 0.0301244878
S   S7        1.0  0.19763  0.08478  0.27458  1.0000 0.0587651776
S   S8        1.0  0.09230  0.98506  0.19139  1.0000 0.1107917899
S   S9        1.0  0.85050  0.54420  0.08454  1.0000 0.0151123553
S   S10       1.0  0.74410  0.64740  0.13505  1.0000 0.1016103451
S   S11       1.0  0.89920  0.48593  0.23879  1.0000 0.1455573452
S   S12       1.0  0.79387  0.58641  0.29462  1.0000 0.0536815459
S   S13       1.0  0.75681  0.36110  0.13075  1.0000 0.1107917899
S   S14       1.0  0.64960  0.46210  0.05027  1.0000 0.0301244878
S   S15       1.0  0.69763  0.41522  0.27458  1.0000 0.0587651776
S   S16       1.0  0.59230  0.51494  0.19139  1.0000 0.1107917899
S   S17       1.0  0.14950  0.45580  0.91546  1.0000 0.0143534764
S   S18       1.0  0.25590  0.35260  0.86495  1.0000 0.1016103451
S   S19       1.0  0.10080  0.51407  0.76121  1.0000 0.1455573452
S   S20       1.0  0.20613  0.41359  0.70538  1.0000 0.0536815459
S   S21       1.0  0.24319  0.63890  0.86925  1.0000 0.1107917899
S   S22       1.0  0.35040  0.53790  0.94973  1.0000 0.0301244878
S   S23       1.0  0.30237  0.58478  0.72542  1.0000 0.0587651776
S   S24       1.0  0.40770  0.48506  0.80861  1.0000 0.1107917899
S   S25       1.0  0.64950  0.04420  0.91546  1.0000 0.0151123553
S   S26       1.0  0.75590  0.14740  0.86495  1.0000 0.1016103451
S   S27       1.0  0.60080  0.98593  0.76121  1.0000 0.1455573452
S   S28       1.0  0.70613  0.08641  0.70538  1.0000 0.0536815459
S   S29       1.0  0.74319  0.86110  0.86925  1.0000 0.1107917899
S   S30       1.0  0.85040  0.96210  0.94973  1.0000 0.0301244878
S   S31       1.0  0.80237  0.91522  0.72542  1.0000 0.0587651776
S   S32       1.0  0.90770  0.01494  0.80861  1.0000 0.1107917899
N   N1        1.0  0.33010  0.92830  0.80830  1.0000 -0.2452674173
N   N2        1.0  0.33650  0.94970  0.57190  1.0000 -0.2200573609
N   N3        1.0  0.15400  0.05550  0.54100  1.0000 -0.2452674173
N   N4        1.0  0.17810  0.06810  0.78210  1.0000 -0.2416923382
N   N5        1.0  0.83010  0.57170  0.80830  1.0000 -0.2452674173
N   N6        1.0  0.83650  0.55030  0.57190  1.0000 -0.2200573609
N   N7        1.0  0.65400  0.44450  0.54100  1.0000 -0.2452674173
N   N8        1.0  0.67810  0.43190  0.78210  1.0000 -0.2416923382
N   N9        1.0  0.16990  0.42830  0.19170  1.0000 -0.2452674173
N   N10       1.0  0.16350  0.44970  0.42810  1.0000 -0.2200573609
N   N11       1.0  0.34600  0.55550  0.45900  1.0000 -0.2452674173
N   N12       1.0  0.32190  0.56810  0.21790  1.0000 -0.2416923382
N   N13       1.0  0.66990  0.07170  0.19170  1.0000 -0.2452674173
N   N14       1.0  0.66350  0.05030  0.42810  1.0000 -0.2200573609
N   N15       1.0  0.84600  0.94450  0.45900  1.0000 -0.2452674173
N   N16       1.0  0.82190  0.93190  0.21790  1.0000 -0.2416923382
O   O1        1.0  0.38730  0.04220  0.71550  1.0000 -0.5391238171
O   O2        1.0  0.28420  0.09870  0.66040  1.0000 -0.5502749122
O   O3        1.0  0.62770  0.31790  0.66640  1.0000 -0.5391238171
O   O4        1.0  0.52650  0.38880  0.65530  1.0000 -0.5605135051
O   O5        1.0  0.21490  0.89660  0.67040  1.0000 -0.5676950403
O   O6        1.0  0.10600  0.96170  0.66700  1.0000 -0.5605135051
O   O7        1.0  0.97120  0.60890  0.69750  1.0000 -0.5605135051
O   O8        1.0  0.87030  0.67900  0.68750  1.0000 -0.5391238171
O   O9        1.0  0.88730  0.45780  0.71550  1.0000 -0.5391238171
O   O10       1.0  0.78420  0.40130  0.66040  1.0000 -0.5502749122
O   O11       1.0  0.12770  0.18210  0.66640  1.0000 -0.5391238171
O   O12       1.0  0.02650  0.11120  0.65530  1.0000 -0.5605135051
O   O13       1.0  0.71490  0.60340  0.67040  1.0000 -0.5676950403
O   O14       1.0  0.60600  0.53830  0.66700  1.0000 -0.5605135051
O   O15       1.0  0.47120  0.89110  0.69750  1.0000 -0.5605135051
O   O16       1.0  0.37030  0.82100  0.68750  1.0000 -0.5391238171
O   O17       1.0  0.11270  0.54220  0.28450  1.0000 -0.5391238171
O   O18       1.0  0.21580  0.59870  0.33960  1.0000 -0.5502749122
O   O19       1.0  0.87230  0.81790  0.33360  1.0000 -0.5391238171
O   O20       1.0  0.97350  0.88880  0.34470  1.0000 -0.5605135051
O   O21       1.0  0.28510  0.39660  0.32960  1.0000 -0.5676950403
O   O22       1.0  0.39400  0.46170  0.33300  1.0000 -0.5605135051
O   O23       1.0  0.52880  0.10890  0.30250  1.0000 -0.5605135051
O   O24       1.0  0.62970  0.17900  0.31250  1.0000 -0.5391238171
O   O25       1.0  0.61270  0.95780  0.28450  1.0000 -0.5391238171
O   O26       1.0  0.71580  0.90130  0.33960  1.0000 -0.5502749122
O   O27       1.0  0.37230  0.68210  0.33360  1.0000 -0.5391238171
O   O28       1.0  0.47350  0.61120  0.34470  1.0000 -0.5605135051
O   O29       1.0  0.78510  0.10340  0.32960  1.0000 -0.5676950403
O   O30       1.0  0.89400  0.03830  0.33300  1.0000 -0.5605135051
O   O31       1.0  0.02880  0.39110  0.30250  1.0000 -0.5605135051
O   O32       1.0  0.12970  0.32100  0.31250  1.0000 -0.5391238171
