# DDEC6 charges by PACMAN v1.1 (https://github.com/mtap-research/PACMAN-charge/)
data_2020[Zn][ths]3[FSR]1
_chemical_formula_sum              "Zn8 H160 C204 N8 O32"
_cell_length_a       14.968
_cell_length_b       10.201
_cell_length_c       30.58
_cell_angle_alpha    90
_cell_angle_beta     90
_cell_angle_gamma    90

_symmetry_space_group_name_H-M    "P 1"
_symmetry_Int_Tables_number       1

loop_
  _symmetry_equiv_pos_as_xyz
  'x, y, z'

loop_
  _atom_site_type_symbol
  _atom_site_label
  _atom_site_symmetry_multiplicity
  _atom_site_fract_x
  _atom_site_fract_y
  _atom_site_fract_z
  _atom_site_occupancy
  _atom_site_charge
Zn  Zn1       1.0  0.51953  0.23829  0.64240  1.0000 0.8076481861
Zn  Zn2       1.0  0.02146  0.73146  0.87905  1.0000 0.8048216146
Zn  Zn3       1.0  0.52139  0.76845  0.37902  1.0000 0.8048216146
Zn  Zn4       1.0  0.01968  0.26176  0.14236  1.0000 0.8076481861
Zn  Zn5       1.0  0.01953  0.76171  0.35760  1.0000 0.8076481861
Zn  Zn6       1.0  0.52146  0.26854  0.12095  1.0000 0.8048216146
Zn  Zn7       1.0  0.02139  0.23155  0.62098  1.0000 0.8048216146
Zn  Zn8       1.0  0.51968  0.73824  0.85764  1.0000 0.8076481861
H   H1        1.0  0.51390  0.35770  0.55060  1.0000 0.1295118499
H   H2        1.0  0.80550  0.23260  0.56440  1.0000 0.1572901313
H   H3        1.0  0.70530  0.19830  0.61900  1.0000 0.1202363261
H   H4        1.0  0.75170  0.36350  0.45860  1.0000 0.1202363261
H   H5        1.0  0.81250  0.25250  0.47770  1.0000 0.1295118499
H   H6        1.0  0.89260  0.44870  0.46930  1.0000 0.1079724547
H   H7        1.0  0.89370  0.40130  0.51790  1.0000 0.1079724547
H   H8        1.0  0.79560  0.56100  0.53880  1.0000 0.1295118499
H   H9        1.0  0.87040  0.63040  0.51150  1.0000 0.1295118499
H   H10       1.0  0.66250  0.68090  0.52610  1.0000 0.1295118499
H   H11       1.0  0.55420  0.76090  0.48080  1.0000 0.1202363261
H   H12       1.0  0.70020  0.68200  0.37870  1.0000 0.1202363261
H   H13       1.0  0.81090  0.59590  0.42120  1.0000 0.1572901313
H   H14       1.0  0.01300  0.14500  0.05010  1.0000 0.1295118499
H   H15       1.0  0.10900  0.10990  0.99250  1.0000 0.1484959242
H   H16       1.0  0.30510  0.27080  0.06380  1.0000 0.1572901313
H   H17       1.0  0.20580  0.30100  0.11880  1.0000 0.1202363261
H   H18       1.0  0.31260  0.24800  0.97750  1.0000 0.1295118499
H   H19       1.0  0.25180  0.13690  0.95830  1.0000 0.1202363261
H   H20       1.0  0.39290  0.09890  0.01820  1.0000 0.1079724547
H   H21       1.0  0.39260  0.05090  0.96960  1.0000 0.1079724547
H   H22       1.0  0.36970  0.86960  0.01190  1.0000 0.1295118499
H   H23       1.0  0.29450  0.93920  0.03900  1.0000 0.1295118499
H   H24       1.0  0.16200  0.81970  0.02650  1.0000 0.1295118499
H   H25       1.0  0.05480  0.73600  0.98070  1.0000 0.1202363261
H   H26       1.0  0.20000  0.81950  0.87870  1.0000 0.1202363261
H   H27       1.0  0.31150  0.90260  0.92130  1.0000 0.1572901313
H   H28       1.0  0.36460  0.82110  0.66590  1.0000 0.1390084274
H   H29       1.0  0.50070  0.87760  0.69930  1.0000 0.1484959242
H   H30       1.0  0.60720  0.38810  0.49210  1.0000 0.1484959242
H   H31       1.0  0.24240  0.69390  0.65870  1.0000 0.1202363261
H   H32       1.0  0.28770  0.01560  0.61740  1.0000 0.1295118499
H   H33       1.0  0.72810  0.12200  0.72770  1.0000 0.1202363261
H   H34       1.0  0.62860  0.89920  0.74330  1.0000 0.1390084274
H   H35       1.0  0.15250  0.97310  0.57800  1.0000 0.1202363261
H   H36       1.0  0.03440  0.84200  0.55800  1.0000 0.1295118499
H   H37       1.0  0.12300  0.56310  0.64040  1.0000 0.1295118499
H   H38       1.0  0.72660  0.83770  0.79580  1.0000 0.1202363261
H   H39       1.0  0.83460  0.77700  0.84520  1.0000 0.1295118499
H   H40       1.0  0.97450  0.10020  0.81300  1.0000 0.1390084274
H   H41       1.0  0.87030  0.15230  0.76200  1.0000 0.1202363261
H   H42       1.0  0.00030  0.62120  0.20000  1.0000 0.1484959242
H   H43       1.0  0.86550  0.68020  0.16560  1.0000 0.1295118499
H   H44       1.0  0.78700  0.48380  0.11810  1.0000 0.1202363261
H   H45       1.0  0.74300  0.80670  0.15860  1.0000 0.1202363261
H   H46       1.0  0.62340  0.93700  0.14050  1.0000 0.1295118499
H   H47       1.0  0.53420  0.65810  0.05820  1.0000 0.1295118499
H   H48       1.0  0.65260  0.52650  0.07800  1.0000 0.1202363261
H   H49       1.0  0.12880  0.60020  0.24350  1.0000 0.1390084274
H   H50       1.0  0.22820  0.37850  0.22790  1.0000 0.1202363261
H   H51       1.0  0.22700  0.66360  0.29640  1.0000 0.1202363261
H   H52       1.0  0.33400  0.72120  0.34520  1.0000 0.1295118499
H   H53       1.0  0.47530  0.40010  0.31270  1.0000 0.1390084274
H   H54       1.0  0.36960  0.34790  0.26220  1.0000 0.1202363261
H   H55       1.0  0.97790  0.41100  0.80170  1.0000 0.1484959242
H   H56       1.0  0.85360  0.33570  0.83880  1.0000 0.1295118499
H   H57       1.0  0.78750  0.49550  0.90310  1.0000 0.1202363261
H   H58       1.0  0.63510  0.46370  0.92620  1.0000 0.1202363261
H   H59       1.0  0.50800  0.33840  0.93210  1.0000 0.1295118499
H   H60       1.0  0.62470  0.05810  0.85920  1.0000 0.1295118499
H   H61       1.0  0.75020  0.18560  0.85270  1.0000 0.1202363261
H   H62       1.0  0.10910  0.43390  0.75950  1.0000 0.1390084274
H   H63       1.0  0.22080  0.63090  0.78670  1.0000 0.1202363261
H   H64       1.0  0.36140  0.66260  0.75290  1.0000 0.1202363261
H   H65       1.0  0.47200  0.60560  0.70400  1.0000 0.1390084274
H   H66       1.0  0.32340  0.29670  0.66590  1.0000 0.1295118499
H   H67       1.0  0.21240  0.35890  0.71200  1.0000 0.1202363261
H   H68       1.0  0.47940  0.09060  0.30230  1.0000 0.1484959242
H   H69       1.0  0.35310  0.16450  0.33870  1.0000 0.1295118499
H   H70       1.0  0.28800  0.00520  0.40280  1.0000 0.1202363261
H   H71       1.0  0.13400  0.03510  0.42620  1.0000 0.1202363261
H   H72       1.0  0.00840  0.16300  0.43270  1.0000 0.1295118499
H   H73       1.0  0.12330  0.44170  0.35880  1.0000 0.1295118499
H   H74       1.0  0.24980  0.31510  0.35290  1.0000 0.1202363261
H   H75       1.0  0.60930  0.06610  0.25980  1.0000 0.1390084274
H   H76       1.0  0.72090  0.86920  0.28640  1.0000 0.1202363261
H   H77       1.0  0.86160  0.83610  0.25240  1.0000 0.1202363261
H   H78       1.0  0.97190  0.89550  0.20390  1.0000 0.1390084274
H   H79       1.0  0.82400  0.20430  0.16560  1.0000 0.1295118499
H   H80       1.0  0.71190  0.14020  0.21220  1.0000 0.1202363261
H   H81       1.0  0.01390  0.64230  0.44940  1.0000 0.1295118499
H   H82       1.0  0.30550  0.76740  0.43560  1.0000 0.1572901313
H   H83       1.0  0.20530  0.80170  0.38100  1.0000 0.1202363261
H   H84       1.0  0.25170  0.63650  0.54140  1.0000 0.1202363261
H   H85       1.0  0.31250  0.74750  0.52230  1.0000 0.1295118499
H   H86       1.0  0.39260  0.55130  0.53070  1.0000 0.1079724547
H   H87       1.0  0.39370  0.59870  0.48210  1.0000 0.1079724547
H   H88       1.0  0.29560  0.43900  0.46120  1.0000 0.1295118499
H   H89       1.0  0.37040  0.36960  0.48850  1.0000 0.1295118499
H   H90       1.0  0.16250  0.31910  0.47390  1.0000 0.1295118499
H   H91       1.0  0.05420  0.23910  0.51920  1.0000 0.1202363261
H   H92       1.0  0.20020  0.31800  0.62130  1.0000 0.1202363261
H   H93       1.0  0.31090  0.40410  0.57880  1.0000 0.1572901313
H   H94       1.0  0.51300  0.85500  0.94990  1.0000 0.1295118499
H   H95       1.0  0.60900  0.89010  0.00750  1.0000 0.1484959242
H   H96       1.0  0.80510  0.72920  0.93620  1.0000 0.1572901313
H   H97       1.0  0.70580  0.69900  0.88120  1.0000 0.1202363261
H   H98       1.0  0.81260  0.75200  0.02250  1.0000 0.1295118499
H   H99       1.0  0.75180  0.86310  0.04170  1.0000 0.1202363261
H   H100      1.0  0.89290  0.90110  0.98180  1.0000 0.1079724547
H   H101      1.0  0.89260  0.94910  0.03040  1.0000 0.1079724547
H   H102      1.0  0.86970  0.13040  0.98810  1.0000 0.1295118499
H   H103      1.0  0.79450  0.06080  0.96100  1.0000 0.1295118499
H   H104      1.0  0.66200  0.18030  0.97350  1.0000 0.1295118499
H   H105      1.0  0.55480  0.26400  0.01930  1.0000 0.1202363261
H   H106      1.0  0.70000  0.18050  0.12130  1.0000 0.1202363261
H   H107      1.0  0.81150  0.09740  0.07870  1.0000 0.1572901313
H   H108      1.0  0.86460  0.17890  0.33410  1.0000 0.1390084274
H   H109      1.0  0.00070  0.12240  0.30070  1.0000 0.1484959242
H   H110      1.0  0.10720  0.61190  0.50790  1.0000 0.1484959242
H   H111      1.0  0.74240  0.30610  0.34130  1.0000 0.1202363261
H   H112      1.0  0.78770  0.98440  0.38260  1.0000 0.1295118499
H   H113      1.0  0.22810  0.87800  0.27230  1.0000 0.1202363261
H   H114      1.0  0.12860  0.10080  0.25670  1.0000 0.1390084274
H   H115      1.0  0.65250  0.02690  0.42200  1.0000 0.1202363261
H   H116      1.0  0.53440  0.15800  0.44200  1.0000 0.1295118499
H   H117      1.0  0.62300  0.43690  0.35960  1.0000 0.1295118499
H   H118      1.0  0.22660  0.16230  0.20420  1.0000 0.1202363261
H   H119      1.0  0.33460  0.22300  0.15480  1.0000 0.1295118499
H   H120      1.0  0.47450  0.89980  0.18700  1.0000 0.1390084274
H   H121      1.0  0.37030  0.84770  0.23800  1.0000 0.1202363261
H   H122      1.0  0.50030  0.37880  0.80000  1.0000 0.1484959242
H   H123      1.0  0.36550  0.31980  0.83440  1.0000 0.1390084274
H   H124      1.0  0.28700  0.51620  0.88190  1.0000 0.1202363261
H   H125      1.0  0.24300  0.19330  0.84140  1.0000 0.1202363261
H   H126      1.0  0.12340  0.06300  0.85950  1.0000 0.1295118499
H   H127      1.0  0.03420  0.34190  0.94180  1.0000 0.1295118499
H   H128      1.0  0.15260  0.47350  0.92200  1.0000 0.1202363261
H   H129      1.0  0.62880  0.39980  0.75650  1.0000 0.1390084274
H   H130      1.0  0.72820  0.62150  0.77210  1.0000 0.1202363261
H   H131      1.0  0.72700  0.33640  0.70360  1.0000 0.1202363261
H   H132      1.0  0.83400  0.27880  0.65480  1.0000 0.1295118499
H   H133      1.0  0.97530  0.59990  0.68730  1.0000 0.1390084274
H   H134      1.0  0.86960  0.65210  0.73780  1.0000 0.1202363261
H   H135      1.0  0.47790  0.58900  0.19830  1.0000 0.1484959242
H   H136      1.0  0.35360  0.66430  0.16120  1.0000 0.1295118499
H   H137      1.0  0.28750  0.50450  0.09690  1.0000 0.1202363261
H   H138      1.0  0.13510  0.53630  0.07380  1.0000 0.1202363261
H   H139      1.0  0.00800  0.66160  0.06790  1.0000 0.1295118499
H   H140      1.0  0.12470  0.94190  0.14080  1.0000 0.1295118499
H   H141      1.0  0.25020  0.81440  0.14730  1.0000 0.1202363261
H   H142      1.0  0.60910  0.56610  0.24050  1.0000 0.1390084274
H   H143      1.0  0.72080  0.36910  0.21330  1.0000 0.1202363261
H   H144      1.0  0.86140  0.33740  0.24710  1.0000 0.1202363261
H   H145      1.0  0.97200  0.39440  0.29600  1.0000 0.1390084274
H   H146      1.0  0.82340  0.70330  0.33410  1.0000 0.1295118499
H   H147      1.0  0.71240  0.64110  0.28800  1.0000 0.1202363261
H   H148      1.0  0.97940  0.90940  0.69770  1.0000 0.1484959242
H   H149      1.0  0.85310  0.83550  0.66130  1.0000 0.1295118499
H   H150      1.0  0.78800  0.99480  0.59720  1.0000 0.1202363261
H   H151      1.0  0.63400  0.96490  0.57380  1.0000 0.1202363261
H   H152      1.0  0.50840  0.83700  0.56730  1.0000 0.1295118499
H   H153      1.0  0.62330  0.55830  0.64120  1.0000 0.1295118499
H   H154      1.0  0.74980  0.68490  0.64710  1.0000 0.1202363261
H   H155      1.0  0.10930  0.93390  0.74020  1.0000 0.1390084274
H   H156      1.0  0.22090  0.13080  0.71360  1.0000 0.1202363261
H   H157      1.0  0.36160  0.16390  0.74760  1.0000 0.1202363261
H   H158      1.0  0.47190  0.10450  0.79610  1.0000 0.1390084274
H   H159      1.0  0.32400  0.79570  0.83440  1.0000 0.1295118499
H   H160      1.0  0.21190  0.85980  0.78780  1.0000 0.1202363261
C   C1        1.0  0.57300  0.33020  0.55260  1.0000 0.0815222492
C   C2        1.0  0.74610  0.25710  0.56050  1.0000 -0.1834079283
C   C3        1.0  0.68590  0.23740  0.59320  1.0000 0.0815222492
C   C4        1.0  0.78390  0.33540  0.48450  1.0000 -0.247169003
C   C5        1.0  0.85570  0.43630  0.49500  1.0000 -0.122297321
C   C6        1.0  0.82060  0.56970  0.50970  1.0000 -0.2411967746
C   C7        1.0  0.75000  0.62750  0.47970  1.0000 0.1830903731
C   C8        1.0  0.67160  0.67890  0.49610  1.0000 -0.1971887847
C   C9        1.0  0.60630  0.72750  0.46850  1.0000 0.0876489584
C   C10       1.0  0.69200  0.68040  0.40880  1.0000 0.0729047102
C   C11       1.0  0.75940  0.62910  0.43420  1.0000 -0.1834079283
C   C12       1.0  0.07240  0.17060  0.05260  1.0000 0.0815222492
C   C13       1.0  0.13020  0.14910  0.01790  1.0000 -0.1931576728
C   C14       1.0  0.21840  0.18530  0.02070  1.0000 0.1830903731
C   C15       1.0  0.24600  0.24440  0.06020  1.0000 -0.1834079283
C   C16       1.0  0.18600  0.26250  0.09300  1.0000 0.0815222492
C   C17       1.0  0.28380  0.16510  0.98420  1.0000 -0.247169003
C   C18       1.0  0.35530  0.06370  0.99520  1.0000 -0.122297321
C   C19       1.0  0.24960  0.87300  0.97950  1.0000 0.1830903731
C   C20       1.0  0.32000  0.93040  0.00990  1.0000 -0.2411967746
C   C21       1.0  0.17120  0.82100  0.99640  1.0000 -0.1971887847
C   C22       1.0  0.10650  0.77110  0.96850  1.0000 0.0876489584
C   C23       1.0  0.19220  0.82000  0.90890  1.0000 0.0815222492
C   C24       1.0  0.25970  0.87050  0.93420  1.0000 -0.1834079283
C   C25       1.0  0.36080  0.90330  0.65300  1.0000 -0.1931576728
C   C26       1.0  0.43460  0.99690  0.65950  1.0000 0.4212457222
C   C27       1.0  0.50400  0.96120  0.68730  1.0000 -0.4615982878
C   C28       1.0  0.62900  0.35050  0.51770  1.0000 -0.1931576728
C   C29       1.0  0.20110  0.72390  0.63830  1.0000 -0.1283762749
C   C30       1.0  0.21270  0.84800  0.61972  1.0000 0.0876489584
C   C31       1.0  0.28930  0.93180  0.62940  1.0000 -0.0880223992
C   C32       1.0  0.71740  0.04290  0.74190  1.0000 -0.0880223992
C   C33       1.0  0.64140  0.98020  0.73080  1.0000 -0.2160885739
C   C34       1.0  0.57870  0.03710  0.69940  1.0000 0.4212457222
C   C35       1.0  0.14760  0.88970  0.59010  1.0000 -0.1283762749
C   C36       1.0  0.07630  0.81150  0.57810  1.0000 -0.2090467612
C   C37       1.0  0.06750  0.68650  0.59622  1.0000 0.3267504614
C   C38       1.0  0.12960  0.64460  0.62720  1.0000 -0.2160885739
C   C39       1.0  0.71850  0.31450  0.52080  1.0000 0.1862451103
C   C40       1.0  0.78490  0.00220  0.77350  1.0000 0.0815222492
C   C41       1.0  0.77700  0.89010  0.79900  1.0000 -0.122297321
C   C42       1.0  0.84150  0.85370  0.82910  1.0000 -0.2411967746
C   C43       1.0  0.91730  0.93290  0.83540  1.0000 0.3495518408
C   C44       1.0  0.92510  0.04600  0.80950  1.0000 -0.1931576728
C   C45       1.0  0.86200  0.07810  0.77920  1.0000 -0.1283762749
C   C46       1.0  0.00410  0.53820  0.18753  1.0000 -0.4615982878
C   C47       1.0  0.93480  0.50370  0.15940  1.0000 0.4212457222
C   C48       1.0  0.86130  0.59760  0.15290  1.0000 -0.1971887847
C   C49       1.0  0.78900  0.56830  0.12950  1.0000 -0.0880223992
C   C50       1.0  0.71240  0.65210  0.11950  1.0000 0.0815222492
C   C51       1.0  0.70140  0.77680  0.13833  1.0000 -0.122297321
C   C52       1.0  0.63010  0.85550  0.12727  1.0000 -0.2090467612
C   C53       1.0  0.56770  0.81320  0.09610  1.0000 0.3267504614
C   C54       1.0  0.57630  0.68860  0.07820  1.0000 -0.2090467612
C   C55       1.0  0.64780  0.60990  0.09010  1.0000 -0.1283762749
C   C56       1.0  0.07900  0.46320  0.19940  1.0000 0.4212457222
C   C57       1.0  0.14180  0.51950  0.23090  1.0000 -0.2090467612
C   C58       1.0  0.21770  0.45780  0.24200  1.0000 -0.0880223992
C   C59       1.0  0.28550  0.49840  0.27320  1.0000 0.0815222492
C   C60       1.0  0.27740  0.61100  0.29930  1.0000 -0.122297321
C   C61       1.0  0.34120  0.64490  0.32890  1.0000 -0.2411967746
C   C62       1.0  0.41810  0.56760  0.33540  1.0000 0.3495518408
C   C63       1.0  0.42580  0.45430  0.30940  1.0000 -0.1931576728
C   C64       1.0  0.36190  0.42260  0.27920  1.0000 -0.1283762749
C   C65       1.0  0.99030  0.47990  0.82070  1.0000 -0.4658403504
C   C66       1.0  0.93050  0.49820  0.85470  1.0000 0.412700091
C   C67       1.0  0.85400  0.40800  0.85730  1.0000 -0.1971887847
C   C68       1.0  0.78520  0.42340  0.88450  1.0000 -0.1026958353
C   C69       1.0  0.70690  0.33980  0.88840  1.0000 0.0815222492
C   C70       1.0  0.63280  0.38250  0.91240  1.0000 -0.1484466004
C   C71       1.0  0.55670  0.30730  0.91620  1.0000 -0.2090467612
C   C72       1.0  0.55280  0.18490  0.89630  1.0000 0.3219583672
C   C73       1.0  0.62660  0.14000  0.87250  1.0000 -0.2090467612
C   C74       1.0  0.70170  0.21650  0.86870  1.0000 -0.122297321
C   C75       1.0  0.06780  0.55340  0.81140  1.0000 0.4367327732
C   C76       1.0  0.12740  0.50410  0.77670  1.0000 -0.2090467612
C   C77       1.0  0.20680  0.55850  0.76950  1.0000 -0.0825280654
C   C78       1.0  0.27490  0.51840  0.73800  1.0000 0.0815222492
C   C79       1.0  0.35350  0.58970  0.73500  1.0000 -0.1283762749
C   C80       1.0  0.42050  0.55490  0.70600  1.0000 -0.1971887847
C   C81       1.0  0.41080  0.44320  0.67970  1.0000 0.3495518408
C   C82       1.0  0.33100  0.37110  0.68310  1.0000 -0.2411967746
C   C83       1.0  0.26490  0.40750  0.71080  1.0000 -0.122297321
C   C84       1.0  0.49100  0.02010  0.32080  1.0000 -0.4615982878
C   C85       1.0  0.42970  0.00110  0.35450  1.0000 0.412700091
C   C86       1.0  0.35340  0.09210  0.35720  1.0000 -0.1931576728
C   C87       1.0  0.28540  0.07720  0.38420  1.0000 -0.1026958353
C   C88       1.0  0.20700  0.16040  0.38830  1.0000 0.0876489584
C   C89       1.0  0.13220  0.11660  0.41270  1.0000 -0.1484466004
C   C90       1.0  0.05690  0.19300  0.41650  1.0000 -0.2090467612
C   C91       1.0  0.05310  0.31480  0.39635  1.0000 0.3219583672
C   C92       1.0  0.12570  0.36020  0.37240  1.0000 -0.2090467612
C   C93       1.0  0.20130  0.28360  0.36880  1.0000 -0.122297321
C   C94       1.0  0.56750  0.94700  0.31100  1.0000 0.4212457222
C   C95       1.0  0.62740  0.99550  0.27680  1.0000 -0.2090467612
C   C96       1.0  0.70700  0.94190  0.26940  1.0000 -0.0880223992
C   C97       1.0  0.77490  0.98190  0.23830  1.0000 0.0815222492
C   C98       1.0  0.85370  0.90970  0.23490  1.0000 -0.1283762749
C   C99       1.0  0.92020  0.94570  0.20590  1.0000 -0.1971887847
C   C100      1.0  0.91040  0.05630  0.17980  1.0000 0.3390806657
C   C101      1.0  0.83130  0.12990  0.18280  1.0000 -0.2411967746
C   C102      1.0  0.76460  0.09210  0.21110  1.0000 -0.1283762749
C   C103      1.0  0.07300  0.66980  0.44740  1.0000 0.0815222492
C   C104      1.0  0.24610  0.74290  0.43950  1.0000 -0.1834079283
C   C105      1.0  0.18590  0.76260  0.40680  1.0000 0.0815222492
C   C106      1.0  0.28390  0.66460  0.51550  1.0000 -0.247169003
C   C107      1.0  0.35570  0.56370  0.50500  1.0000 -0.122297321
C   C108      1.0  0.32060  0.43030  0.49030  1.0000 -0.2411967746
C   C109      1.0  0.25000  0.37250  0.52030  1.0000 0.1830903731
C   C110      1.0  0.17160  0.32110  0.50390  1.0000 -0.1971887847
C   C111      1.0  0.10630  0.27250  0.53150  1.0000 0.0876489584
C   C112      1.0  0.19200  0.31960  0.59120  1.0000 0.0729047102
C   C113      1.0  0.25940  0.37090  0.56580  1.0000 -0.1834079283
C   C114      1.0  0.57240  0.82940  0.94740  1.0000 0.0815222492
C   C115      1.0  0.63020  0.85090  0.98210  1.0000 -0.1931576728
C   C116      1.0  0.71840  0.81470  0.97930  1.0000 0.1830903731
C   C117      1.0  0.74600  0.75560  0.93980  1.0000 -0.1834079283
C   C118      1.0  0.68600  0.73750  0.90700  1.0000 0.0815222492
C   C119      1.0  0.78380  0.83490  0.01580  1.0000 -0.247169003
C   C120      1.0  0.85530  0.93630  0.00480  1.0000 -0.122297321
C   C121      1.0  0.74960  0.12700  0.02050  1.0000 0.1830903731
C   C122      1.0  0.82000  0.06960  0.99010  1.0000 -0.2411967746
C   C123      1.0  0.67120  0.17900  0.00360  1.0000 -0.1971887847
C   C124      1.0  0.60650  0.22890  0.03150  1.0000 0.0876489584
C   C125      1.0  0.69220  0.18000  0.09110  1.0000 0.0815222492
C   C126      1.0  0.75970  0.12950  0.06580  1.0000 -0.1834079283
C   C127      1.0  0.86080  0.09670  0.34700  1.0000 -0.1931576728
C   C128      1.0  0.93460  0.00310  0.34050  1.0000 0.4212457222
C   C129      1.0  0.00400  0.03880  0.31270  1.0000 -0.4615982878
C   C130      1.0  0.12900  0.64950  0.48230  1.0000 -0.1931576728
C   C131      1.0  0.70110  0.27610  0.36170  1.0000 -0.1283762749
C   C132      1.0  0.71270  0.15200  0.38028  1.0000 0.0876489584
C   C133      1.0  0.78930  0.06820  0.37060  1.0000 -0.0880223992
C   C134      1.0  0.21740  0.95710  0.25810  1.0000 -0.0880223992
C   C135      1.0  0.14140  0.01980  0.26920  1.0000 -0.2160885739
C   C136      1.0  0.07870  0.96290  0.30060  1.0000 0.4212457222
C   C137      1.0  0.64760  0.11030  0.40990  1.0000 -0.1283762749
C   C138      1.0  0.57630  0.18850  0.42190  1.0000 -0.2090467612
C   C139      1.0  0.56750  0.31350  0.40378  1.0000 0.3267504614
C   C140      1.0  0.62960  0.35540  0.37280  1.0000 -0.2160885739
C   C141      1.0  0.21850  0.68550  0.47920  1.0000 0.1862451103
C   C142      1.0  0.28490  0.99780  0.22650  1.0000 0.0815222492
C   C143      1.0  0.27700  0.10990  0.20100  1.0000 -0.122297321
C   C144      1.0  0.34150  0.14630  0.17090  1.0000 -0.2411967746
C   C145      1.0  0.41730  0.06710  0.16460  1.0000 0.3495518408
C   C146      1.0  0.42510  0.95400  0.19050  1.0000 -0.1931576728
C   C147      1.0  0.36200  0.92190  0.22080  1.0000 -0.1283762749
C   C148      1.0  0.50410  0.46180  0.81247  1.0000 -0.4615982878
C   C149      1.0  0.43480  0.49630  0.84060  1.0000 0.4212457222
C   C150      1.0  0.36130  0.40240  0.84710  1.0000 -0.1971887847
C   C151      1.0  0.28900  0.43170  0.87050  1.0000 -0.0880223992
C   C152      1.0  0.21240  0.34790  0.88050  1.0000 0.0815222492
C   C153      1.0  0.20140  0.22320  0.86167  1.0000 -0.122297321
C   C154      1.0  0.13010  0.14450  0.87273  1.0000 -0.2090467612
C   C155      1.0  0.06770  0.18680  0.90390  1.0000 0.3267504614
C   C156      1.0  0.07630  0.31140  0.92180  1.0000 -0.2090467612
C   C157      1.0  0.14780  0.39010  0.90990  1.0000 -0.1283762749
C   C158      1.0  0.57900  0.53680  0.80060  1.0000 0.4212457222
C   C159      1.0  0.64180  0.48050  0.76910  1.0000 -0.2090467612
C   C160      1.0  0.71770  0.54220  0.75800  1.0000 -0.0880223992
C   C161      1.0  0.78550  0.50160  0.72680  1.0000 0.0815222492
C   C162      1.0  0.77740  0.38900  0.70070  1.0000 -0.122297321
C   C163      1.0  0.84120  0.35510  0.67110  1.0000 -0.2411967746
C   C164      1.0  0.91810  0.43240  0.66460  1.0000 0.3495518408
C   C165      1.0  0.92580  0.54570  0.69060  1.0000 -0.1931576728
C   C166      1.0  0.86190  0.57740  0.72080  1.0000 -0.1283762749
C   C167      1.0  0.49030  0.52010  0.17930  1.0000 -0.4658403504
C   C168      1.0  0.43050  0.50180  0.14530  1.0000 0.412700091
C   C169      1.0  0.35400  0.59200  0.14270  1.0000 -0.1971887847
C   C170      1.0  0.28520  0.57660  0.11550  1.0000 -0.1026958353
C   C171      1.0  0.20690  0.66020  0.11160  1.0000 0.0815222492
C   C172      1.0  0.13280  0.61750  0.08760  1.0000 -0.1484466004
C   C173      1.0  0.05670  0.69270  0.08380  1.0000 -0.2090467612
C   C174      1.0  0.05280  0.81510  0.10370  1.0000 0.3219583672
C   C175      1.0  0.12660  0.86000  0.12750  1.0000 -0.2090467612
C   C176      1.0  0.20170  0.78350  0.13130  1.0000 -0.122297321
C   C177      1.0  0.56780  0.44660  0.18860  1.0000 0.4367327732
C   C178      1.0  0.62740  0.49590  0.22330  1.0000 -0.2090467612
C   C179      1.0  0.70680  0.44150  0.23050  1.0000 -0.0825280654
C   C180      1.0  0.77490  0.48160  0.26200  1.0000 0.0815222492
C   C181      1.0  0.85350  0.41030  0.26500  1.0000 -0.1283762749
C   C182      1.0  0.92050  0.44510  0.29400  1.0000 -0.1971887847
C   C183      1.0  0.91080  0.55680  0.32030  1.0000 0.3495518408
C   C184      1.0  0.83100  0.62890  0.31690  1.0000 -0.2411967746
C   C185      1.0  0.76490  0.59250  0.28920  1.0000 -0.122297321
C   C186      1.0  0.99100  0.97990  0.67920  1.0000 -0.4615982878
C   C187      1.0  0.92970  0.99890  0.64550  1.0000 0.412700091
C   C188      1.0  0.85340  0.90790  0.64280  1.0000 -0.1971887847
C   C189      1.0  0.78540  0.92280  0.61580  1.0000 -0.1026958353
C   C190      1.0  0.70700  0.83960  0.61170  1.0000 0.0876489584
C   C191      1.0  0.63220  0.88340  0.58730  1.0000 -0.1484466004
C   C192      1.0  0.55690  0.80700  0.58350  1.0000 -0.2090467612
C   C193      1.0  0.55310  0.68520  0.60365  1.0000 0.3219583672
C   C194      1.0  0.62570  0.63980  0.62760  1.0000 -0.2090467612
C   C195      1.0  0.70130  0.71640  0.63120  1.0000 -0.122297321
C   C196      1.0  0.06750  0.05300  0.68900  1.0000 0.4212457222
C   C197      1.0  0.12740  0.00450  0.72320  1.0000 -0.2090467612
C   C198      1.0  0.20700  0.05810  0.73060  1.0000 -0.0880223992
C   C199      1.0  0.27490  0.01810  0.76170  1.0000 0.0815222492
C   C200      1.0  0.35370  0.09030  0.76510  1.0000 -0.1283762749
C   C201      1.0  0.42020  0.05430  0.79410  1.0000 -0.1971887847
C   C202      1.0  0.41040  0.94370  0.82020  1.0000 0.3390806657
C   C203      1.0  0.33130  0.87010  0.81720  1.0000 -0.2411967746
C   C204      1.0  0.26460  0.90790  0.78890  1.0000 -0.1283762749
N   N1        1.0  0.60070  0.27170  0.58996  1.0000 -0.2411967746
N   N2        1.0  0.61440  0.72870  0.42510  1.0000 -0.247169003
N   N3        1.0  0.10080  0.22850  0.09020  1.0000 -0.2411967746
N   N4        1.0  0.11510  0.77110  0.92506  1.0000 -0.247169003
N   N5        1.0  0.10070  0.72830  0.41004  1.0000 -0.2411967746
N   N6        1.0  0.11440  0.27130  0.57490  1.0000 -0.247169003
N   N7        1.0  0.60080  0.77150  0.90980  1.0000 -0.2411967746
N   N8        1.0  0.61510  0.22890  0.07494  1.0000 -0.2411967746
O   O1        1.0  0.42830  0.10530  0.63851  1.0000 -0.500241801
O   O2        1.0  0.97860  0.90400  0.86638  1.0000 -0.5441788989
O   O3        1.0  0.92900  0.39470  0.13844  1.0000 -0.500241801
O   O4        1.0  0.09570  0.34730  0.18465  1.0000 -0.5110351865
O   O5        1.0  0.49870  0.88930  0.08279  1.0000 -0.500241801
O   O6        1.0  0.47820  0.59510  0.36651  1.0000 -0.5314171869
O   O7        1.0  0.97490  0.08950  0.15085  1.0000 -0.5484616715
O   O8        1.0  0.59170  0.84310  0.33163  1.0000 -0.500241801
O   O9        1.0  0.43440  0.90880  0.38404  1.0000 -0.5168268937
O   O10       1.0  0.97750  0.38780  0.40121  1.0000 -0.5110351865
O   O11       1.0  0.93440  0.59090  0.88391  1.0000 -0.5110351865
O   O12       1.0  0.09210  0.65680  0.83163  1.0000 -0.500241801
O   O13       1.0  0.47450  0.41190  0.65083  1.0000 -0.5314171869
O   O14       1.0  0.47740  0.11230  0.90142  1.0000 -0.5110351865
O   O15       1.0  0.59560  0.15300  0.68476  1.0000 -0.5168268937
O   O16       1.0  0.99910  0.61040  0.58300  1.0000 -0.500241801
O   O17       1.0  0.92830  0.89470  0.36149  1.0000 -0.500241801
O   O18       1.0  0.47860  0.09600  0.13362  1.0000 -0.5441788989
O   O19       1.0  0.42900  0.60530  0.86156  1.0000 -0.500241801
O   O20       1.0  0.59570  0.65270  0.81535  1.0000 -0.5110351865
O   O21       1.0  0.99870  0.11070  0.91721  1.0000 -0.5110351865
O   O22       1.0  0.97820  0.40490  0.63349  1.0000 -0.5314171869
O   O23       1.0  0.47490  0.91050  0.84915  1.0000 -0.5484616715
O   O24       1.0  0.09170  0.15690  0.66837  1.0000 -0.500241801
O   O25       1.0  0.93440  0.09120  0.61596  1.0000 -0.5168268937
O   O26       1.0  0.47750  0.61220  0.59879  1.0000 -0.5110351865
O   O27       1.0  0.43440  0.40910  0.11609  1.0000 -0.5110351865
O   O28       1.0  0.59210  0.34320  0.16837  1.0000 -0.500241801
O   O29       1.0  0.97450  0.58810  0.34917  1.0000 -0.5314171869
O   O30       1.0  0.97740  0.88770  0.09858  1.0000 -0.5110351865
O   O31       1.0  0.09560  0.84700  0.31524  1.0000 -0.5168268937
O   O32       1.0  0.49910  0.38960  0.41700  1.0000 -0.500241801
