# DDEC6 charges by PACMAN v1.1 (https://github.com/mtap-research/PACMAN-charge/)
data_2020[Cd][ant]3[FSR]1
_chemical_formula_sum              "Cd8 H52 C84 N4 O40"
_cell_length_a       11.772
_cell_length_b       12.748
_cell_length_c       23.643
_cell_angle_alpha    95.875
_cell_angle_beta     96.511
_cell_angle_gamma    101.303

_symmetry_space_group_name_H-M    "P 1"
_symmetry_Int_Tables_number       1

loop_
  _symmetry_equiv_pos_as_xyz
  'x, y, z'

loop_
  _atom_site_type_symbol
  _atom_site_label
  _atom_site_symmetry_multiplicity
  _atom_site_fract_x
  _atom_site_fract_y
  _atom_site_fract_z
  _atom_site_occupancy
  _atom_site_charge
Cd  Cd1       1.0  0.49685  0.98203  0.29214  1.0000 1.0949139572
Cd  Cd2       1.0  0.19189  0.92959  0.26615  1.0000 1.017295239
Cd  Cd3       1.0  0.72043  0.31903  0.13238  1.0000 1.0064420677
Cd  Cd4       1.0  0.63699  0.25286  0.27250  1.0000 0.9988244749
Cd  Cd5       1.0  0.50315  0.01797  0.70786  1.0000 1.0949139572
Cd  Cd6       1.0  0.80811  0.07041  0.73385  1.0000 1.017295239
Cd  Cd7       1.0  0.27957  0.68097  0.86762  1.0000 1.0064420677
Cd  Cd8       1.0  0.36301  0.74714  0.72750  1.0000 0.9988244749
H   H1        1.0  0.81720  0.50750  0.12420  1.0000 0.3648969806
H   H2        1.0  0.91570  0.46120  0.13180  1.0000 0.371973095
H   H3        1.0  0.18440  0.05170  0.18710  1.0000 0.2550238944
H   H4        1.0  0.12400  0.97870  0.14800  1.0000 0.3090819693
H   H5        1.0  0.96760  0.84980  0.28960  1.0000 0.3306187368
H   H6        1.0  0.95630  0.94100  0.26960  1.0000 0.3090819693
H   H7        1.0  0.69670  0.88680  0.27950  1.0000 0.3222189746
H   H8        1.0  0.63090  0.83780  0.31470  1.0000 0.3222189746
H   H9        1.0  0.36700  0.02140  0.48190  1.0000 0.129581043
H   H10       1.0  0.36960  0.98400  0.57500  1.0000 0.1138686812
H   H11       1.0  0.29270  0.66870  0.51940  1.0000 0.1212659948
H   H12       1.0  0.14790  0.57500  0.44390  1.0000 0.129581043
H   H13       1.0  0.10920  0.43040  0.37180  1.0000 0.1212659948
H   H14       1.0  0.21380  0.44000  0.29450  1.0000 0.1212659948
H   H15       1.0  0.45660  0.47720  0.28770  1.0000 0.1374994493
H   H16       1.0  0.05990  0.29410  0.17520  1.0000 0.129581043
H   H17       1.0  0.56640  0.90760  0.13520  1.0000 0.1212659948
H   H18       1.0  0.48320  0.79740  0.05120  1.0000 0.1212659948
H   H19       1.0  0.29320  0.01330  0.00940  1.0000 0.129581043
H   H20       1.0  0.40670  0.24360  0.03660  1.0000 0.129581043
H   H21       1.0  0.34860  0.40100  0.06940  1.0000 0.1212659948
H   H22       1.0  0.25760  0.40430  0.15140  1.0000 0.129581043
H   H23       1.0  0.18930  0.16720  0.34140  1.0000 0.129581043
H   H24       1.0  0.00610  0.20500  0.32890  1.0000 0.129581043
H   H25       1.0  0.54780  0.60970  0.14840  1.0000 0.1212659948
H   H26       1.0  0.43400  0.73430  0.16490  1.0000 0.1212659948
H   H27       1.0  0.18280  0.49250  0.87580  1.0000 0.3648969806
H   H28       1.0  0.08430  0.53880  0.86820  1.0000 0.371973095
H   H29       1.0  0.81560  0.94830  0.81290  1.0000 0.2550238944
H   H30       1.0  0.87600  0.02130  0.85200  1.0000 0.3090819693
H   H31       1.0  0.03240  0.15020  0.71040  1.0000 0.3306187368
H   H32       1.0  0.04370  0.05900  0.73040  1.0000 0.3090819693
H   H33       1.0  0.30330  0.11320  0.72050  1.0000 0.3222189746
H   H34       1.0  0.36910  0.16220  0.68530  1.0000 0.3222189746
H   H35       1.0  0.63300  0.97860  0.51810  1.0000 0.129581043
H   H36       1.0  0.63040  0.01600  0.42500  1.0000 0.1138686812
H   H37       1.0  0.70730  0.33130  0.48060  1.0000 0.1212659948
H   H38       1.0  0.85210  0.42500  0.55610  1.0000 0.129581043
H   H39       1.0  0.89080  0.56960  0.62820  1.0000 0.1212659948
H   H40       1.0  0.78620  0.56000  0.70550  1.0000 0.1212659948
H   H41       1.0  0.54340  0.52280  0.71230  1.0000 0.1374994493
H   H42       1.0  0.94010  0.70590  0.82480  1.0000 0.129581043
H   H43       1.0  0.43360  0.09240  0.86480  1.0000 0.1212659948
H   H44       1.0  0.51680  0.20260  0.94880  1.0000 0.1212659948
H   H45       1.0  0.70680  0.98670  0.99060  1.0000 0.129581043
H   H46       1.0  0.59330  0.75640  0.96340  1.0000 0.129581043
H   H47       1.0  0.65140  0.59900  0.93060  1.0000 0.1212659948
H   H48       1.0  0.74240  0.59570  0.84860  1.0000 0.129581043
H   H49       1.0  0.81070  0.83280  0.65860  1.0000 0.129581043
H   H50       1.0  0.99390  0.79500  0.67110  1.0000 0.129581043
H   H51       1.0  0.45220  0.39030  0.85160  1.0000 0.1212659948
H   H52       1.0  0.56600  0.26570  0.83510  1.0000 0.1212659948
C   C1        1.0  0.29800  0.75980  0.24174  1.0000 0.5776973343
C   C2        1.0  0.37190  0.67800  0.23457  1.0000 -0.0477383309
C   C3        1.0  0.37730  0.59880  0.27161  1.0000 0.0248877252
C   C4        1.0  0.30780  0.59090  0.32083  1.0000 0.2094762525
C   C5        1.0  0.27330  0.66780  0.40765  1.0000 0.2166542388
C   C6        1.0  0.30320  0.75980  0.45432  1.0000 0.0107478346
C   C7        1.0  0.32820  0.86670  0.44370  1.0000 -0.0134452065
C   C8        1.0  0.32820  0.90010  0.38406  1.0000 0.6011139628
C   C9        1.0  0.35230  0.95010  0.48935  1.0000 -0.1287345065
C   C10       1.0  0.35450  0.92790  0.54498  1.0000 -0.0915254378
C   C11       1.0  0.33410  0.82200  0.55641  1.0000 -0.0195127782
C   C12       1.0  0.34260  0.79670  0.61707  1.0000 0.5900032497
C   C13       1.0  0.30780  0.73970  0.51151  1.0000 -0.1287345065
C   C14       1.0  0.18840  0.57730  0.41230  1.0000 -0.1900721439
C   C15       1.0  0.16540  0.49170  0.36960  1.0000 -0.0347635434
C   C16       1.0  0.22670  0.49780  0.32350  1.0000 -0.1900721439
C   C17       1.0  0.45100  0.52850  0.26285  1.0000 -0.1436451995
C   C18       1.0  0.51680  0.53280  0.21774  1.0000 -0.0195127782
C   C19       1.0  0.59780  0.45760  0.20915  1.0000 0.5900032497
C   C20       1.0  0.88950  0.26600  0.23867  1.0000 0.6011139628
C   C21       1.0  0.01310  0.25060  0.25015  1.0000 -0.0195127782
C   C22       1.0  0.08590  0.26730  0.20831  1.0000 -0.1483417847
C   C23       1.0  0.19670  0.24480  0.21496  1.0000 0.004921895
C   C24       1.0  0.26510  0.25210  0.16565  1.0000 0.1990393675
C   C25       1.0  0.35660  0.16160  0.10087  1.0000 0.2094762525
C   C26       1.0  0.39740  0.05990  0.08501  1.0000 0.0248877252
C   C27       1.0  0.48230  0.02830  0.12209  1.0000 -0.0429309704
C   C28       1.0  0.54700  0.10140  0.17424  1.0000 0.6055662013
C   C29       1.0  0.51230  0.92950  0.10967  1.0000 -0.0995935672
C   C30       1.0  0.46210  0.86330  0.05952  1.0000 -0.1067064577
C   C31       1.0  0.38010  0.89480  0.02144  1.0000 -0.0041357691
C   C32       1.0  0.32990  0.82260  0.96654  1.0000 0.5533739603
C   C33       1.0  0.34850  0.99240  0.03471  1.0000 -0.1287345065
C   C34       1.0  0.37230  0.24780  0.07003  1.0000 -0.1690008142
C   C35       1.0  0.33640  0.34100  0.08907  1.0000 -0.0195127782
C   C36       1.0  0.28240  0.34280  0.13756  1.0000 -0.1900721439
C   C37       1.0  0.23530  0.20550  0.26519  1.0000 -0.0598276579
C   C38       1.0  0.35320  0.17600  0.27436  1.0000 0.6011139628
C   C39       1.0  0.16310  0.19180  0.30758  1.0000 -0.1483417847
C   C40       1.0  0.05350  0.21430  0.30012  1.0000 -0.1067064577
C   C41       1.0  0.50710  0.60860  0.17989  1.0000 -0.1187798479
C   C42       1.0  0.43730  0.68170  0.18926  1.0000 -0.1187798479
C   C43       1.0  0.70200  0.24020  0.75826  1.0000 0.5776973343
C   C44       1.0  0.62810  0.32200  0.76543  1.0000 -0.0477383309
C   C45       1.0  0.62270  0.40120  0.72839  1.0000 0.0248877252
C   C46       1.0  0.69220  0.40910  0.67917  1.0000 0.2094762525
C   C47       1.0  0.72670  0.33220  0.59235  1.0000 0.2166542388
C   C48       1.0  0.69680  0.24020  0.54568  1.0000 0.0107478346
C   C49       1.0  0.67180  0.13330  0.55630  1.0000 -0.0134452065
C   C50       1.0  0.67180  0.09990  0.61594  1.0000 0.6011139628
C   C51       1.0  0.64770  0.04990  0.51065  1.0000 -0.1287345065
C   C52       1.0  0.64550  0.07210  0.45502  1.0000 -0.0915254378
C   C53       1.0  0.66590  0.17800  0.44359  1.0000 -0.0195127782
C   C54       1.0  0.65740  0.20330  0.38293  1.0000 0.5900032497
C   C55       1.0  0.69220  0.26030  0.48849  1.0000 -0.1287345065
C   C56       1.0  0.81160  0.42270  0.58770  1.0000 -0.1900721439
C   C57       1.0  0.83460  0.50830  0.63040  1.0000 -0.0347635434
C   C58       1.0  0.77330  0.50220  0.67650  1.0000 -0.1900721439
C   C59       1.0  0.54900  0.47150  0.73715  1.0000 -0.1436451995
C   C60       1.0  0.48320  0.46720  0.78226  1.0000 -0.0195127782
C   C61       1.0  0.40220  0.54240  0.79085  1.0000 0.5900032497
C   C62       1.0  0.11050  0.73400  0.76133  1.0000 0.6011139628
C   C63       1.0  0.98690  0.74940  0.74985  1.0000 -0.0195127782
C   C64       1.0  0.91410  0.73270  0.79169  1.0000 -0.1483417847
C   C65       1.0  0.80330  0.75520  0.78504  1.0000 0.004921895
C   C66       1.0  0.73490  0.74790  0.83435  1.0000 0.1990393675
C   C67       1.0  0.64340  0.83840  0.89913  1.0000 0.2094762525
C   C68       1.0  0.60260  0.94010  0.91499  1.0000 0.0248877252
C   C69       1.0  0.51770  0.97170  0.87791  1.0000 -0.0429309704
C   C70       1.0  0.45300  0.89860  0.82576  1.0000 0.6055662013
C   C71       1.0  0.48770  0.07050  0.89033  1.0000 -0.0995935672
C   C72       1.0  0.53790  0.13670  0.94048  1.0000 -0.1067064577
C   C73       1.0  0.61990  0.10520  0.97856  1.0000 -0.0041357691
C   C74       1.0  0.67010  0.17740  0.03346  1.0000 0.5533739603
C   C75       1.0  0.65150  0.00760  0.96529  1.0000 -0.1287345065
C   C76       1.0  0.62770  0.75220  0.92997  1.0000 -0.1690008142
C   C77       1.0  0.66360  0.65900  0.91093  1.0000 -0.0195127782
C   C78       1.0  0.71760  0.65720  0.86244  1.0000 -0.1900721439
C   C79       1.0  0.76470  0.79450  0.73481  1.0000 -0.0598276579
C   C80       1.0  0.64680  0.82400  0.72564  1.0000 0.6011139628
C   C81       1.0  0.83690  0.80820  0.69242  1.0000 -0.1483417847
C   C82       1.0  0.94650  0.78570  0.69988  1.0000 -0.1067064577
C   C83       1.0  0.49290  0.39140  0.82011  1.0000 -0.1187798479
C   C84       1.0  0.56270  0.31830  0.81074  1.0000 -0.1187798479
N   N1        1.0  0.33110  0.67490  0.36227  1.0000 -0.3346828544
N   N2        1.0  0.30240  0.16240  0.14813  1.0000 -0.340455296
N   N3        1.0  0.66890  0.32510  0.63773  1.0000 -0.3346828544
N   N4        1.0  0.69760  0.83760  0.85187  1.0000 -0.340455296
O   O1        1.0  0.34550  0.85700  0.23807  1.0000 -0.5991417193
O   O2        1.0  0.19340  0.73390  0.24770  1.0000 -0.5275479578
O   O3        1.0  0.42650  0.92580  0.36858  1.0000 -0.5711159133
O   O4        1.0  0.23050  0.90170  0.35715  1.0000 -0.5496929535
O   O5        1.0  0.37110  0.87360  0.65745  1.0000 -0.5916028046
O   O6        1.0  0.32020  0.70110  0.62679  1.0000 -0.4992515468
O   O7        1.0  0.61860  0.43770  0.15870  1.0000 -0.5711159133
O   O8        1.0  0.86580  0.30970  0.19523  1.0000 -0.5837734365
O   O9        1.0  0.82130  0.23380  0.27227  1.0000 -0.5182316327
O   O10       1.0  0.64170  0.42260  0.25267  1.0000 -0.5496929535
O   O11       1.0  0.57160  0.06070  0.21922  1.0000 -0.5711159133
O   O12       1.0  0.57750  0.20050  0.17203  1.0000 -0.5496929535
O   O13       1.0  0.35910  0.73220  0.95914  1.0000 -0.5593510293
O   O14       1.0  0.26330  0.85190  0.92924  1.0000 -0.5496929535
O   O15       1.0  0.35150  0.07840  0.28251  1.0000 -0.6144321584
O   O16       1.0  0.44090  0.24650  0.27432  1.0000 -0.4992515468
O   O17       1.0  0.85690  0.46090  0.10908  1.0000 -0.6183779263
O   O18       1.0  0.15460  0.98280  0.18085  1.0000 -0.6377404057
O   O19       1.0  0.00820  0.91170  0.28050  1.0000 -0.6183779263
O   O20       1.0  0.63110  0.88250  0.28970  1.0000 -0.6377404057
O   O21       1.0  0.65450  0.14300  0.76193  1.0000 -0.5991417193
O   O22       1.0  0.80660  0.26610  0.75230  1.0000 -0.5275479578
O   O23       1.0  0.57350  0.07420  0.63142  1.0000 -0.5711159133
O   O24       1.0  0.76950  0.09830  0.64285  1.0000 -0.5496929535
O   O25       1.0  0.62890  0.12640  0.34255  1.0000 -0.5916028046
O   O26       1.0  0.67980  0.29890  0.37321  1.0000 -0.4992515468
O   O27       1.0  0.38140  0.56230  0.84130  1.0000 -0.5711159133
O   O28       1.0  0.13420  0.69030  0.80477  1.0000 -0.5837734365
O   O29       1.0  0.17870  0.76620  0.72773  1.0000 -0.5182316327
O   O30       1.0  0.35830  0.57740  0.74733  1.0000 -0.5496929535
O   O31       1.0  0.42840  0.93930  0.78078  1.0000 -0.5711159133
O   O32       1.0  0.42250  0.79950  0.82797  1.0000 -0.5496929535
O   O33       1.0  0.64090  0.26780  0.04086  1.0000 -0.5593510293
O   O34       1.0  0.73670  0.14810  0.07076  1.0000 -0.5496929535
O   O35       1.0  0.64850  0.92160  0.71749  1.0000 -0.6144321584
O   O36       1.0  0.55910  0.75350  0.72568  1.0000 -0.4992515468
O   O37       1.0  0.14310  0.53910  0.89092  1.0000 -0.6183779263
O   O38       1.0  0.84540  0.01720  0.81915  1.0000 -0.6377404057
O   O39       1.0  0.99180  0.08830  0.71950  1.0000 -0.6183779263
O   O40       1.0  0.36890  0.11750  0.71030  1.0000 -0.6377404057
