# DDEC6 charges by PACMAN v1.1 (https://github.com/mtap-research/PACMAN-charge/)
data_2020[Zn][dia]3[FSR]2
_chemical_formula_sum              "Zn4 H64 C64 S4 N16 O16"
_cell_length_a       9.161
_cell_length_b       16.002
_cell_length_c       16.251
_cell_angle_alpha    90
_cell_angle_beta     90
_cell_angle_gamma    90

_symmetry_space_group_name_H-M    "P 1"
_symmetry_Int_Tables_number       1

loop_
  _symmetry_equiv_pos_as_xyz
  'x, y, z'

loop_
  _atom_site_type_symbol
  _atom_site_label
  _atom_site_symmetry_multiplicity
  _atom_site_fract_x
  _atom_site_fract_y
  _atom_site_fract_z
  _atom_site_occupancy
  _atom_site_charge
Zn  Zn1       1.0  0.48569  0.25000  0.58686  1.0000 0.7808654766
Zn  Zn2       1.0  0.98569  0.75000  0.91314  1.0000 0.7808654766
Zn  Zn3       1.0  0.51431  0.75000  0.41314  1.0000 0.7808654766
Zn  Zn4       1.0  0.01431  0.25000  0.08686  1.0000 0.7808654766
H   H1        1.0  0.70740  0.39740  0.63400  1.0000 0.1231702403
H   H2        1.0  0.50820  0.35930  0.42380  1.0000 0.1299761649
H   H3        1.0  0.65950  0.48440  0.40930  1.0000 0.1299761649
H   H4        1.0  0.79800  0.58090  0.51510  1.0000 0.1118824138
H   H5        1.0  0.79860  0.55090  0.60690  1.0000 0.1118824138
H   H6        1.0  0.99250  0.46080  0.57690  1.0000 0.1118824138
H   H7        1.0  0.03420  0.55480  0.56430  1.0000 0.1118824138
H   H8        1.0  0.20740  0.60260  0.86600  1.0000 0.1231702403
H   H9        1.0  0.00820  0.64070  0.07620  1.0000 0.1299761649
H   H10       1.0  0.15950  0.51560  0.09070  1.0000 0.1299761649
H   H11       1.0  0.29800  0.41910  0.98490  1.0000 0.1118824138
H   H12       1.0  0.29860  0.44910  0.89310  1.0000 0.1118824138
H   H13       1.0  0.49250  0.53920  0.92310  1.0000 0.1118824138
H   H14       1.0  0.53420  0.44520  0.93570  1.0000 0.1118824138
H   H15       1.0  0.29260  0.89740  0.36600  1.0000 0.1231702403
H   H16       1.0  0.49180  0.85930  0.57620  1.0000 0.1299761649
H   H17       1.0  0.34050  0.98440  0.59070  1.0000 0.1299761649
H   H18       1.0  0.20200  0.08090  0.48490  1.0000 0.1118824138
H   H19       1.0  0.20140  0.05090  0.39310  1.0000 0.1118824138
H   H20       1.0  0.00750  0.96080  0.42310  1.0000 0.1118824138
H   H21       1.0  0.96580  0.05480  0.43570  1.0000 0.1118824138
H   H22       1.0  0.79260  0.10260  0.13400  1.0000 0.1231702403
H   H23       1.0  0.99180  0.14070  0.92380  1.0000 0.1299761649
H   H24       1.0  0.84050  0.01560  0.90930  1.0000 0.1299761649
H   H25       1.0  0.70200  0.91910  0.01510  1.0000 0.1118824138
H   H26       1.0  0.70140  0.94910  0.10690  1.0000 0.1118824138
H   H27       1.0  0.50750  0.03920  0.07690  1.0000 0.1118824138
H   H28       1.0  0.46580  0.94520  0.06430  1.0000 0.1118824138
H   H29       1.0  0.29260  0.60260  0.36600  1.0000 0.1231702403
H   H30       1.0  0.49180  0.64070  0.57620  1.0000 0.1299761649
H   H31       1.0  0.34050  0.51560  0.59070  1.0000 0.1299761649
H   H32       1.0  0.20200  0.41910  0.48490  1.0000 0.1118824138
H   H33       1.0  0.20140  0.44910  0.39310  1.0000 0.1118824138
H   H34       1.0  0.00750  0.53920  0.42310  1.0000 0.1118824138
H   H35       1.0  0.96580  0.44520  0.43570  1.0000 0.1118824138
H   H36       1.0  0.79260  0.39740  0.13400  1.0000 0.1231702403
H   H37       1.0  0.99180  0.35930  0.92380  1.0000 0.1299761649
H   H38       1.0  0.84050  0.48440  0.90930  1.0000 0.1299761649
H   H39       1.0  0.70200  0.58090  0.01510  1.0000 0.1118824138
H   H40       1.0  0.70140  0.55090  0.10690  1.0000 0.1118824138
H   H41       1.0  0.50750  0.46080  0.07690  1.0000 0.1118824138
H   H42       1.0  0.46580  0.55480  0.06430  1.0000 0.1118824138
H   H43       1.0  0.70740  0.10260  0.63400  1.0000 0.1231702403
H   H44       1.0  0.50820  0.14070  0.42380  1.0000 0.1299761649
H   H45       1.0  0.65950  0.01560  0.40930  1.0000 0.1299761649
H   H46       1.0  0.79800  0.91910  0.51510  1.0000 0.1118824138
H   H47       1.0  0.79860  0.94910  0.60690  1.0000 0.1118824138
H   H48       1.0  0.99250  0.03920  0.57690  1.0000 0.1118824138
H   H49       1.0  0.03420  0.94520  0.56430  1.0000 0.1118824138
H   H50       1.0  0.20740  0.89740  0.86600  1.0000 0.1231702403
H   H51       1.0  0.00820  0.85930  0.07620  1.0000 0.1299761649
H   H52       1.0  0.15950  0.98440  0.09070  1.0000 0.1299761649
H   H53       1.0  0.29800  0.08090  0.98490  1.0000 0.1118824138
H   H54       1.0  0.29860  0.05090  0.89310  1.0000 0.1118824138
H   H55       1.0  0.49250  0.96080  0.92310  1.0000 0.1118824138
H   H56       1.0  0.53420  0.05480  0.93570  1.0000 0.1118824138
H   H57       1.0  0.86900  0.25000  0.52780  1.0000 0.1299761649
H   H58       1.0  0.75730  0.25000  0.38850  1.0000 0.1231702403
H   H59       1.0  0.36900  0.75000  0.97220  1.0000 0.1299761649
H   H60       1.0  0.25730  0.75000  0.11150  1.0000 0.1231702403
H   H61       1.0  0.13100  0.75000  0.47220  1.0000 0.1299761649
H   H62       1.0  0.24270  0.75000  0.61150  1.0000 0.1231702403
H   H63       1.0  0.63100  0.25000  0.02780  1.0000 0.1299761649
H   H64       1.0  0.74270  0.25000  0.88850  1.0000 0.1231702403
C   C1        1.0  0.67500  0.40320  0.58010  1.0000 0.0894346508
C   C2        1.0  0.56640  0.38240  0.46480  1.0000 -0.0498642092
C   C3        1.0  0.64990  0.45180  0.45630  1.0000 -0.0931898494
C   C4        1.0  0.81740  0.53350  0.55070  1.0000 -0.138588902
C   C5        1.0  0.97500  0.50950  0.54280  1.0000 -0.1869008308
C   C6        1.0  0.17500  0.59680  0.91990  1.0000 0.0894346508
C   C7        1.0  0.06640  0.61760  0.03520  1.0000 -0.0498642092
C   C8        1.0  0.14990  0.54820  0.04370  1.0000 -0.0931898494
C   C9        1.0  0.31740  0.46650  0.94930  1.0000 -0.138588902
C   C10       1.0  0.47500  0.49050  0.95720  1.0000 -0.1869008308
C   C11       1.0  0.32500  0.90320  0.41990  1.0000 0.0894346508
C   C12       1.0  0.43360  0.88240  0.53520  1.0000 -0.0498642092
C   C13       1.0  0.35010  0.95180  0.54370  1.0000 -0.0931898494
C   C14       1.0  0.18260  0.03350  0.44930  1.0000 -0.138588902
C   C15       1.0  0.02500  0.00950  0.45720  1.0000 -0.1869008308
C   C16       1.0  0.82500  0.09680  0.08010  1.0000 0.0894346508
C   C17       1.0  0.93360  0.11760  0.96480  1.0000 -0.0498642092
C   C18       1.0  0.85010  0.04820  0.95630  1.0000 -0.0931898494
C   C19       1.0  0.68260  0.96650  0.05070  1.0000 -0.138588902
C   C20       1.0  0.52500  0.99050  0.04280  1.0000 -0.1869008308
C   C21       1.0  0.32500  0.59680  0.41990  1.0000 0.0894346508
C   C22       1.0  0.43360  0.61760  0.53520  1.0000 -0.0498642092
C   C23       1.0  0.35010  0.54820  0.54370  1.0000 -0.0931898494
C   C24       1.0  0.18260  0.46650  0.44930  1.0000 -0.138588902
C   C25       1.0  0.02500  0.49050  0.45720  1.0000 -0.1869008308
C   C26       1.0  0.82500  0.40320  0.08010  1.0000 0.0894346508
C   C27       1.0  0.93360  0.38240  0.96480  1.0000 -0.0498642092
C   C28       1.0  0.85010  0.45180  0.95630  1.0000 -0.0931898494
C   C29       1.0  0.68260  0.53350  0.05070  1.0000 -0.138588902
C   C30       1.0  0.52500  0.50950  0.04280  1.0000 -0.1869008308
C   C31       1.0  0.67500  0.09680  0.58010  1.0000 0.0894346508
C   C32       1.0  0.56640  0.11760  0.46480  1.0000 -0.0498642092
C   C33       1.0  0.64990  0.04820  0.45630  1.0000 -0.0931898494
C   C34       1.0  0.81740  0.96650  0.55070  1.0000 -0.138588902
C   C35       1.0  0.97500  0.99050  0.54280  1.0000 -0.1869008308
C   C36       1.0  0.17500  0.90320  0.91990  1.0000 0.0894346508
C   C37       1.0  0.06640  0.88240  0.03520  1.0000 -0.0498642092
C   C38       1.0  0.14990  0.95180  0.04370  1.0000 -0.0931898494
C   C39       1.0  0.31740  0.03350  0.94930  1.0000 -0.138588902
C   C40       1.0  0.47500  0.00950  0.95720  1.0000 -0.1869008308
C   C41       1.0  0.17730  0.25000  0.54380  1.0000 0.5472533862
C   C42       1.0  0.07000  0.25000  0.47580  1.0000 -0.138588902
C   C43       1.0  0.92230  0.25000  0.47910  1.0000 -0.138588902
C   C44       1.0  0.85740  0.25000  0.39820  1.0000 -0.1340716109
C   C45       1.0  0.95950  0.25000  0.33800  1.0000 -0.1233582692
C   C46       1.0  0.93560  0.25000  0.24950  1.0000 0.5606569956
C   C47       1.0  0.67730  0.75000  0.95620  1.0000 0.5472533862
C   C48       1.0  0.57000  0.75000  0.02420  1.0000 -0.1340716109
C   C49       1.0  0.42230  0.75000  0.02090  1.0000 -0.138588902
C   C50       1.0  0.35740  0.75000  0.10180  1.0000 -0.1340716109
C   C51       1.0  0.45950  0.75000  0.16200  1.0000 -0.1233582692
C   C52       1.0  0.43560  0.75000  0.25050  1.0000 0.5606569956
C   C53       1.0  0.82270  0.75000  0.45620  1.0000 0.5472533862
C   C54       1.0  0.93000  0.75000  0.52420  1.0000 -0.1340716109
C   C55       1.0  0.07770  0.75000  0.52090  1.0000 -0.138588902
C   C56       1.0  0.14260  0.75000  0.60180  1.0000 -0.1340716109
C   C57       1.0  0.04050  0.75000  0.66200  1.0000 -0.1233582692
C   C58       1.0  0.06440  0.75000  0.75050  1.0000 0.5606569956
C   C59       1.0  0.32270  0.25000  0.04380  1.0000 0.5472533862
C   C60       1.0  0.43000  0.25000  0.97580  1.0000 -0.1340716109
C   C61       1.0  0.57770  0.25000  0.97910  1.0000 -0.138588902
C   C62       1.0  0.64260  0.25000  0.89820  1.0000 -0.1340716109
C   C63       1.0  0.54050  0.25000  0.83800  1.0000 -0.1233582692
C   C64       1.0  0.56440  0.25000  0.74950  1.0000 0.5606569956
S   S1        1.0  0.13362  0.25000  0.37621  1.0000 0.1299761649
S   S2        1.0  0.63362  0.75000  0.12379  1.0000 0.1299761649
S   S3        1.0  0.86638  0.75000  0.62379  1.0000 0.1299761649
S   S4        1.0  0.36638  0.25000  0.87621  1.0000 0.1299761649
N   N1        1.0  0.58110  0.35170  0.54290  1.0000 -0.2930819829
N   N2        1.0  0.71610  0.46440  0.52900  1.0000 0.0458786312
N   N3        1.0  0.08110  0.64830  0.95710  1.0000 -0.2930819829
N   N4        1.0  0.21610  0.53560  0.97100  1.0000 0.0458786312
N   N5        1.0  0.41890  0.85170  0.45710  1.0000 -0.2930819829
N   N6        1.0  0.28390  0.96440  0.47100  1.0000 0.0458786312
N   N7        1.0  0.91890  0.14830  0.04290  1.0000 -0.2930819829
N   N8        1.0  0.78390  0.03560  0.02900  1.0000 0.0458786312
N   N9        1.0  0.41890  0.64830  0.45710  1.0000 -0.2930819829
N   N10       1.0  0.28390  0.53560  0.47100  1.0000 0.0458786312
N   N11       1.0  0.91890  0.35170  0.04290  1.0000 -0.2930819829
N   N12       1.0  0.78390  0.46440  0.02900  1.0000 0.0458786312
N   N13       1.0  0.58110  0.14830  0.54290  1.0000 -0.2930819829
N   N14       1.0  0.71610  0.03560  0.52900  1.0000 0.0458786312
N   N15       1.0  0.08110  0.85170  0.95710  1.0000 -0.2930819829
N   N16       1.0  0.21610  0.96440  0.97100  1.0000 0.0458786312
O   O1        1.0  0.30810  0.25000  0.52090  1.0000 -0.5667655905
O   O2        1.0  0.13700  0.25000  0.61440  1.0000 -0.4831318994
O   O3        1.0  0.81270  0.25000  0.21910  1.0000 -0.5434293737
O   O4        1.0  0.05150  0.25000  0.20460  1.0000 -0.5543988337
O   O5        1.0  0.80810  0.75000  0.97910  1.0000 -0.5667655905
O   O6        1.0  0.63700  0.75000  0.88560  1.0000 -0.4853085418
O   O7        1.0  0.31270  0.75000  0.28090  1.0000 -0.5434293737
O   O8        1.0  0.55150  0.75000  0.29540  1.0000 -0.5543988337
O   O9        1.0  0.69190  0.75000  0.47910  1.0000 -0.5667655905
O   O10       1.0  0.86300  0.75000  0.38560  1.0000 -0.4853085418
O   O11       1.0  0.18730  0.75000  0.78090  1.0000 -0.5434293737
O   O12       1.0  0.94850  0.75000  0.79540  1.0000 -0.5543988337
O   O13       1.0  0.19190  0.25000  0.02090  1.0000 -0.5667655905
O   O14       1.0  0.36300  0.25000  0.11440  1.0000 -0.4853085418
O   O15       1.0  0.68730  0.25000  0.71910  1.0000 -0.5434293737
O   O16       1.0  0.44850  0.25000  0.70460  1.0000 -0.5543988337
