# DDEC6 charges by PACMAN v1.1 (https://github.com/mtap-research/PACMAN-charge/)
data_2020[Zn][sql]2[FSR]15
_chemical_formula_sum              "Zn4 H96 C112 N16 O16"
_cell_length_a       10.119
_cell_length_b       23.911
_cell_length_c       11.435
_cell_angle_alpha    90
_cell_angle_beta     103.331
_cell_angle_gamma    90

_symmetry_space_group_name_H-M    "P 1"
_symmetry_Int_Tables_number       1

loop_
  _symmetry_equiv_pos_as_xyz
  'x, y, z'

loop_
  _atom_site_type_symbol
  _atom_site_label
  _atom_site_symmetry_multiplicity
  _atom_site_fract_x
  _atom_site_fract_y
  _atom_site_fract_z
  _atom_site_occupancy
  _atom_site_charge
Zn  Zn1       1.0  0.80042  0.09307  0.69226  1.0000 0.7718686294
Zn  Zn2       1.0  0.30042  0.40693  0.69226  1.0000 0.7718686294
Zn  Zn3       1.0  0.69958  0.59307  0.30774  1.0000 0.7718686294
Zn  Zn4       1.0  0.19958  0.90693  0.30774  1.0000 0.7718686294
H   H1        1.0  0.10740  0.96700  0.77810  1.0000 0.0909886431
H   H2        1.0  0.26960  0.01830  0.92610  1.0000 0.098565607
H   H3        1.0  0.32660  0.96530  0.87390  1.0000 0.0909886431
H   H4        1.0  0.48360  0.03490  0.88010  1.0000 0.0909886431
H   H5        1.0  0.37210  0.07730  0.81570  1.0000 0.1075865041
H   H6        1.0  0.45980  0.98300  0.70350  1.0000 0.098565607
H   H7        1.0  0.25760  0.06130  0.59490  1.0000 0.1075865041
H   H8        1.0  0.30970  0.01270  0.52460  1.0000 0.1075865041
H   H9        1.0  0.22390  0.94590  0.63780  1.0000 0.0909886431
H   H10       1.0  0.10600  0.98560  0.57340  1.0000 0.1075865041
H   H11       1.0  0.60290  0.17090  0.50080  1.0000 0.1293050733
H   H12       1.0  0.98690  0.13830  0.52410  1.0000 0.1431276408
H   H13       1.0  0.91090  0.19650  0.34740  1.0000 0.1202010483
H   H14       1.0  0.57440  0.11870  0.27230  1.0000 0.1202010483
H   H15       1.0  0.41690  0.07650  0.12600  1.0000 0.1202010483
H   H16       1.0  0.28070  0.12810  0.97090  1.0000 0.1202010483
H   H17       1.0  0.30600  0.22240  0.96210  1.0000 0.1202010483
H   H18       1.0  0.53930  0.39730  0.13530  1.0000 0.1202010483
H   H19       1.0  0.69470  0.44030  0.28190  1.0000 0.1293050733
H   H20       1.0  0.83140  0.38890  0.43670  1.0000 0.1202010483
H   H21       1.0  0.80740  0.29460  0.44760  1.0000 0.1202010483
H   H22       1.0  0.21540  0.33030  0.07540  1.0000 0.1293050733
H   H23       1.0  0.13250  0.38040  0.88790  1.0000 0.1293050733
H   H24       1.0  0.50000  0.33140  0.88990  1.0000 0.1293050733
H   H25       1.0  0.60740  0.53300  0.77810  1.0000 0.0909886431
H   H26       1.0  0.76960  0.48170  0.92610  1.0000 0.098565607
H   H27       1.0  0.82660  0.53470  0.87390  1.0000 0.0909886431
H   H28       1.0  0.98360  0.46510  0.88010  1.0000 0.0909886431
H   H29       1.0  0.87210  0.42270  0.81570  1.0000 0.1075865041
H   H30       1.0  0.95980  0.51700  0.70350  1.0000 0.098565607
H   H31       1.0  0.75760  0.43870  0.59490  1.0000 0.1075865041
H   H32       1.0  0.80970  0.48730  0.52460  1.0000 0.1075865041
H   H33       1.0  0.72390  0.55410  0.63780  1.0000 0.0909886431
H   H34       1.0  0.60600  0.51440  0.57340  1.0000 0.1075865041
H   H35       1.0  0.10290  0.32910  0.50080  1.0000 0.1293050733
H   H36       1.0  0.48690  0.36170  0.52410  1.0000 0.1431276408
H   H37       1.0  0.41090  0.30350  0.34740  1.0000 0.1202010483
H   H38       1.0  0.07440  0.38130  0.27230  1.0000 0.1202010483
H   H39       1.0  0.91690  0.42350  0.12600  1.0000 0.1202010483
H   H40       1.0  0.78070  0.37190  0.97090  1.0000 0.1202010483
H   H41       1.0  0.80600  0.27760  0.96210  1.0000 0.1202010483
H   H42       1.0  0.03930  0.10270  0.13530  1.0000 0.1202010483
H   H43       1.0  0.19470  0.05970  0.28190  1.0000 0.1293050733
H   H44       1.0  0.33140  0.11110  0.43670  1.0000 0.1202010483
H   H45       1.0  0.30740  0.20540  0.44760  1.0000 0.1202010483
H   H46       1.0  0.71540  0.16970  0.07540  1.0000 0.1293050733
H   H47       1.0  0.63250  0.11960  0.88790  1.0000 0.1293050733
H   H48       1.0  0.00000  0.16860  0.88990  1.0000 0.1293050733
H   H49       1.0  0.39260  0.46700  0.22190  1.0000 0.0909886431
H   H50       1.0  0.23040  0.51830  0.07390  1.0000 0.098565607
H   H51       1.0  0.17340  0.46530  0.12610  1.0000 0.0909886431
H   H52       1.0  0.01640  0.53490  0.11990  1.0000 0.0909886431
H   H53       1.0  0.12790  0.57730  0.18430  1.0000 0.1075865041
H   H54       1.0  0.04020  0.48300  0.29650  1.0000 0.098565607
H   H55       1.0  0.24240  0.56130  0.40510  1.0000 0.1075865041
H   H56       1.0  0.19030  0.51270  0.47540  1.0000 0.1075865041
H   H57       1.0  0.27610  0.44590  0.36220  1.0000 0.0909886431
H   H58       1.0  0.39400  0.48560  0.42660  1.0000 0.1075865041
H   H59       1.0  0.89710  0.67090  0.49920  1.0000 0.1293050733
H   H60       1.0  0.51310  0.63830  0.47590  1.0000 0.1431276408
H   H61       1.0  0.58910  0.69650  0.65260  1.0000 0.1202010483
H   H62       1.0  0.92560  0.61870  0.72770  1.0000 0.1202010483
H   H63       1.0  0.08310  0.57650  0.87400  1.0000 0.1202010483
H   H64       1.0  0.21930  0.62810  0.02910  1.0000 0.1202010483
H   H65       1.0  0.19400  0.72240  0.03790  1.0000 0.1202010483
H   H66       1.0  0.96070  0.89730  0.86470  1.0000 0.1202010483
H   H67       1.0  0.80530  0.94030  0.71810  1.0000 0.1293050733
H   H68       1.0  0.66860  0.88890  0.56330  1.0000 0.1202010483
H   H69       1.0  0.69260  0.79460  0.55240  1.0000 0.1202010483
H   H70       1.0  0.28460  0.83030  0.92460  1.0000 0.1293050733
H   H71       1.0  0.36750  0.88040  0.11210  1.0000 0.1293050733
H   H72       1.0  0.00000  0.83140  0.11010  1.0000 0.1293050733
H   H73       1.0  0.89260  0.03300  0.22190  1.0000 0.0909886431
H   H74       1.0  0.73040  0.98170  0.07390  1.0000 0.098565607
H   H75       1.0  0.67340  0.03470  0.12610  1.0000 0.0909886431
H   H76       1.0  0.51640  0.96510  0.11990  1.0000 0.0909886431
H   H77       1.0  0.62790  0.92270  0.18430  1.0000 0.1075865041
H   H78       1.0  0.54020  0.01700  0.29650  1.0000 0.098565607
H   H79       1.0  0.74240  0.93870  0.40510  1.0000 0.1075865041
H   H80       1.0  0.69030  0.98730  0.47540  1.0000 0.1075865041
H   H81       1.0  0.77610  0.05410  0.36220  1.0000 0.0909886431
H   H82       1.0  0.89400  0.01440  0.42660  1.0000 0.1075865041
H   H83       1.0  0.39710  0.82910  0.49920  1.0000 0.1293050733
H   H84       1.0  0.01310  0.86170  0.47590  1.0000 0.1431276408
H   H85       1.0  0.08910  0.80350  0.65260  1.0000 0.1202010483
H   H86       1.0  0.42560  0.88130  0.72770  1.0000 0.1202010483
H   H87       1.0  0.58310  0.92350  0.87400  1.0000 0.1202010483
H   H88       1.0  0.71930  0.87190  0.02910  1.0000 0.1202010483
H   H89       1.0  0.69400  0.77760  0.03790  1.0000 0.1202010483
H   H90       1.0  0.46070  0.60270  0.86470  1.0000 0.1202010483
H   H91       1.0  0.30530  0.55970  0.71810  1.0000 0.1293050733
H   H92       1.0  0.16860  0.61110  0.56330  1.0000 0.1202010483
H   H93       1.0  0.19260  0.70540  0.55240  1.0000 0.1202010483
H   H94       1.0  0.78460  0.66970  0.92460  1.0000 0.1293050733
H   H95       1.0  0.86750  0.61960  0.11210  1.0000 0.1293050733
H   H96       1.0  0.50000  0.66860  0.11010  1.0000 0.1293050733
C   C1        1.0  0.06830  0.04983  0.74430  1.0000 0.5679948163
C   C2        1.0  0.15940  0.99829  0.75630  1.0000 -0.1109548601
C   C3        1.0  0.29070  0.00260  0.85430  1.0000 -0.1813880148
C   C4        1.0  0.39980  0.03835  0.81890  1.0000 -0.1893737036
C   C5        1.0  0.42600  0.02152  0.69740  1.0000 -0.1109548601
C   C6        1.0  0.29320  0.02343  0.60180  1.0000 -0.1813880148
C   C7        1.0  0.18960  0.98390  0.63510  1.0000 -0.1813880148
C   C8        1.0  0.53610  0.05937  0.67040  1.0000 0.5632583034
C   C9        1.0  0.68900  0.17003  0.48500  1.0000 0.098565607
C   C10       1.0  0.89950  0.15239  0.49690  1.0000 -0.0337744778
C   C11       1.0  0.85850  0.18441  0.39950  1.0000 -0.1109548601
C   C12       1.0  0.63730  0.22751  0.29680  1.0000 0.0282955413
C   C13       1.0  0.54070  0.19937  0.21010  1.0000 0.0023322585
C   C14       1.0  0.52160  0.14015  0.21110  1.0000 -0.1672297101
C   C15       1.0  0.42770  0.11505  0.12390  1.0000 -0.0722802802
C   C16       1.0  0.34540  0.14618  0.02960  1.0000 -0.0722802802
C   C17       1.0  0.36050  0.20227  0.02460  1.0000 -0.1542418766
C   C18       1.0  0.45870  0.23076  0.11370  1.0000 0.009121932
C   C19       1.0  0.47930  0.28843  0.11070  1.0000 0.0230767579
C   C20       1.0  0.57560  0.31705  0.19680  1.0000 0.009121932
C   C21       1.0  0.59270  0.37607  0.19660  1.0000 -0.1542418766
C   C22       1.0  0.68490  0.40168  0.28380  1.0000 -0.0626905811
C   C23       1.0  0.76710  0.37053  0.37800  1.0000 -0.0722802802
C   C24       1.0  0.75370  0.31436  0.38410  1.0000 -0.155717248
C   C25       1.0  0.65780  0.28547  0.29390  1.0000 0.0023322585
C   C26       1.0  0.26280  0.33670  0.01600  1.0000 -0.1109548601
C   C27       1.0  0.21790  0.36415  0.91240  1.0000 -0.0337744778
C   C28       1.0  0.41880  0.33768  0.91280  1.0000 0.098565607
C   C29       1.0  0.56830  0.45017  0.74430  1.0000 0.5679948163
C   C30       1.0  0.65940  0.50171  0.75630  1.0000 -0.1109548601
C   C31       1.0  0.79070  0.49740  0.85430  1.0000 -0.1813880148
C   C32       1.0  0.89980  0.46165  0.81890  1.0000 -0.1893737036
C   C33       1.0  0.92600  0.47848  0.69740  1.0000 -0.1109548601
C   C34       1.0  0.79320  0.47657  0.60180  1.0000 -0.1813880148
C   C35       1.0  0.68960  0.51610  0.63510  1.0000 -0.1813880148
C   C36       1.0  0.03610  0.44063  0.67040  1.0000 0.5632583034
C   C37       1.0  0.18900  0.32997  0.48500  1.0000 0.098565607
C   C38       1.0  0.39950  0.34761  0.49690  1.0000 -0.0337744778
C   C39       1.0  0.35850  0.31559  0.39950  1.0000 -0.1109548601
C   C40       1.0  0.13730  0.27249  0.29680  1.0000 0.0282955413
C   C41       1.0  0.04070  0.30063  0.21010  1.0000 0.0023322585
C   C42       1.0  0.02160  0.35985  0.21110  1.0000 -0.1672297101
C   C43       1.0  0.92770  0.38495  0.12390  1.0000 -0.0722802802
C   C44       1.0  0.84540  0.35382  0.02960  1.0000 -0.0722802802
C   C45       1.0  0.86050  0.29773  0.02460  1.0000 -0.1542418766
C   C46       1.0  0.95870  0.26924  0.11370  1.0000 0.009121932
C   C47       1.0  0.97930  0.21157  0.11070  1.0000 0.0230767579
C   C48       1.0  0.07560  0.18295  0.19680  1.0000 0.009121932
C   C49       1.0  0.09270  0.12393  0.19660  1.0000 -0.1542418766
C   C50       1.0  0.18490  0.09832  0.28380  1.0000 -0.0626905811
C   C51       1.0  0.26710  0.12947  0.37800  1.0000 -0.0722802802
C   C52       1.0  0.25370  0.18564  0.38410  1.0000 -0.155717248
C   C53       1.0  0.15780  0.21453  0.29390  1.0000 0.0023322585
C   C54       1.0  0.76280  0.16330  0.01600  1.0000 -0.1109548601
C   C55       1.0  0.71790  0.13585  0.91240  1.0000 -0.0337744778
C   C56       1.0  0.91880  0.16232  0.91280  1.0000 0.098565607
C   C57       1.0  0.43170  0.54983  0.25570  1.0000 0.5679948163
C   C58       1.0  0.34060  0.49829  0.24370  1.0000 -0.1109548601
C   C59       1.0  0.20930  0.50260  0.14570  1.0000 -0.1813880148
C   C60       1.0  0.10020  0.53835  0.18110  1.0000 -0.1893737036
C   C61       1.0  0.07400  0.52152  0.30260  1.0000 -0.1109548601
C   C62       1.0  0.20680  0.52343  0.39820  1.0000 -0.1813880148
C   C63       1.0  0.31040  0.48390  0.36490  1.0000 -0.1813880148
C   C64       1.0  0.96390  0.55937  0.32960  1.0000 0.5632583034
C   C65       1.0  0.81100  0.67003  0.51500  1.0000 0.098565607
C   C66       1.0  0.60050  0.65239  0.50310  1.0000 -0.0337744778
C   C67       1.0  0.64150  0.68441  0.60050  1.0000 -0.1109548601
C   C68       1.0  0.86270  0.72751  0.70320  1.0000 0.0282955413
C   C69       1.0  0.95930  0.69937  0.78990  1.0000 0.0023322585
C   C70       1.0  0.97840  0.64015  0.78890  1.0000 -0.1672297101
C   C71       1.0  0.07230  0.61505  0.87610  1.0000 -0.0722802802
C   C72       1.0  0.15460  0.64618  0.97040  1.0000 -0.0722802802
C   C73       1.0  0.13950  0.70227  0.97540  1.0000 -0.155717248
C   C74       1.0  0.04130  0.73076  0.88630  1.0000 0.009121932
C   C75       1.0  0.02070  0.78843  0.88930  1.0000 0.0230767579
C   C76       1.0  0.92440  0.81705  0.80320  1.0000 0.009121932
C   C77       1.0  0.90730  0.87607  0.80340  1.0000 -0.155717248
C   C78       1.0  0.81510  0.90168  0.71620  1.0000 -0.0626905811
C   C79       1.0  0.73290  0.87053  0.62200  1.0000 -0.0722802802
C   C80       1.0  0.74630  0.81436  0.61590  1.0000 -0.155717248
C   C81       1.0  0.84220  0.78547  0.70610  1.0000 0.0023322585
C   C82       1.0  0.23720  0.83670  0.98400  1.0000 -0.1109548601
C   C83       1.0  0.28210  0.86415  0.08760  1.0000 -0.0337744778
C   C84       1.0  0.08120  0.83768  0.08720  1.0000 0.098565607
C   C85       1.0  0.93170  0.95017  0.25570  1.0000 0.5679948163
C   C86       1.0  0.84060  0.00171  0.24370  1.0000 -0.1109548601
C   C87       1.0  0.70930  0.99740  0.14570  1.0000 -0.1813880148
C   C88       1.0  0.60020  0.96165  0.18110  1.0000 -0.1893737036
C   C89       1.0  0.57400  0.97848  0.30260  1.0000 -0.1109548601
C   C90       1.0  0.70680  0.97657  0.39820  1.0000 -0.1813880148
C   C91       1.0  0.81040  0.01610  0.36490  1.0000 -0.1813880148
C   C92       1.0  0.46390  0.94063  0.32960  1.0000 0.5632583034
C   C93       1.0  0.31100  0.82997  0.51500  1.0000 0.098565607
C   C94       1.0  0.10050  0.84761  0.50310  1.0000 -0.0337744778
C   C95       1.0  0.14150  0.81559  0.60050  1.0000 -0.1109548601
C   C96       1.0  0.36270  0.77249  0.70320  1.0000 0.0282955413
C   C97       1.0  0.45930  0.80063  0.78990  1.0000 0.0023322585
C   C98       1.0  0.47840  0.85985  0.78890  1.0000 -0.1672297101
C   C99       1.0  0.57230  0.88495  0.87610  1.0000 -0.0722802802
C   C100      1.0  0.65460  0.85382  0.97040  1.0000 -0.0722802802
C   C101      1.0  0.63950  0.79773  0.97540  1.0000 -0.155717248
C   C102      1.0  0.54130  0.76924  0.88630  1.0000 0.009121932
C   C103      1.0  0.52070  0.71157  0.88930  1.0000 0.0230767579
C   C104      1.0  0.42440  0.68295  0.80320  1.0000 0.009121932
C   C105      1.0  0.40730  0.62393  0.80340  1.0000 -0.155717248
C   C106      1.0  0.31510  0.59832  0.71620  1.0000 -0.0626905811
C   C107      1.0  0.23290  0.62947  0.62200  1.0000 -0.0722802802
C   C108      1.0  0.24630  0.68564  0.61590  1.0000 -0.155717248
C   C109      1.0  0.34220  0.71453  0.70610  1.0000 0.0023322585
C   C110      1.0  0.73720  0.66330  0.98400  1.0000 -0.1109548601
C   C111      1.0  0.78210  0.63585  0.08760  1.0000 -0.0337744778
C   C112      1.0  0.58120  0.66232  0.08720  1.0000 0.098565607
N   N1        1.0  0.79350  0.14341  0.55056  1.0000 -0.2764314282
N   N2        1.0  0.72360  0.19600  0.39144  1.0000 0.009121932
N   N3        1.0  0.39270  0.31995  0.01708  1.0000 0.009121932
N   N4        1.0  0.31560  0.36478  0.84815  1.0000 -0.2735099959
N   N5        1.0  0.29350  0.35659  0.55056  1.0000 -0.2764314282
N   N6        1.0  0.22360  0.30400  0.39144  1.0000 0.009121932
N   N7        1.0  0.89270  0.18005  0.01708  1.0000 0.009121932
N   N8        1.0  0.81560  0.13522  0.84815  1.0000 -0.2735099959
N   N9        1.0  0.70650  0.64341  0.44944  1.0000 -0.2764314282
N   N10       1.0  0.77640  0.69600  0.60856  1.0000 0.009121932
N   N11       1.0  0.10730  0.81995  0.98292  1.0000 0.009121932
N   N12       1.0  0.18440  0.86478  0.15185  1.0000 -0.2735099959
N   N13       1.0  0.20650  0.85659  0.44944  1.0000 -0.2764314282
N   N14       1.0  0.27640  0.80400  0.60856  1.0000 0.009121932
N   N15       1.0  0.60730  0.68005  0.98292  1.0000 0.009121932
N   N16       1.0  0.68440  0.63522  0.15185  1.0000 -0.2735099959
O   O1        1.0  0.94534  0.04015  0.69430  1.0000 -0.5505416113
O   O2        1.0  0.11130  0.09614  0.78000  1.0000 -0.5585144627
O   O3        1.0  0.50990  0.10790  0.63510  1.0000 -0.5685879457
O   O4        1.0  0.65508  0.03946  0.69252  1.0000 -0.5505416113
O   O5        1.0  0.44534  0.45985  0.69430  1.0000 -0.5505416113
O   O6        1.0  0.61130  0.40386  0.78000  1.0000 -0.5585144627
O   O7        1.0  0.00990  0.39210  0.63510  1.0000 -0.5685879457
O   O8        1.0  0.15508  0.46054  0.69252  1.0000 -0.5505416113
O   O9        1.0  0.55466  0.54015  0.30570  1.0000 -0.5505416113
O   O10       1.0  0.38870  0.59614  0.22000  1.0000 -0.5585144627
O   O11       1.0  0.99010  0.60790  0.36490  1.0000 -0.5685879457
O   O12       1.0  0.84492  0.53946  0.30748  1.0000 -0.5505416113
O   O13       1.0  0.05466  0.95985  0.30570  1.0000 -0.5505416113
O   O14       1.0  0.88870  0.90386  0.22000  1.0000 -0.5585144627
O   O15       1.0  0.49010  0.89210  0.36490  1.0000 -0.5685879457
O   O16       1.0  0.34492  0.96054  0.30748  1.0000 -0.5505416113
