# DDEC6 charges by PACMAN v1.1 (https://github.com/mtap-research/PACMAN-charge/)
data_2020[Cu][sql]2[FSR]1
_chemical_formula_sum              "Cu8 H104 C144 N32 O24"
_cell_length_a       9.0857
_cell_length_b       36.717
_cell_length_c       11.7193
_cell_angle_alpha    90
_cell_angle_beta     100.235
_cell_angle_gamma    90

_symmetry_space_group_name_H-M    "P 1"
_symmetry_Int_Tables_number       1

loop_
  _symmetry_equiv_pos_as_xyz
  'x, y, z'

loop_
  _atom_site_type_symbol
  _atom_site_label
  _atom_site_symmetry_multiplicity
  _atom_site_fract_x
  _atom_site_fract_y
  _atom_site_fract_z
  _atom_site_occupancy
  _atom_site_charge
Cu  Cu1       1.0  0.90007  0.39750  0.93940  1.0000 0.8009061194
Cu  Cu2       1.0  0.80191  0.64912  0.17219  1.0000 0.6869277335
Cu  Cu3       1.0  0.09993  0.89750  0.06060  1.0000 0.8009061194
Cu  Cu4       1.0  0.19809  0.14912  0.82781  1.0000 0.6869277335
Cu  Cu5       1.0  0.09993  0.60250  0.06060  1.0000 0.8009061194
Cu  Cu6       1.0  0.19809  0.35088  0.82781  1.0000 0.6869277335
Cu  Cu7       1.0  0.90007  0.10250  0.93940  1.0000 0.8009061194
Cu  Cu8       1.0  0.80191  0.85088  0.17219  1.0000 0.6869277335
H   H1        1.0  0.83070  0.51390  0.06140  1.0000 0.127339487
H   H2        1.0  0.51220  0.55650  0.21820  1.0000 0.11057644
H   H3        1.0  0.06410  0.67210  0.37330  1.0000 0.1208450432
H   H4        1.0  0.52030  0.63050  0.98240  1.0000 0.127339487
H   H5        1.0  0.17220  0.41620  0.13490  1.0000 0.1208450432
H   H6        1.0  0.90260  0.33280  0.12610  1.0000 0.1208450432
H   H7        1.0  0.63440  0.37430  0.74250  1.0000 0.1208450432
H   H8        1.0  0.79960  0.71210  0.98260  1.0000 0.1208450432
H   H9        1.0  0.16690  0.69710  0.55960  1.0000 0.1208450432
H   H10       1.0  0.50140  0.45030  0.13620  1.0000 0.0998046921
H   H11       1.0  0.40660  0.60710  0.79970  1.0000 0.127339487
H   H12       1.0  0.79240  0.58870  0.36880  1.0000 0.1208450432
H   H13       1.0  0.35920  0.71230  0.71110  1.0000 0.1208450432
H   H14       1.0  0.21770  0.59160  0.64710  1.0000 0.127339487
H   H15       1.0  0.33490  0.33300  0.40430  1.0000 0.1208450432
H   H16       1.0  0.40360  0.49950  0.22090  1.0000 0.0998046921
H   H17       1.0  0.91230  0.45570  0.73880  1.0000 0.1394461022
H   H18       1.0  0.52460  0.34860  0.55650  1.0000 0.127339487
H   H19       1.0  0.61780  0.71610  0.80140  1.0000 0.1208450432
H   H20       1.0  0.73600  0.45760  0.55610  1.0000 0.127339487
H   H21       1.0  0.48240  0.45360  0.46400  1.0000 0.127339487
H   H22       1.0  0.29120  0.43850  0.31240  1.0000 0.127339487
H   H23       1.0  0.96740  0.58650  0.55260  1.0000 0.127339487
H   H24       1.0  0.08670  0.32720  0.30350  1.0000 0.1208450432
H   H25       1.0  0.34620  0.69570  0.05510  1.0000 0.11057644
H   H26       1.0  0.16930  0.01390  0.93860  1.0000 0.127339487
H   H27       1.0  0.48780  0.05650  0.78180  1.0000 0.11057644
H   H28       1.0  0.93590  0.17210  0.62670  1.0000 0.1208450432
H   H29       1.0  0.47970  0.13050  0.01760  1.0000 0.127339487
H   H30       1.0  0.82780  0.91620  0.86510  1.0000 0.1208450432
H   H31       1.0  0.09740  0.83280  0.87390  1.0000 0.1208450432
H   H32       1.0  0.36560  0.87430  0.25750  1.0000 0.1208450432
H   H33       1.0  0.20040  0.21210  0.01740  1.0000 0.1208450432
H   H34       1.0  0.83310  0.19710  0.44040  1.0000 0.1208450432
H   H35       1.0  0.49860  0.95030  0.86380  1.0000 0.0998046921
H   H36       1.0  0.59340  0.10710  0.20030  1.0000 0.127339487
H   H37       1.0  0.20760  0.08870  0.63120  1.0000 0.1208450432
H   H38       1.0  0.64080  0.21230  0.28890  1.0000 0.1208450432
H   H39       1.0  0.78230  0.09160  0.35290  1.0000 0.127339487
H   H40       1.0  0.66510  0.83300  0.59570  1.0000 0.1208450432
H   H41       1.0  0.59640  0.99950  0.77910  1.0000 0.0998046921
H   H42       1.0  0.08770  0.95570  0.26120  1.0000 0.1394461022
H   H43       1.0  0.47540  0.84860  0.44350  1.0000 0.127339487
H   H44       1.0  0.38220  0.21610  0.19860  1.0000 0.1208450432
H   H45       1.0  0.26400  0.95760  0.44390  1.0000 0.127339487
H   H46       1.0  0.51760  0.95360  0.53600  1.0000 0.127339487
H   H47       1.0  0.70880  0.93850  0.68760  1.0000 0.127339487
H   H48       1.0  0.03260  0.08650  0.44740  1.0000 0.127339487
H   H49       1.0  0.91330  0.82720  0.69650  1.0000 0.1208450432
H   H50       1.0  0.65380  0.19570  0.94490  1.0000 0.11057644
H   H51       1.0  0.16930  0.48610  0.93860  1.0000 0.127339487
H   H52       1.0  0.48780  0.44350  0.78180  1.0000 0.11057644
H   H53       1.0  0.93590  0.32790  0.62670  1.0000 0.1208450432
H   H54       1.0  0.47970  0.36950  0.01760  1.0000 0.127339487
H   H55       1.0  0.82780  0.58380  0.86510  1.0000 0.1208450432
H   H56       1.0  0.09740  0.66720  0.87390  1.0000 0.1208450432
H   H57       1.0  0.36560  0.62570  0.25750  1.0000 0.1208450432
H   H58       1.0  0.20040  0.28790  0.01740  1.0000 0.1208450432
H   H59       1.0  0.83310  0.30290  0.44040  1.0000 0.1208450432
H   H60       1.0  0.49860  0.54970  0.86380  1.0000 0.0998046921
H   H61       1.0  0.59340  0.39290  0.20030  1.0000 0.127339487
H   H62       1.0  0.20760  0.41130  0.63120  1.0000 0.1208450432
H   H63       1.0  0.64080  0.28770  0.28890  1.0000 0.1208450432
H   H64       1.0  0.78230  0.40840  0.35290  1.0000 0.127339487
H   H65       1.0  0.66510  0.66700  0.59570  1.0000 0.1208450432
H   H66       1.0  0.59640  0.50050  0.77910  1.0000 0.0998046921
H   H67       1.0  0.08770  0.54430  0.26120  1.0000 0.1394461022
H   H68       1.0  0.47540  0.65140  0.44350  1.0000 0.127339487
H   H69       1.0  0.38220  0.28390  0.19860  1.0000 0.1208450432
H   H70       1.0  0.26400  0.54240  0.44390  1.0000 0.127339487
H   H71       1.0  0.51760  0.54640  0.53600  1.0000 0.127339487
H   H72       1.0  0.70880  0.56150  0.68760  1.0000 0.127339487
H   H73       1.0  0.03260  0.41350  0.44740  1.0000 0.127339487
H   H74       1.0  0.91330  0.67280  0.69650  1.0000 0.1208450432
H   H75       1.0  0.65380  0.30430  0.94490  1.0000 0.11057644
H   H76       1.0  0.83070  0.98610  0.06140  1.0000 0.127339487
H   H77       1.0  0.51220  0.94350  0.21820  1.0000 0.11057644
H   H78       1.0  0.06410  0.82790  0.37330  1.0000 0.1208450432
H   H79       1.0  0.52030  0.86950  0.98240  1.0000 0.127339487
H   H80       1.0  0.17220  0.08380  0.13490  1.0000 0.1208450432
H   H81       1.0  0.90260  0.16720  0.12610  1.0000 0.1208450432
H   H82       1.0  0.63440  0.12570  0.74250  1.0000 0.1208450432
H   H83       1.0  0.79960  0.78790  0.98260  1.0000 0.1208450432
H   H84       1.0  0.16690  0.80290  0.55960  1.0000 0.1208450432
H   H85       1.0  0.50140  0.04970  0.13620  1.0000 0.0998046921
H   H86       1.0  0.40660  0.89290  0.79970  1.0000 0.127339487
H   H87       1.0  0.79240  0.91130  0.36880  1.0000 0.1208450432
H   H88       1.0  0.35920  0.78770  0.71110  1.0000 0.1208450432
H   H89       1.0  0.21770  0.90840  0.64710  1.0000 0.127339487
H   H90       1.0  0.33490  0.16700  0.40430  1.0000 0.1208450432
H   H91       1.0  0.40360  0.00050  0.22090  1.0000 0.0998046921
H   H92       1.0  0.91230  0.04430  0.73880  1.0000 0.1394461022
H   H93       1.0  0.52460  0.15140  0.55650  1.0000 0.127339487
H   H94       1.0  0.61780  0.78390  0.80140  1.0000 0.1208450432
H   H95       1.0  0.73600  0.04240  0.55610  1.0000 0.127339487
H   H96       1.0  0.48240  0.04640  0.46400  1.0000 0.127339487
H   H97       1.0  0.29120  0.06150  0.31240  1.0000 0.127339487
H   H98       1.0  0.96740  0.91350  0.55260  1.0000 0.127339487
H   H99       1.0  0.08670  0.17280  0.30350  1.0000 0.1208450432
H   H100      1.0  0.34620  0.80430  0.05510  1.0000 0.11057644
H   H101      1.0  0.00380  0.75000  0.14970  1.0000 0.127339487
H   H102      1.0  0.46100  0.75000  0.02880  1.0000 0.11057644
H   H103      1.0  0.99620  0.25000  0.85030  1.0000 0.127339487
H   H104      1.0  0.53900  0.25000  0.97120  1.0000 0.11057644
C   C1        1.0  0.74960  0.57791  0.13200  1.0000 0.5459743119
C   C2        1.0  0.08720  0.68204  0.12400  1.0000 0.5459743119
C   C3        1.0  0.74360  0.51110  0.09200  1.0000 -0.1112044052
C   C4        1.0  0.67740  0.47688  0.09120  1.0000 -0.0099208368
C   C5        1.0  0.55370  0.53659  0.18630  1.0000 -0.0984816463
C   C6        1.0  0.01790  0.65120  0.39430  1.0000 0.0728454902
C   C7        1.0  0.56740  0.65122  0.96050  1.0000 0.0884346733
C   C8        1.0  0.68140  0.54109  0.13770  1.0000 -0.0316205575
C   C9        1.0  0.12750  0.39487  0.15450  1.0000 0.11057644
C   C10       1.0  0.98060  0.34896  0.15060  1.0000 -0.0316205575
C   C11       1.0  0.16370  0.71723  0.10690  1.0000 -0.0316205575
C   C12       1.0  0.68180  0.39483  0.71960  1.0000 0.0998046921
C   C13       1.0  0.73820  0.44435  0.03590  1.0000 0.5353901959
C   C14       1.0  0.72030  0.69616  0.95950  1.0000 -0.0316205575
C   C15       1.0  0.21620  0.67905  0.60740  1.0000 -0.189194568
C   C16       1.0  0.17660  0.64310  0.58860  1.0000 0.1394461022
C   C17       1.0  0.54800  0.47293  0.13800  1.0000 -0.1112044052
C   C18       1.0  0.35900  0.62508  0.75080  1.0000 -0.1454781616
C   C19       1.0  0.52150  0.40249  0.52480  1.0000 0.1394461022
C   C20       1.0  0.86940  0.60519  0.39270  1.0000 -0.0316205575
C   C21       1.0  0.40130  0.66098  0.76920  1.0000 0.1483762688
C   C22       1.0  0.33050  0.68814  0.69810  1.0000 -0.189194568
C   C23       1.0  0.24620  0.61574  0.66000  1.0000 -0.1763434303
C   C24       1.0  0.36440  0.35717  0.41640  1.0000 -0.189194568
C   C25       1.0  0.48810  0.50252  0.18720  1.0000 -0.1112044052
C   C26       1.0  0.83340  0.43962  0.71670  1.0000 -0.0224747151
C   C27       1.0  0.47770  0.36657  0.50710  1.0000 -0.1715237969
C   C28       1.0  0.62010  0.69864  0.85920  1.0000 -0.1196966614
C   C29       1.0  0.29570  0.38443  0.34400  1.0000 0.1483762688
C   C30       1.0  0.73710  0.44076  0.61540  1.0000 -0.1196966614
C   C31       1.0  0.45250  0.42944  0.45210  1.0000 -0.1763434303
C   C32       1.0  0.33850  0.42044  0.36130  1.0000 -0.189194568
C   C33       1.0  0.96510  0.60385  0.49450  1.0000 -0.1112044052
C   C34       1.0  0.08140  0.34568  0.24860  1.0000 -0.1112044052
C   C35       1.0  0.30060  0.71756  0.06890  1.0000 -0.1112044052
C   C36       1.0  0.25040  0.07791  0.86800  1.0000 0.5459743119
C   C37       1.0  0.91280  0.18204  0.87600  1.0000 0.5459743119
C   C38       1.0  0.25640  0.01110  0.90800  1.0000 -0.1112044052
C   C39       1.0  0.32260  0.97688  0.90880  1.0000 -0.0099208368
C   C40       1.0  0.44630  0.03659  0.81370  1.0000 -0.0984816463
C   C41       1.0  0.98210  0.15120  0.60570  1.0000 0.0728454902
C   C42       1.0  0.43260  0.15122  0.03950  1.0000 0.0884346733
C   C43       1.0  0.31860  0.04109  0.86230  1.0000 -0.0316205575
C   C44       1.0  0.87250  0.89487  0.84550  1.0000 0.11057644
C   C45       1.0  0.01940  0.84896  0.84940  1.0000 -0.0316205575
C   C46       1.0  0.83630  0.21723  0.89310  1.0000 -0.0316205575
C   C47       1.0  0.31820  0.89483  0.28040  1.0000 0.0998046921
C   C48       1.0  0.26180  0.94435  0.96410  1.0000 0.5353901959
C   C49       1.0  0.27970  0.19616  0.04050  1.0000 -0.0316205575
C   C50       1.0  0.78380  0.17905  0.39260  1.0000 -0.189194568
C   C51       1.0  0.82340  0.14310  0.41140  1.0000 0.1394461022
C   C52       1.0  0.45200  0.97293  0.86200  1.0000 -0.1112044052
C   C53       1.0  0.64100  0.12508  0.24920  1.0000 -0.1454781616
C   C54       1.0  0.47850  0.90249  0.47520  1.0000 0.1394461022
C   C55       1.0  0.13060  0.10519  0.60730  1.0000 -0.0316205575
C   C56       1.0  0.59870  0.16098  0.23080  1.0000 0.1483762688
C   C57       1.0  0.66950  0.18814  0.30190  1.0000 -0.189194568
C   C58       1.0  0.75380  0.11574  0.34000  1.0000 -0.1763434303
C   C59       1.0  0.63560  0.85717  0.58360  1.0000 -0.189194568
C   C60       1.0  0.51190  0.00252  0.81280  1.0000 -0.1112044052
C   C61       1.0  0.16660  0.93962  0.28330  1.0000 -0.0224747151
C   C62       1.0  0.52230  0.86657  0.49290  1.0000 -0.1715237969
C   C63       1.0  0.37990  0.19864  0.14080  1.0000 -0.1196966614
C   C64       1.0  0.70430  0.88443  0.65600  1.0000 0.1483762688
C   C65       1.0  0.26290  0.94076  0.38460  1.0000 -0.1196966614
C   C66       1.0  0.54750  0.92944  0.54790  1.0000 -0.1763434303
C   C67       1.0  0.66150  0.92044  0.63870  1.0000 -0.189194568
C   C68       1.0  0.03490  0.10385  0.50550  1.0000 -0.1112044052
C   C69       1.0  0.91860  0.84568  0.75140  1.0000 -0.1112044052
C   C70       1.0  0.69940  0.21756  0.93110  1.0000 -0.1112044052
C   C71       1.0  0.25040  0.42209  0.86800  1.0000 0.5459743119
C   C72       1.0  0.91280  0.31796  0.87600  1.0000 0.5459743119
C   C73       1.0  0.25640  0.48890  0.90800  1.0000 -0.1112044052
C   C74       1.0  0.32260  0.52312  0.90880  1.0000 -0.0099208368
C   C75       1.0  0.44630  0.46341  0.81370  1.0000 -0.0984816463
C   C76       1.0  0.98210  0.34880  0.60570  1.0000 0.0728454902
C   C77       1.0  0.43260  0.34878  0.03950  1.0000 0.0884346733
C   C78       1.0  0.31860  0.45891  0.86230  1.0000 -0.0316205575
C   C79       1.0  0.87250  0.60513  0.84550  1.0000 0.11057644
C   C80       1.0  0.01940  0.65104  0.84940  1.0000 -0.0316205575
C   C81       1.0  0.83630  0.28277  0.89310  1.0000 -0.0316205575
C   C82       1.0  0.31820  0.60517  0.28040  1.0000 0.0998046921
C   C83       1.0  0.26180  0.55565  0.96410  1.0000 0.5353901959
C   C84       1.0  0.27970  0.30384  0.04050  1.0000 -0.0316205575
C   C85       1.0  0.78380  0.32095  0.39260  1.0000 -0.189194568
C   C86       1.0  0.82340  0.35690  0.41140  1.0000 0.1394461022
C   C87       1.0  0.45200  0.52707  0.86200  1.0000 -0.1112044052
C   C88       1.0  0.64100  0.37492  0.24920  1.0000 -0.1454781616
C   C89       1.0  0.47850  0.59751  0.47520  1.0000 0.1394461022
C   C90       1.0  0.13060  0.39481  0.60730  1.0000 -0.0316205575
C   C91       1.0  0.59870  0.33902  0.23080  1.0000 0.1483762688
C   C92       1.0  0.66950  0.31186  0.30190  1.0000 -0.189194568
C   C93       1.0  0.75380  0.38426  0.34000  1.0000 -0.1763434303
C   C94       1.0  0.63560  0.64283  0.58360  1.0000 -0.189194568
C   C95       1.0  0.51190  0.49748  0.81280  1.0000 -0.1112044052
C   C96       1.0  0.16660  0.56038  0.28330  1.0000 -0.0224747151
C   C97       1.0  0.52230  0.63343  0.49290  1.0000 -0.1715237969
C   C98       1.0  0.37990  0.30136  0.14080  1.0000 -0.1196966614
C   C99       1.0  0.70430  0.61557  0.65600  1.0000 0.1483762688
C   C100      1.0  0.26290  0.55924  0.38460  1.0000 -0.1196966614
C   C101      1.0  0.54750  0.57056  0.54790  1.0000 -0.1763434303
C   C102      1.0  0.66150  0.57956  0.63870  1.0000 -0.189194568
C   C103      1.0  0.03490  0.39615  0.50550  1.0000 -0.1112044052
C   C104      1.0  0.91860  0.65432  0.75140  1.0000 -0.1112044052
C   C105      1.0  0.69940  0.28244  0.93110  1.0000 -0.1112044052
C   C106      1.0  0.74960  0.92209  0.13200  1.0000 0.5459743119
C   C107      1.0  0.08720  0.81796  0.12400  1.0000 0.5459743119
C   C108      1.0  0.74360  0.98890  0.09200  1.0000 -0.1112044052
C   C109      1.0  0.67740  0.02312  0.09120  1.0000 -0.0099208368
C   C110      1.0  0.55370  0.96341  0.18630  1.0000 -0.0984816463
C   C111      1.0  0.01790  0.84880  0.39430  1.0000 0.0728454902
C   C112      1.0  0.56740  0.84878  0.96050  1.0000 0.0884346733
C   C113      1.0  0.68140  0.95891  0.13770  1.0000 -0.0316205575
C   C114      1.0  0.12750  0.10513  0.15450  1.0000 0.11057644
C   C115      1.0  0.98060  0.15104  0.15060  1.0000 -0.0316205575
C   C116      1.0  0.16370  0.78277  0.10690  1.0000 -0.0316205575
C   C117      1.0  0.68180  0.10517  0.71960  1.0000 0.0998046921
C   C118      1.0  0.73820  0.05565  0.03590  1.0000 0.5353901959
C   C119      1.0  0.72030  0.80384  0.95950  1.0000 -0.0316205575
C   C120      1.0  0.21620  0.82095  0.60740  1.0000 -0.189194568
C   C121      1.0  0.17660  0.85690  0.58860  1.0000 0.1394461022
C   C122      1.0  0.54800  0.02707  0.13800  1.0000 -0.1112044052
C   C123      1.0  0.35900  0.87492  0.75080  1.0000 -0.1454781616
C   C124      1.0  0.52150  0.09751  0.52480  1.0000 0.1394461022
C   C125      1.0  0.86940  0.89481  0.39270  1.0000 -0.0316205575
C   C126      1.0  0.40130  0.83902  0.76920  1.0000 0.1483762688
C   C127      1.0  0.33050  0.81186  0.69810  1.0000 -0.189194568
C   C128      1.0  0.24620  0.88426  0.66000  1.0000 -0.1763434303
C   C129      1.0  0.36440  0.14283  0.41640  1.0000 -0.189194568
C   C130      1.0  0.48810  0.99748  0.18720  1.0000 -0.1112044052
C   C131      1.0  0.83340  0.06038  0.71670  1.0000 -0.0224747151
C   C132      1.0  0.47770  0.13343  0.50710  1.0000 -0.1715237969
C   C133      1.0  0.62010  0.80136  0.85920  1.0000 -0.1196966614
C   C134      1.0  0.29570  0.11557  0.34400  1.0000 0.1483762688
C   C135      1.0  0.73710  0.05924  0.61540  1.0000 -0.1196966614
C   C136      1.0  0.45250  0.07056  0.45210  1.0000 -0.1763434303
C   C137      1.0  0.33850  0.07956  0.36130  1.0000 -0.189194568
C   C138      1.0  0.96510  0.89615  0.49450  1.0000 -0.1112044052
C   C139      1.0  0.08140  0.15432  0.24860  1.0000 -0.1112044052
C   C140      1.0  0.30060  0.78244  0.06890  1.0000 -0.1112044052
C   C141      1.0  0.09560  0.75000  0.12510  1.0000 -0.129020276
C   C142      1.0  0.36830  0.75000  0.05200  1.0000 -0.0984816463
C   C143      1.0  0.90440  0.25000  0.87490  1.0000 -0.129020276
C   C144      1.0  0.63170  0.25000  0.94800  1.0000 -0.0984816463
N   N1        1.0  0.90290  0.63492  0.32890  1.0000 -0.2869713777
N   N2        1.0  0.00980  0.37984  0.09150  1.0000 -0.2806698703
N   N3        1.0  0.68690  0.66641  0.02210  1.0000 -0.2869713777
N   N4        1.0  0.79800  0.41114  0.78240  1.0000 -0.2806698703
N   N5        1.0  0.64130  0.41221  0.61710  1.0000 -0.0025299638
N   N6        1.0  0.52260  0.67003  0.86050  1.0000 0.0061430218
N   N7        1.0  0.17570  0.37536  0.25160  1.0000 -0.0099208368
N   N8        1.0  0.05900  0.63335  0.49540  1.0000 0.0008048313
N   N9        1.0  0.09710  0.13492  0.67110  1.0000 -0.2869713777
N   N10       1.0  0.99020  0.87984  0.90850  1.0000 -0.2806698703
N   N11       1.0  0.31310  0.16641  0.97790  1.0000 -0.2869713777
N   N12       1.0  0.20200  0.91114  0.21760  1.0000 -0.2806698703
N   N13       1.0  0.35870  0.91221  0.38290  1.0000 -0.0025299638
N   N14       1.0  0.47740  0.17003  0.13950  1.0000 0.0061430218
N   N15       1.0  0.82430  0.87536  0.74840  1.0000 -0.0099208368
N   N16       1.0  0.94100  0.13335  0.50460  1.0000 0.0008048313
N   N17       1.0  0.09710  0.36508  0.67110  1.0000 -0.2869713777
N   N18       1.0  0.99020  0.62016  0.90850  1.0000 -0.2806698703
N   N19       1.0  0.31310  0.33359  0.97790  1.0000 -0.2869713777
N   N20       1.0  0.20200  0.58886  0.21760  1.0000 -0.2806698703
N   N21       1.0  0.35870  0.58779  0.38290  1.0000 -0.0025299638
N   N22       1.0  0.47740  0.32997  0.13950  1.0000 0.0061430218
N   N23       1.0  0.82430  0.62464  0.74840  1.0000 -0.0099208368
N   N24       1.0  0.94100  0.36665  0.50460  1.0000 0.0008048313
N   N25       1.0  0.90290  0.86508  0.32890  1.0000 -0.2869713777
N   N26       1.0  0.00980  0.12016  0.09150  1.0000 -0.2806698703
N   N27       1.0  0.68690  0.83359  0.02210  1.0000 -0.2869713777
N   N28       1.0  0.79800  0.08886  0.78240  1.0000 -0.2806698703
N   N29       1.0  0.64130  0.08779  0.61710  1.0000 -0.0025299638
N   N30       1.0  0.52260  0.82997  0.86050  1.0000 0.0061430218
N   N31       1.0  0.17570  0.12464  0.25160  1.0000 -0.0099208368
N   N32       1.0  0.05900  0.86665  0.49540  1.0000 0.0008048313
O   O1        1.0  0.15320  0.65347  0.10220  1.0000 -0.5396334155
O   O2        1.0  0.96340  0.68422  0.15780  1.0000 -0.5396334155
O   O3        1.0  0.67870  0.60483  0.16430  1.0000 -0.5396334155
O   O4        1.0  0.86510  0.44812  0.00210  1.0000 -0.5484706187
O   O5        1.0  0.66650  0.41563  0.02300  1.0000 -0.5731463456
O   O6        1.0  0.87170  0.58072  0.09810  1.0000 -0.5998754525
O   O7        1.0  0.84680  0.15347  0.89780  1.0000 -0.5396334155
O   O8        1.0  0.03660  0.18422  0.84220  1.0000 -0.5396334155
O   O9        1.0  0.32130  0.10483  0.83570  1.0000 -0.5396334155
O   O10       1.0  0.13490  0.94812  0.99790  1.0000 -0.5484706187
O   O11       1.0  0.33350  0.91563  0.97700  1.0000 -0.5731463456
O   O12       1.0  0.12830  0.08072  0.90190  1.0000 -0.5998754525
O   O13       1.0  0.84680  0.34653  0.89780  1.0000 -0.5396334155
O   O14       1.0  0.03660  0.31578  0.84220  1.0000 -0.5396334155
O   O15       1.0  0.32130  0.39517  0.83570  1.0000 -0.5396334155
O   O16       1.0  0.13490  0.55188  0.99790  1.0000 -0.5484706187
O   O17       1.0  0.33350  0.58437  0.97700  1.0000 -0.5731463456
O   O18       1.0  0.12830  0.41928  0.90190  1.0000 -0.5998754525
O   O19       1.0  0.15320  0.84653  0.10220  1.0000 -0.5396334155
O   O20       1.0  0.96340  0.81578  0.15780  1.0000 -0.5396334155
O   O21       1.0  0.67870  0.89517  0.16430  1.0000 -0.5396334155
O   O22       1.0  0.86510  0.05188  0.00210  1.0000 -0.5484706187
O   O23       1.0  0.66650  0.08437  0.02300  1.0000 -0.5731463456
O   O24       1.0  0.87170  0.91928  0.09810  1.0000 -0.5998754525
