# DDEC6 charges by PACMAN v1.1 (https://github.com/mtap-research/PACMAN-charge/)
data_2020[Zn][nan]3[FSR]52
_chemical_formula_sum              "Zn6 H132 C180 N36 O24"
_cell_length_a       16.908
_cell_length_b       8.432
_cell_length_c       34.872
_cell_angle_alpha    90
_cell_angle_beta     102.782
_cell_angle_gamma    90

_symmetry_space_group_name_H-M    "P 1"
_symmetry_Int_Tables_number       1

loop_
  _symmetry_equiv_pos_as_xyz
  'x, y, z'

loop_
  _atom_site_type_symbol
  _atom_site_label
  _atom_site_symmetry_multiplicity
  _atom_site_fract_x
  _atom_site_fract_y
  _atom_site_fract_z
  _atom_site_occupancy
  _atom_site_charge
Zn  Zn1       1.0  0.73499  0.55588  0.83445  1.0000 0.7597349516
Zn  Zn2       1.0  0.47032  0.44322  0.60740  1.0000 0.7597349516
Zn  Zn3       1.0  0.16808  0.75120  0.47070  1.0000 0.7787548534
Zn  Zn4       1.0  0.73499  0.44412  0.33445  1.0000 0.7597349516
Zn  Zn5       1.0  0.47032  0.55678  0.10740  1.0000 0.7597349516
Zn  Zn6       1.0  0.16808  0.24880  0.97070  1.0000 0.7787548534
H   H1        1.0  0.00719  0.06738  0.85806  1.0000 0.1110709012
H   H2        1.0  0.96732  0.94042  0.79860  1.0000 0.1110709012
H   H3        1.0  0.18621  0.01430  0.77527  1.0000 0.1110709012
H   H4        1.0  0.22426  0.15877  0.83345  1.0000 0.1204899732
H   H5        1.0  0.06267  0.57539  0.62557  1.0000 0.1204899732
H   H6        1.0  0.15796  0.49723  0.59205  1.0000 0.1204899732
H   H7        1.0  0.32907  0.72710  0.67030  1.0000 0.1110709012
H   H8        1.0  0.23333  0.81684  0.70148  1.0000 0.1110709012
H   H9        1.0  0.83473  0.72865  0.74152  1.0000 0.1204899732
H   H10       1.0  0.86200  0.64635  0.63153  1.0000 0.1204899732
H   H11       1.0  0.72827  0.55926  0.61490  1.0000 0.1204899732
H   H12       1.0  0.36034  0.40358  0.51543  1.0000 0.1296229048
H   H13       1.0  0.42450  0.32392  0.46250  1.0000 0.1296229048
H   H14       1.0  0.59569  0.39368  0.55633  1.0000 0.1204899732
H   H15       1.0  0.60139  0.38726  0.46440  1.0000 0.1204899732
H   H16       1.0  0.64516  0.28463  0.50047  1.0000 0.1296229048
H   H17       1.0  0.58413  0.24059  0.40546  1.0000 0.1374148948
H   H18       1.0  0.54532  0.01528  0.37047  1.0000 0.1110709012
H   H19       1.0  0.50071  0.79645  0.39774  1.0000 0.1204899732
H   H20       1.0  0.55144  0.01403  0.50264  1.0000 0.1296229048
H   H21       1.0  0.53767  0.70487  0.49469  1.0000 0.1204899732
H   H22       1.0  0.48678  0.64825  0.45389  1.0000 0.1110709012
H   H23       1.0  0.33205  0.70938  0.43885  1.0000 0.1204899732
H   H24       1.0  0.45548  0.82943  0.54376  1.0000 0.1296229048
H   H25       1.0  0.31069  0.84102  0.54258  1.0000 0.1296229048
H   H26       1.0  0.39544  0.11295  0.57434  1.0000 0.1204899732
H   H27       1.0  0.51951  0.20351  0.68054  1.0000 0.1204899732
H   H28       1.0  0.41400  0.86004  0.61121  1.0000 0.1296229048
H   H29       1.0  0.55905  0.84785  0.69128  1.0000 0.1374148948
H   H30       1.0  0.46983  0.78497  0.68661  1.0000 0.1374148948
H   H31       1.0  0.37563  0.93264  0.72288  1.0000 0.1204899732
H   H32       1.0  0.61640  0.00384  0.74651  1.0000 0.1296229048
H   H33       1.0  0.36822  0.06762  0.77985  1.0000 0.1204899732
H   H34       1.0  0.48505  0.16670  0.82074  1.0000 0.1110709012
H   H35       1.0  0.62642  0.19735  0.83839  1.0000 0.1204899732
H   H36       1.0  0.66046  0.24369  0.80149  1.0000 0.1374148948
H   H37       1.0  0.80933  0.12514  0.82049  1.0000 0.1374148948
H   H38       1.0  0.86569  0.86346  0.83408  1.0000 0.1296229048
H   H39       1.0  0.63395  0.84629  0.83509  1.0000 0.1110709012
H   H40       1.0  0.85725  0.36324  0.89737  1.0000 0.1204899732
H   H41       1.0  0.63003  0.45308  0.89880  1.0000 0.1204899732
H   H42       1.0  0.68930  0.31331  0.96033  1.0000 0.1204899732
H   H43       1.0  0.90574  0.27865  0.97536  1.0000 0.1374148948
H   H44       1.0  0.83474  0.22245  0.99451  1.0000 0.1296229048
H   H45       1.0  0.75450  0.97353  0.96119  1.0000 0.1110709012
H   H46       1.0  0.77119  0.71664  0.94076  1.0000 0.1009798439
H   H47       1.0  0.88925  0.64485  0.92258  1.0000 0.1110709012
H   H48       1.0  0.97676  0.08398  0.94581  1.0000 0.1296229048
H   H49       1.0  0.05168  0.90234  0.91703  1.0000 0.1296229048
H   H50       1.0  0.00455  0.75948  0.89392  1.0000 0.1296229048
H   H51       1.0  0.04838  0.48531  0.91947  1.0000 0.1204899732
H   H52       1.0  0.19981  0.58573  0.02003  1.0000 0.1374148948
H   H53       1.0  0.13493  0.83111  0.99332  1.0000 0.1374148948
H   H54       1.0  0.87382  0.31159  0.75470  1.0000 0.1204899732
H   H55       1.0  0.96709  0.26825  0.71780  1.0000 0.1204899732
H   H56       1.0  0.13101  0.52841  0.79212  1.0000 0.1204899732
H   H57       1.0  0.03740  0.56971  0.83041  1.0000 0.1204899732
H   H58       1.0  0.03474  0.07060  0.64450  1.0000 0.1204899732
H   H59       1.0  0.01040  0.91821  0.58885  1.0000 0.1204899732
H   H60       1.0  0.22213  0.05478  0.56611  1.0000 0.1110709012
H   H61       1.0  0.25116  0.19607  0.62464  1.0000 0.1110709012
H   H62       1.0  0.39260  0.38147  0.69892  1.0000 0.1204899732
H   H63       1.0  0.52127  0.45280  0.73212  1.0000 0.1296229048
H   H64       1.0  0.30662  0.51192  0.79294  1.0000 0.1204899732
H   H65       1.0  0.43578  0.58733  0.82498  1.0000 0.1204899732
H   H66       1.0  0.70533  0.63312  0.72517  1.0000 0.1296229048
H   H67       1.0  0.00719  0.93262  0.35806  1.0000 0.1110709012
H   H68       1.0  0.96732  0.05958  0.29860  1.0000 0.1110709012
H   H69       1.0  0.18621  0.98570  0.27527  1.0000 0.1110709012
H   H70       1.0  0.22426  0.84123  0.33345  1.0000 0.1204899732
H   H71       1.0  0.06267  0.42461  0.12557  1.0000 0.1204899732
H   H72       1.0  0.15796  0.50277  0.09205  1.0000 0.1204899732
H   H73       1.0  0.32907  0.27290  0.17030  1.0000 0.1110709012
H   H74       1.0  0.23333  0.18316  0.20148  1.0000 0.1110709012
H   H75       1.0  0.83473  0.27135  0.24152  1.0000 0.1204899732
H   H76       1.0  0.86200  0.35365  0.13153  1.0000 0.1204899732
H   H77       1.0  0.72827  0.44074  0.11490  1.0000 0.1204899732
H   H78       1.0  0.36034  0.59642  0.01543  1.0000 0.1374148948
H   H79       1.0  0.42450  0.67608  0.96250  1.0000 0.1296229048
H   H80       1.0  0.59569  0.60632  0.05633  1.0000 0.1204899732
H   H81       1.0  0.60139  0.61274  0.96440  1.0000 0.1204899732
H   H82       1.0  0.64516  0.71537  0.00047  1.0000 0.1296229048
H   H83       1.0  0.58413  0.75941  0.90546  1.0000 0.1374148948
H   H84       1.0  0.54532  0.98472  0.87047  1.0000 0.1110709012
H   H85       1.0  0.50071  0.20355  0.89774  1.0000 0.1204899732
H   H86       1.0  0.55144  0.98597  0.00264  1.0000 0.1296229048
H   H87       1.0  0.53767  0.29513  0.99469  1.0000 0.1204899732
H   H88       1.0  0.48678  0.35175  0.95389  1.0000 0.1110709012
H   H89       1.0  0.33205  0.29062  0.93885  1.0000 0.1204899732
H   H90       1.0  0.45548  0.17057  0.04376  1.0000 0.1296229048
H   H91       1.0  0.31069  0.15898  0.04258  1.0000 0.1296229048
H   H92       1.0  0.39544  0.88705  0.07434  1.0000 0.1204899732
H   H93       1.0  0.51951  0.79649  0.18054  1.0000 0.1204899732
H   H94       1.0  0.41400  0.13996  0.11121  1.0000 0.1296229048
H   H95       1.0  0.55905  0.15215  0.19128  1.0000 0.1374148948
H   H96       1.0  0.46983  0.21503  0.18661  1.0000 0.1374148948
H   H97       1.0  0.37563  0.06736  0.22288  1.0000 0.1204899732
H   H98       1.0  0.61640  0.99616  0.24651  1.0000 0.1296229048
H   H99       1.0  0.36822  0.93238  0.27985  1.0000 0.1204899732
H   H100      1.0  0.48505  0.83330  0.32074  1.0000 0.1110709012
H   H101      1.0  0.62642  0.80265  0.33839  1.0000 0.1204899732
H   H102      1.0  0.66046  0.75631  0.30149  1.0000 0.1374148948
H   H103      1.0  0.80933  0.87486  0.32049  1.0000 0.1374148948
H   H104      1.0  0.86569  0.13654  0.33408  1.0000 0.1296229048
H   H105      1.0  0.63395  0.15371  0.33509  1.0000 0.1110709012
H   H106      1.0  0.85725  0.63676  0.39737  1.0000 0.1204899732
H   H107      1.0  0.63003  0.54692  0.39880  1.0000 0.1204899732
H   H108      1.0  0.68930  0.68669  0.46033  1.0000 0.1204899732
H   H109      1.0  0.90574  0.72135  0.47536  1.0000 0.1374148948
H   H110      1.0  0.83474  0.77755  0.49451  1.0000 0.1296229048
H   H111      1.0  0.75450  0.02647  0.46119  1.0000 0.1110709012
H   H112      1.0  0.77119  0.28336  0.44076  1.0000 0.1009798439
H   H113      1.0  0.88925  0.35515  0.42258  1.0000 0.1110709012
H   H114      1.0  0.97676  0.91602  0.44581  1.0000 0.1296229048
H   H115      1.0  0.05168  0.09766  0.41703  1.0000 0.1296229048
H   H116      1.0  0.00455  0.24052  0.39392  1.0000 0.1296229048
H   H117      1.0  0.04838  0.51469  0.41947  1.0000 0.1204899732
H   H118      1.0  0.19981  0.41427  0.52003  1.0000 0.1374148948
H   H119      1.0  0.13493  0.16889  0.49332  1.0000 0.1374148948
H   H120      1.0  0.87382  0.68841  0.25470  1.0000 0.1204899732
H   H121      1.0  0.96709  0.73175  0.21780  1.0000 0.1204899732
H   H122      1.0  0.13101  0.47159  0.29212  1.0000 0.1204899732
H   H123      1.0  0.03740  0.43029  0.33041  1.0000 0.1204899732
H   H124      1.0  0.03474  0.92940  0.14450  1.0000 0.1204899732
H   H125      1.0  0.01040  0.08179  0.08885  1.0000 0.1204899732
H   H126      1.0  0.22213  0.94522  0.06611  1.0000 0.1110709012
H   H127      1.0  0.25116  0.80393  0.12464  1.0000 0.1110709012
H   H128      1.0  0.39260  0.61853  0.19892  1.0000 0.1204899732
H   H129      1.0  0.52127  0.54720  0.23212  1.0000 0.1296229048
H   H130      1.0  0.30662  0.48808  0.29294  1.0000 0.1204899732
H   H131      1.0  0.43578  0.41267  0.32498  1.0000 0.1204899732
H   H132      1.0  0.70533  0.36688  0.22517  1.0000 0.1296229048
C   C1        1.0  0.14930  0.20500  0.89160  1.0000 0.5422528617
C   C2        1.0  0.12070  0.12510  0.85220  1.0000 -0.0041756256
C   C3        1.0  0.04290  0.05870  0.84140  1.0000 -0.1101039077
C   C4        1.0  0.01970  0.98050  0.80600  1.0000 -0.1173349634
C   C5        1.0  0.07270  0.96050  0.78140  1.0000 0.0112863657
C   C6        1.0  0.15020  0.02660  0.79170  1.0000 -0.1101039077
C   C7        1.0  0.17340  0.11140  0.82690  1.0000 -0.1101039077
C   C8        1.0  0.04800  0.87130  0.74410  1.0000 0.3787503423
C   C9        1.0  0.07690  0.74880  0.69080  1.0000 0.3682219716
C   C10       1.0  0.13730  0.70180  0.66860  1.0000 0.0112863657
C   C11       1.0  0.11630  0.60670  0.63460  1.0000 -0.1003358394
C   C12       1.0  0.17330  0.55950  0.61450  1.0000 -0.1003358394
C   C13       1.0  0.25420  0.60440  0.62740  1.0000 -0.0134953831
C   C14       1.0  0.27520  0.69840  0.66090  1.0000 -0.1173349634
C   C15       1.0  0.31850  0.53850  0.60810  1.0000 0.5500341288
C   C16       1.0  0.21810  0.74900  0.68010  1.0000 -0.1101039077
C   C17       1.0  0.94840  0.74600  0.70060  1.0000 0.3787503423
C   C18       1.0  0.81410  0.69120  0.71620  1.0000 -0.1101039077
C   C19       1.0  0.86250  0.69120  0.68920  1.0000 0.0195780627
C   C20       1.0  0.83050  0.64350  0.65030  1.0000 -0.1101039077
C   C21       1.0  0.75050  0.59190  0.64050  1.0000 -0.1173349634
C   C22       1.0  0.70370  0.58830  0.66810  1.0000 -0.0134953831
C   C23       1.0  0.61820  0.52340  0.65670  1.0000 0.5500341288
C   C24       1.0  0.41580  0.39060  0.51750  1.0000 -0.0409105699
C   C25       1.0  0.45100  0.34710  0.48820  1.0000 -0.1101039077
C   C26       1.0  0.54450  0.38480  0.53990  1.0000 0.0508932913
C   C27       1.0  0.59420  0.30100  0.48170  1.0000 -0.1800776787
C   C28       1.0  0.57080  0.14960  0.45750  1.0000 0.1110709012
C   C29       1.0  0.56910  0.15090  0.41770  1.0000 -0.1599946835
C   C30       1.0  0.54490  0.01690  0.39710  1.0000 -0.0843187489
C   C31       1.0  0.51980  0.88370  0.41340  1.0000 -0.1599946835
C   C32       1.0  0.52310  0.88010  0.45290  1.0000 0.1009798439
C   C33       1.0  0.54890  0.01470  0.47570  1.0000 -0.2195121862
C   C34       1.0  0.49500  0.73560  0.47250  1.0000 -0.1870033957
C   C35       1.0  0.34440  0.74030  0.46510  1.0000 0.1009798439
C   C36       1.0  0.41330  0.80630  0.52240  1.0000 -0.1101039077
C   C37       1.0  0.33310  0.81190  0.52160  1.0000 -0.0325493661
C   C38       1.0  0.42320  0.09970  0.60030  1.0000 -0.0463521138
C   C39       1.0  0.49090  0.14980  0.65850  1.0000 0.1110709012
C   C40       1.0  0.43260  0.95950  0.62070  1.0000 -0.1101039077
C   C41       1.0  0.50360  0.87920  0.69070  1.0000 -0.1693588066
C   C42       1.0  0.42230  0.97430  0.73900  1.0000 -0.1599946835
C   C43       1.0  0.56650  0.01610  0.75320  1.0000 -0.2008343481
C   C44       1.0  0.49870  0.95690  0.72870  1.0000 0.1110709012
C   C45       1.0  0.41810  0.05390  0.77320  1.0000 -0.0734670975
C   C46       1.0  0.48830  0.11360  0.79780  1.0000 -0.1693588066
C   C47       1.0  0.56350  0.09380  0.78790  1.0000 0.1110709012
C   C48       1.0  0.63910  0.15690  0.81440  1.0000 -0.1800776787
C   C49       1.0  0.78040  0.03540  0.82470  1.0000 -0.1003358394
C   C50       1.0  0.81180  0.89200  0.83220  1.0000 -0.0409105699
C   C51       1.0  0.68450  0.88250  0.83250  1.0000 0.0849940635
C   C52       1.0  0.80820  0.36850  0.90520  1.0000 0.0941197507
C   C53       1.0  0.68320  0.41710  0.90630  1.0000 -0.0629172244
C   C54       1.0  0.71570  0.34000  0.94050  1.0000 -0.1406286724
C   C55       1.0  0.85400  0.22400  0.97030  1.0000 -0.1599946835
C   C56       1.0  0.80280  0.94410  0.95450  1.0000 -0.1800776787
C   C57       1.0  0.86510  0.05400  0.95720  1.0000 0.1204899732
C   C58       1.0  0.81240  0.79060  0.94190  1.0000 -0.090672306
C   C59       1.0  0.88340  0.74770  0.93120  1.0000 -0.153350509
C   C60       1.0  0.94600  0.85590  0.93300  1.0000 0.1204899732
C   C61       1.0  0.93600  0.00950  0.94540  1.0000 -0.2008343481
C   C62       1.0  0.02060  0.80790  0.91970  1.0000 -0.1693588066
C   C63       1.0  0.07820  0.54050  0.94100  1.0000 0.1009798439
C   C64       1.0  0.16160  0.59620  0.99650  1.0000 -0.0409105699
C   C65       1.0  0.12600  0.73130  0.98180  1.0000 -0.1003358394
C   C66       1.0  0.88470  0.48600  0.82040  1.0000 0.5422528617
C   C67       1.0  0.94490  0.44890  0.79610  1.0000 -0.0223766242
C   C68       1.0  0.92540  0.35550  0.76240  1.0000 -0.1003358394
C   C69       1.0  0.98150  0.32830  0.74060  1.0000 -0.1101039077
C   C70       1.0  0.05940  0.38750  0.75150  1.0000 0.0112863657
C   C71       1.0  0.07970  0.48310  0.78500  1.0000 -0.1101039077
C   C72       1.0  0.02310  0.51010  0.80750  1.0000 -0.1003358394
C   C73       1.0  0.12190  0.35440  0.72920  1.0000 0.3682219716
C   C74       1.0  0.25340  0.37810  0.72460  1.0000 0.3682219716
C   C75       1.0  0.16410  0.24220  0.67840  1.0000 0.3787503423
C   C76       1.0  0.14640  0.14950  0.64110  1.0000 0.0112863657
C   C77       1.0  0.07340  0.06560  0.62930  1.0000 -0.1173349634
C   C78       1.0  0.05830  0.97610  0.59550  1.0000 -0.1003358394
C   C79       1.0  0.11340  0.97030  0.57100  1.0000 -0.0223766242
C   C80       1.0  0.18490  0.05540  0.58220  1.0000 -0.1101039077
C   C81       1.0  0.09670  0.87070  0.53390  1.0000 0.5563000671
C   C82       1.0  0.20210  0.14250  0.61730  1.0000 -0.1101039077
C   C83       1.0  0.33490  0.43810  0.74230  1.0000 0.0112863657
C   C84       1.0  0.40070  0.42170  0.72430  1.0000 -0.1173349634
C   C85       1.0  0.47790  0.46520  0.74430  1.0000 -0.090672306
C   C86       1.0  0.34940  0.50030  0.78040  1.0000 -0.1277633377
C   C87       1.0  0.42740  0.54490  0.79980  1.0000 -0.1101039077
C   C88       1.0  0.49170  0.52750  0.78250  1.0000 -0.0325493661
C   C89       1.0  0.57470  0.55640  0.80660  1.0000 0.5329734318
C   C90       1.0  0.73650  0.63730  0.70630  1.0000 -0.1003358394
C   C91       1.0  0.14930  0.79500  0.39160  1.0000 0.5422528617
C   C92       1.0  0.12070  0.87490  0.35220  1.0000 -0.0041756256
C   C93       1.0  0.04290  0.94130  0.34140  1.0000 -0.1101039077
C   C94       1.0  0.01970  0.01950  0.30600  1.0000 -0.1173349634
C   C95       1.0  0.07270  0.03950  0.28140  1.0000 0.0112863657
C   C96       1.0  0.15020  0.97340  0.29170  1.0000 -0.1101039077
C   C97       1.0  0.17340  0.88860  0.32690  1.0000 -0.1101039077
C   C98       1.0  0.04800  0.12870  0.24410  1.0000 0.3787503423
C   C99       1.0  0.07690  0.25120  0.19080  1.0000 0.3682219716
C   C100      1.0  0.13730  0.29820  0.16860  1.0000 0.0112863657
C   C101      1.0  0.11630  0.39330  0.13460  1.0000 -0.1003358394
C   C102      1.0  0.17330  0.44050  0.11450  1.0000 -0.1003358394
C   C103      1.0  0.25420  0.39560  0.12740  1.0000 -0.0134953831
C   C104      1.0  0.27520  0.30160  0.16090  1.0000 -0.1173349634
C   C105      1.0  0.31850  0.46150  0.10810  1.0000 0.5500341288
C   C106      1.0  0.21810  0.25100  0.18010  1.0000 -0.1101039077
C   C107      1.0  0.94840  0.25400  0.20060  1.0000 0.3787503423
C   C108      1.0  0.81410  0.30880  0.21620  1.0000 -0.1101039077
C   C109      1.0  0.86250  0.30880  0.18920  1.0000 0.0195780627
C   C110      1.0  0.83050  0.35650  0.15030  1.0000 -0.1101039077
C   C111      1.0  0.75050  0.40810  0.14050  1.0000 -0.1173349634
C   C112      1.0  0.70370  0.41170  0.16810  1.0000 -0.0134953831
C   C113      1.0  0.61820  0.47660  0.15670  1.0000 0.5500341288
C   C114      1.0  0.41580  0.60940  0.01750  1.0000 -0.0409105699
C   C115      1.0  0.45100  0.65290  0.98820  1.0000 -0.1101039077
C   C116      1.0  0.54450  0.61520  0.03990  1.0000 0.0508932913
C   C117      1.0  0.59420  0.69900  0.98170  1.0000 -0.1800776787
C   C118      1.0  0.57080  0.85040  0.95750  1.0000 0.1110709012
C   C119      1.0  0.56910  0.84910  0.91770  1.0000 -0.1599946835
C   C120      1.0  0.54490  0.98310  0.89710  1.0000 -0.0843187489
C   C121      1.0  0.51980  0.11630  0.91340  1.0000 -0.1599946835
C   C122      1.0  0.52310  0.11990  0.95290  1.0000 0.1009798439
C   C123      1.0  0.54890  0.98530  0.97570  1.0000 -0.2195121862
C   C124      1.0  0.49500  0.26440  0.97250  1.0000 -0.1870033957
C   C125      1.0  0.34440  0.25970  0.96510  1.0000 0.1009798439
C   C126      1.0  0.41330  0.19370  0.02240  1.0000 -0.1101039077
C   C127      1.0  0.33310  0.18810  0.02160  1.0000 -0.0325493661
C   C128      1.0  0.42320  0.90030  0.10030  1.0000 -0.0463521138
C   C129      1.0  0.49090  0.85020  0.15850  1.0000 0.1110709012
C   C130      1.0  0.43260  0.04050  0.12070  1.0000 -0.1101039077
C   C131      1.0  0.50360  0.12080  0.19070  1.0000 -0.1693588066
C   C132      1.0  0.42230  0.02570  0.23900  1.0000 -0.1599946835
C   C133      1.0  0.56650  0.98390  0.25320  1.0000 -0.2008343481
C   C134      1.0  0.49870  0.04310  0.22870  1.0000 0.1110709012
C   C135      1.0  0.41810  0.94610  0.27320  1.0000 -0.0734670975
C   C136      1.0  0.48830  0.88640  0.29780  1.0000 -0.1693588066
C   C137      1.0  0.56350  0.90620  0.28790  1.0000 0.1110709012
C   C138      1.0  0.63910  0.84310  0.31440  1.0000 -0.1800776787
C   C139      1.0  0.78040  0.96460  0.32470  1.0000 -0.1003358394
C   C140      1.0  0.81180  0.10800  0.33220  1.0000 -0.0409105699
C   C141      1.0  0.68450  0.11750  0.33250  1.0000 0.0849940635
C   C142      1.0  0.80820  0.63150  0.40520  1.0000 0.0941197507
C   C143      1.0  0.68320  0.58290  0.40630  1.0000 -0.0629172244
C   C144      1.0  0.71570  0.66000  0.44050  1.0000 -0.1406286724
C   C145      1.0  0.85400  0.77600  0.47030  1.0000 -0.1599946835
C   C146      1.0  0.80280  0.05590  0.45450  1.0000 -0.1800776787
C   C147      1.0  0.86510  0.94600  0.45720  1.0000 0.1204899732
C   C148      1.0  0.81240  0.20940  0.44190  1.0000 -0.090672306
C   C149      1.0  0.88340  0.25230  0.43120  1.0000 -0.153350509
C   C150      1.0  0.94600  0.14410  0.43300  1.0000 0.1204899732
C   C151      1.0  0.93600  0.99050  0.44540  1.0000 -0.2008343481
C   C152      1.0  0.02060  0.19210  0.41970  1.0000 -0.1693588066
C   C153      1.0  0.07820  0.45950  0.44100  1.0000 0.1009798439
C   C154      1.0  0.16160  0.40380  0.49650  1.0000 -0.0409105699
C   C155      1.0  0.12600  0.26870  0.48180  1.0000 -0.1003358394
C   C156      1.0  0.88470  0.51400  0.32040  1.0000 0.5422528617
C   C157      1.0  0.94490  0.55110  0.29610  1.0000 -0.0223766242
C   C158      1.0  0.92540  0.64450  0.26240  1.0000 -0.1003358394
C   C159      1.0  0.98150  0.67170  0.24060  1.0000 -0.1101039077
C   C160      1.0  0.05940  0.61250  0.25150  1.0000 0.0112863657
C   C161      1.0  0.07970  0.51690  0.28500  1.0000 -0.1101039077
C   C162      1.0  0.02310  0.48990  0.30750  1.0000 -0.1003358394
C   C163      1.0  0.12190  0.64560  0.22920  1.0000 0.3682219716
C   C164      1.0  0.25340  0.62190  0.22460  1.0000 0.3682219716
C   C165      1.0  0.16410  0.75780  0.17840  1.0000 0.3787503423
C   C166      1.0  0.14640  0.85050  0.14110  1.0000 0.0112863657
C   C167      1.0  0.07340  0.93440  0.12930  1.0000 -0.1173349634
C   C168      1.0  0.05830  0.02390  0.09550  1.0000 -0.1003358394
C   C169      1.0  0.11340  0.02970  0.07100  1.0000 -0.0223766242
C   C170      1.0  0.18490  0.94460  0.08220  1.0000 -0.1101039077
C   C171      1.0  0.09670  0.12930  0.03390  1.0000 0.5563000671
C   C172      1.0  0.20210  0.85750  0.11730  1.0000 -0.1101039077
C   C173      1.0  0.33490  0.56190  0.24230  1.0000 0.0112863657
C   C174      1.0  0.40070  0.57830  0.22430  1.0000 -0.1173349634
C   C175      1.0  0.47790  0.53480  0.24430  1.0000 -0.090672306
C   C176      1.0  0.34940  0.49970  0.28040  1.0000 -0.1277633377
C   C177      1.0  0.42740  0.45510  0.29980  1.0000 -0.1101039077
C   C178      1.0  0.49170  0.47250  0.28250  1.0000 -0.0325493661
C   C179      1.0  0.57470  0.44360  0.30660  1.0000 0.5329734318
C   C180      1.0  0.73650  0.36270  0.20630  1.0000 -0.1003358394
N   N1        1.0  0.74230  0.43340  0.88460  1.0000 -0.2899408919
N   N2        1.0  0.79570  0.30910  0.94000  1.0000 0.0508932913
N   N3        1.0  0.74940  0.79190  0.83690  1.0000 -0.2899408919
N   N4        1.0  0.69970  0.03220  0.82390  1.0000 0.0406526173
N   N5        1.0  0.47480  0.99550  0.65770  1.0000 0.0508932913
N   N6        1.0  0.46160  0.21690  0.62464  1.0000 -0.2899408919
N   N7        1.0  0.47480  0.41280  0.55111  1.0000 -0.2815416126
N   N8        1.0  0.53130  0.34310  0.50260  1.0000 0.0406526173
N   N9        1.0  0.07330  0.69610  0.94630  1.0000 0.0586918115
N   N10       1.0  0.13180  0.47410  0.97060  1.0000 -0.2899408919
N   N11       1.0  0.96980  0.83010  0.73380  1.0000 -0.4122568138
N   N12       1.0  0.99990  0.70190  0.67770  1.0000 -0.4174383946
N   N13       1.0  0.10420  0.83440  0.72360  1.0000 -0.4174383946
N   N14       1.0  0.19510  0.41220  0.74390  1.0000 -0.4174383946
N   N15       1.0  0.10280  0.26740  0.69613  1.0000 -0.4174383946
N   N16       1.0  0.24090  0.29420  0.69100  1.0000 -0.4174383946
N   N17       1.0  0.42030  0.76050  0.48620  1.0000 0.0406526173
N   N18       1.0  0.29000  0.76870  0.48540  1.0000 -0.2723864682
N   N19       1.0  0.74230  0.56660  0.38460  1.0000 -0.2899408919
N   N20       1.0  0.79570  0.69090  0.44000  1.0000 0.0508932913
N   N21       1.0  0.74940  0.20810  0.33690  1.0000 -0.2815416126
N   N22       1.0  0.69970  0.96780  0.32390  1.0000 0.0406526173
N   N23       1.0  0.47480  0.00450  0.15770  1.0000 0.0508932913
N   N24       1.0  0.46160  0.78310  0.12464  1.0000 -0.2899408919
N   N25       1.0  0.47480  0.58720  0.05111  1.0000 -0.2815416126
N   N26       1.0  0.53130  0.65690  0.00260  1.0000 0.0406526173
N   N27       1.0  0.07330  0.30390  0.44630  1.0000 0.0586918115
N   N28       1.0  0.13180  0.52590  0.47060  1.0000 -0.2899408919
N   N29       1.0  0.96980  0.16990  0.23380  1.0000 -0.4122568138
N   N30       1.0  0.99990  0.29810  0.17770  1.0000 -0.4174383946
N   N31       1.0  0.10420  0.16560  0.22360  1.0000 -0.4174383946
N   N32       1.0  0.19510  0.58780  0.24390  1.0000 -0.4174383946
N   N33       1.0  0.10280  0.73260  0.19613  1.0000 -0.4174383946
N   N34       1.0  0.24090  0.70580  0.19100  1.0000 -0.4174383946
N   N35       1.0  0.42030  0.23950  0.98620  1.0000 0.0406526173
N   N36       1.0  0.29000  0.23130  0.98540  1.0000 -0.2723864682
O   O1        1.0  0.39140  0.57940  0.62400  1.0000 -0.5597562113
O   O2        1.0  0.30000  0.44710  0.57943  1.0000 -0.5597562113
O   O3        1.0  0.11430  0.16200  0.91864  1.0000 -0.5597562113
O   O4        1.0  0.20330  0.30380  0.89582  1.0000 -0.5519248017
O   O5        1.0  0.59140  0.44860  0.68225  1.0000 -0.5754033097
O   O6        1.0  0.57830  0.54830  0.62228  1.0000 -0.5597562113
O   O7        1.0  0.80970  0.45320  0.80538  1.0000 -0.5443547734
O   O8        1.0  0.90720  0.54710  0.85352  1.0000 -0.5754033097
O   O9        1.0  0.63540  0.52530  0.79197  1.0000 -0.5173506506
O   O10       1.0  0.58160  0.60660  0.84077  1.0000 -0.5754033097
O   O11       1.0  0.14850  0.88940  0.51227  1.0000 -0.5754033097
O   O12       1.0  0.03700  0.78230  0.52680  1.0000 -0.5519248017
O   O13       1.0  0.39140  0.42060  0.12400  1.0000 -0.5597562113
O   O14       1.0  0.30000  0.55290  0.07943  1.0000 -0.5597562113
O   O15       1.0  0.11430  0.83800  0.41864  1.0000 -0.5597562113
O   O16       1.0  0.20330  0.69620  0.39582  1.0000 -0.5519248017
O   O17       1.0  0.59140  0.55140  0.18225  1.0000 -0.5754033097
O   O18       1.0  0.57830  0.45170  0.12228  1.0000 -0.5597562113
O   O19       1.0  0.80970  0.54680  0.30538  1.0000 -0.5443547734
O   O20       1.0  0.90720  0.45290  0.35352  1.0000 -0.5754033097
O   O21       1.0  0.63540  0.47470  0.29197  1.0000 -0.5173506506
O   O22       1.0  0.58160  0.39340  0.34077  1.0000 -0.5754033097
O   O23       1.0  0.14850  0.11060  0.01227  1.0000 -0.5754033097
O   O24       1.0  0.03700  0.21770  0.02680  1.0000 -0.5519248017
