# DDEC6 charges by PACMAN v1.1 (https://github.com/mtap-research/PACMAN-charge/)
data_2020[Cu][nan]2[FSR]6
_chemical_formula_sum              "Cu4 H68 C88 I4 N12 O4"
_cell_length_a       13.6237
_cell_length_b       13.6237
_cell_length_c       17.7756
_cell_angle_alpha    69.7852
_cell_angle_beta     110.215
_cell_angle_gamma    126.434

_symmetry_space_group_name_H-M    "P 1"
_symmetry_Int_Tables_number       1

loop_
  _symmetry_equiv_pos_as_xyz
  'x, y, z'

loop_
  _atom_site_type_symbol
  _atom_site_label
  _atom_site_symmetry_multiplicity
  _atom_site_fract_x
  _atom_site_fract_y
  _atom_site_fract_z
  _atom_site_occupancy
  _atom_site_charge
Cu  Cu1       1.0  0.05123  0.05109  0.56275  1.0000 0.1837036384
Cu  Cu2       1.0  0.05109  0.05123  0.93725  1.0000 0.1837036384
Cu  Cu3       1.0  0.94877  0.94891  0.43725  1.0000 0.1837036384
Cu  Cu4       1.0  0.94891  0.94877  0.06275  1.0000 0.1837036384
H   H1        1.0  0.28496  0.92580  0.44619  1.0000 0.1207326279
H   H2        1.0  0.31046  0.64222  0.60589  1.0000 0.1207326279
H   H3        1.0  0.37709  0.01905  0.54945  1.0000 0.1098600252
H   H4        1.0  0.01940  0.64044  0.28642  1.0000 0.1303967869
H   H5        1.0  0.93890  0.71156  0.15827  1.0000 0.1000464594
H   H6        1.0  0.98341  0.22389  0.43419  1.0000 0.1098600252
H   H7        1.0  0.09694  0.03418  0.21550  1.0000 0.1000464594
H   H8        1.0  0.52518  0.14652  0.64453  1.0000 0.1207326279
H   H9        1.0  0.03637  0.42409  0.40841  1.0000 0.1303967869
H   H10       1.0  0.17789  0.97143  0.34592  1.0000 0.1207326279
H   H11       1.0  0.48633  0.77585  0.66128  1.0000 0.1098600252
H   H12       1.0  0.63016  0.90248  0.75552  1.0000 0.1377139164
H   H13       1.0  0.17559  0.25157  0.65671  1.0000 0.1000464594
H   H14       1.0  0.23625  0.45393  0.63480  1.0000 0.1207326279
H   H15       1.0  0.71781  0.26885  0.70783  1.0000 0.1207326279
H   H16       1.0  0.62278  0.21102  0.76702  1.0000 0.1098600252
H   H17       1.0  0.76666  0.26274  0.80414  1.0000 0.1207326279
H   H18       1.0  0.92580  0.28496  0.05381  1.0000 0.1207326279
H   H19       1.0  0.64222  0.31046  0.89411  1.0000 0.1207326279
H   H20       1.0  0.01905  0.37709  0.95055  1.0000 0.1098600252
H   H21       1.0  0.64044  0.01940  0.21358  1.0000 0.1303967869
H   H22       1.0  0.71156  0.93890  0.34173  1.0000 0.1000464594
H   H23       1.0  0.22389  0.98341  0.06581  1.0000 0.1098600252
H   H24       1.0  0.03418  0.09694  0.28450  1.0000 0.1000464594
H   H25       1.0  0.14652  0.52518  0.85547  1.0000 0.1207326279
H   H26       1.0  0.42409  0.03637  0.09159  1.0000 0.1303967869
H   H27       1.0  0.97143  0.17789  0.15408  1.0000 0.1207326279
H   H28       1.0  0.77585  0.48633  0.83872  1.0000 0.1098600252
H   H29       1.0  0.90248  0.63016  0.74448  1.0000 0.1377139164
H   H30       1.0  0.25157  0.17559  0.84329  1.0000 0.1000464594
H   H31       1.0  0.45393  0.23625  0.86520  1.0000 0.1207326279
H   H32       1.0  0.26885  0.71781  0.79217  1.0000 0.1207326279
H   H33       1.0  0.21102  0.62278  0.73298  1.0000 0.1098600252
H   H34       1.0  0.26274  0.76666  0.69586  1.0000 0.1207326279
H   H35       1.0  0.71504  0.07420  0.55381  1.0000 0.1207326279
H   H36       1.0  0.68954  0.35778  0.39410  1.0000 0.1207326279
H   H37       1.0  0.62291  0.98095  0.45055  1.0000 0.1098600252
H   H38       1.0  0.98060  0.35956  0.71358  1.0000 0.1303967869
H   H39       1.0  0.06110  0.28844  0.84173  1.0000 0.1000464594
H   H40       1.0  0.01659  0.77611  0.56581  1.0000 0.1098600252
H   H41       1.0  0.90306  0.96582  0.78450  1.0000 0.1000464594
H   H42       1.0  0.47482  0.85348  0.35547  1.0000 0.1207326279
H   H43       1.0  0.96363  0.57591  0.59159  1.0000 0.1303967869
H   H44       1.0  0.82211  0.02857  0.65408  1.0000 0.1207326279
H   H45       1.0  0.51367  0.22415  0.33872  1.0000 0.1098600252
H   H46       1.0  0.36984  0.09752  0.24448  1.0000 0.1377139164
H   H47       1.0  0.82441  0.74843  0.34329  1.0000 0.1000464594
H   H48       1.0  0.76375  0.54607  0.36520  1.0000 0.1207326279
H   H49       1.0  0.28219  0.73115  0.29217  1.0000 0.1207326279
H   H50       1.0  0.37722  0.78898  0.23298  1.0000 0.1098600252
H   H51       1.0  0.23334  0.73726  0.19586  1.0000 0.1207326279
H   H52       1.0  0.07420  0.71504  0.94619  1.0000 0.1207326279
H   H53       1.0  0.35778  0.68954  0.10590  1.0000 0.1207326279
H   H54       1.0  0.98095  0.62291  0.04945  1.0000 0.1098600252
H   H55       1.0  0.35956  0.98060  0.78642  1.0000 0.1303967869
H   H56       1.0  0.28844  0.06110  0.65827  1.0000 0.1000464594
H   H57       1.0  0.77611  0.01659  0.93419  1.0000 0.1098600252
H   H58       1.0  0.96582  0.90306  0.71550  1.0000 0.1000464594
H   H59       1.0  0.85348  0.47482  0.14453  1.0000 0.1207326279
H   H60       1.0  0.57591  0.96363  0.90841  1.0000 0.1303967869
H   H61       1.0  0.02857  0.82211  0.84592  1.0000 0.1207326279
H   H62       1.0  0.22415  0.51367  0.16128  1.0000 0.1098600252
H   H63       1.0  0.09752  0.36984  0.25552  1.0000 0.1377139164
H   H64       1.0  0.74843  0.82441  0.15671  1.0000 0.1000464594
H   H65       1.0  0.54607  0.76375  0.13480  1.0000 0.1207326279
H   H66       1.0  0.73115  0.28219  0.20783  1.0000 0.1207326279
H   H67       1.0  0.78898  0.37722  0.26702  1.0000 0.1098600252
H   H68       1.0  0.73726  0.23334  0.30414  1.0000 0.1207326279
C   C1        1.0  0.11230  0.80050  0.32980  1.0000 0.0870974509
C   C2        1.0  0.18830  0.59850  0.50020  1.0000 0.2080088256
C   C3        1.0  0.26160  0.84160  0.46140  1.0000 -0.2231036855
C   C4        1.0  0.41650  0.88390  0.59470  1.0000 0.0372884793
C   C5        1.0  0.17110  0.75850  0.41050  1.0000 0.2037060185
C   C6        1.0  0.27740  0.67520  0.55490  1.0000 -0.24256029
C   C7        1.0  0.14850  0.46650  0.51720  1.0000 0.0846340729
C   C8        1.0  0.42870  0.99490  0.59140  1.0000 -0.1217798499
C   C9        1.0  0.31920  0.80020  0.53630  1.0000 0.1207326279
C   C10       1.0  0.03750  0.72270  0.27280  1.0000 -0.1812802753
C   C11       1.0  0.98970  0.76570  0.19660  1.0000 0.068174927
C   C12       1.0  0.58700  0.03220  0.71110  1.0000 0.2313348575
C   C13       1.0  0.03720  0.27200  0.47570  1.0000 0.068174927
C   C14       1.0  0.08110  0.95270  0.23020  1.0000 0.068174927
C   C15       1.0  0.51530  0.06990  0.64850  1.0000 -0.2231036855
C   C16       1.0  0.06920  0.39180  0.45980  1.0000 -0.1709815526
C   C17       1.0  0.13110  0.91670  0.30800  1.0000 -0.1812802753
C   C18       1.0  0.49280  0.85080  0.65750  1.0000 -0.1304873304
C   C19       1.0  0.57740  0.92540  0.71380  1.0000 -0.2071621495
C   C20       1.0  0.14890  0.28790  0.60450  1.0000 0.0552851184
C   C21       1.0  0.18500  0.40860  0.59160  1.0000 -0.1943709181
C   C22       1.0  0.69710  0.22010  0.76160  1.0000 -0.2512094082
C   C23       1.0  0.80050  0.11230  0.17020  1.0000 0.0870974509
C   C24       1.0  0.59850  0.18830  0.99980  1.0000 0.2080088256
C   C25       1.0  0.84160  0.26160  0.03860  1.0000 -0.2231036855
C   C26       1.0  0.88390  0.41650  0.90530  1.0000 0.0372884793
C   C27       1.0  0.75850  0.17110  0.08950  1.0000 0.2037060185
C   C28       1.0  0.67520  0.27740  0.94510  1.0000 -0.24256029
C   C29       1.0  0.46650  0.14850  0.98280  1.0000 0.0846340729
C   C30       1.0  0.99490  0.42870  0.90860  1.0000 -0.1217798499
C   C31       1.0  0.80020  0.31920  0.96370  1.0000 0.1207326279
C   C32       1.0  0.72270  0.03750  0.22720  1.0000 -0.1812802753
C   C33       1.0  0.76570  0.98970  0.30340  1.0000 0.068174927
C   C34       1.0  0.03220  0.58700  0.78890  1.0000 0.2313348575
C   C35       1.0  0.27200  0.03720  0.02430  1.0000 0.068174927
C   C36       1.0  0.95270  0.08110  0.26980  1.0000 0.068174927
C   C37       1.0  0.06990  0.51530  0.85150  1.0000 -0.2231036855
C   C38       1.0  0.39180  0.06920  0.04020  1.0000 -0.1709815526
C   C39       1.0  0.91670  0.13110  0.19200  1.0000 -0.1812802753
C   C40       1.0  0.85080  0.49280  0.84250  1.0000 -0.1304873304
C   C41       1.0  0.92540  0.57740  0.78620  1.0000 -0.2071621495
C   C42       1.0  0.28790  0.14890  0.89550  1.0000 0.0552851184
C   C43       1.0  0.40860  0.18500  0.90840  1.0000 -0.1943709181
C   C44       1.0  0.22010  0.69710  0.73840  1.0000 -0.2512094082
C   C45       1.0  0.88770  0.19950  0.67020  1.0000 0.0870974509
C   C46       1.0  0.81170  0.40150  0.49980  1.0000 0.2080088256
C   C47       1.0  0.73840  0.15840  0.53860  1.0000 -0.2231036855
C   C48       1.0  0.58350  0.11610  0.40530  1.0000 0.0372884793
C   C49       1.0  0.82890  0.24150  0.58950  1.0000 0.2037060185
C   C50       1.0  0.72260  0.32480  0.44510  1.0000 -0.24256029
C   C51       1.0  0.85150  0.53350  0.48280  1.0000 0.0846340729
C   C52       1.0  0.57130  0.00510  0.40860  1.0000 -0.1217798499
C   C53       1.0  0.68080  0.19980  0.46370  1.0000 0.1207326279
C   C54       1.0  0.96250  0.27730  0.72720  1.0000 -0.1812802753
C   C55       1.0  0.01030  0.23430  0.80340  1.0000 0.068174927
C   C56       1.0  0.41300  0.96780  0.28890  1.0000 0.2313348575
C   C57       1.0  0.96280  0.72800  0.52430  1.0000 0.068174927
C   C58       1.0  0.91890  0.04730  0.76980  1.0000 0.068174927
C   C59       1.0  0.48470  0.93010  0.35150  1.0000 -0.2231036855
C   C60       1.0  0.93080  0.60820  0.54020  1.0000 -0.1709815526
C   C61       1.0  0.86890  0.08330  0.69200  1.0000 -0.1812802753
C   C62       1.0  0.50720  0.14920  0.34250  1.0000 -0.1304873304
C   C63       1.0  0.42260  0.07460  0.28620  1.0000 -0.2071621495
C   C64       1.0  0.85110  0.71210  0.39550  1.0000 0.0552851184
C   C65       1.0  0.81500  0.59140  0.40840  1.0000 -0.1943709181
C   C66       1.0  0.30290  0.77990  0.23840  1.0000 -0.2512094082
C   C67       1.0  0.19950  0.88770  0.82980  1.0000 0.0870974509
C   C68       1.0  0.40150  0.81170  0.00020  1.0000 0.2080088256
C   C69       1.0  0.15840  0.73840  0.96140  1.0000 -0.2231036855
C   C70       1.0  0.11610  0.58350  0.09470  1.0000 0.0372884793
C   C71       1.0  0.24150  0.82890  0.91050  1.0000 0.2037060185
C   C72       1.0  0.32480  0.72260  0.05490  1.0000 -0.24256029
C   C73       1.0  0.53350  0.85150  0.01720  1.0000 0.0846340729
C   C74       1.0  0.00510  0.57130  0.09140  1.0000 -0.1217798499
C   C75       1.0  0.19980  0.68080  0.03630  1.0000 0.1207326279
C   C76       1.0  0.27730  0.96250  0.77280  1.0000 -0.1812802753
C   C77       1.0  0.23430  0.01030  0.69660  1.0000 0.068174927
C   C78       1.0  0.96780  0.41300  0.21110  1.0000 0.2313348575
C   C79       1.0  0.72800  0.96280  0.97570  1.0000 0.068174927
C   C80       1.0  0.04730  0.91890  0.73020  1.0000 0.068174927
C   C81       1.0  0.93010  0.48470  0.14850  1.0000 -0.2231036855
C   C82       1.0  0.60820  0.93080  0.95980  1.0000 -0.1709815526
C   C83       1.0  0.08330  0.86890  0.80800  1.0000 -0.1812802753
C   C84       1.0  0.14920  0.50720  0.15750  1.0000 -0.1304873304
C   C85       1.0  0.07460  0.42260  0.21380  1.0000 -0.2071621495
C   C86       1.0  0.71210  0.85110  0.10450  1.0000 0.0552851184
C   C87       1.0  0.59140  0.81500  0.09160  1.0000 -0.1943709181
C   C88       1.0  0.77990  0.30290  0.26160  1.0000 -0.2512094082
I   I1        1.0  0.80850  0.89350  0.53587  1.0000 -0.4399164693
I   I2        1.0  0.89350  0.80850  0.96413  1.0000 -0.4399164693
I   I3        1.0  0.19150  0.10650  0.46413  1.0000 -0.4399164693
I   I4        1.0  0.10650  0.19150  0.03587  1.0000 -0.4399164693
N   N1        1.0  0.13520  0.63940  0.42890  1.0000 -0.322673239
N   N2        1.0  0.07760  0.21860  0.54660  1.0000 -0.1709815526
N   N3        1.0  0.01200  0.88060  0.17450  1.0000 -0.1812802753
N   N4        1.0  0.63940  0.13520  0.07110  1.0000 -0.322673239
N   N5        1.0  0.21860  0.07760  0.95340  1.0000 -0.1709815526
N   N6        1.0  0.88060  0.01200  0.32550  1.0000 -0.1812802753
N   N7        1.0  0.86480  0.36060  0.57110  1.0000 -0.322673239
N   N8        1.0  0.92240  0.78140  0.45340  1.0000 -0.1709815526
N   N9        1.0  0.98800  0.11940  0.82550  1.0000 -0.1812802753
N   N10       1.0  0.36060  0.86480  0.92890  1.0000 -0.322673239
N   N11       1.0  0.78140  0.92240  0.04660  1.0000 -0.1709815526
N   N12       1.0  0.11940  0.98800  0.67450  1.0000 -0.1812802753
O   O1        1.0  0.67390  0.09950  0.77030  1.0000 -0.1573602782
O   O2        1.0  0.09950  0.67390  0.72970  1.0000 -0.1573602782
O   O3        1.0  0.32610  0.90050  0.22970  1.0000 -0.1573602782
O   O4        1.0  0.90050  0.32610  0.27030  1.0000 -0.1573602782
