# DDEC6 charges by PACMAN v1.1 (https://github.com/mtap-research/PACMAN-charge/)
data_2020[FeIn][rna]3[FSR]1
_chemical_formula_sum              "In2 Fe2 C24 O10"
_cell_length_a       7.21
_cell_length_b       10.9599
_cell_length_c       10.9787
_cell_angle_alpha    90.2996
_cell_angle_beta     108.947
_cell_angle_gamma    109.036

_symmetry_space_group_name_H-M    "P 1"
_symmetry_Int_Tables_number       1

loop_
  _symmetry_equiv_pos_as_xyz
  'x, y, z'

loop_
  _atom_site_type_symbol
  _atom_site_label
  _atom_site_symmetry_multiplicity
  _atom_site_fract_x
  _atom_site_fract_y
  _atom_site_fract_z
  _atom_site_occupancy
  _atom_site_charge
In  In1       1.0  0.50000  0.00000  0.00000  1.0000 1.5625102308
In  In2       1.0  0.00000  0.00000  0.00000  1.0000 1.5448335197
Fe  Fe1       1.0  0.00000  0.50000  0.00000  1.0000 0.2069131669
Fe  Fe2       1.0  0.00000  0.00000  0.50000  1.0000 0.1393817898
C   C1        1.0  0.93988  0.23003  0.09637  1.0000 0.6090902176
C   C2        1.0  0.20707  0.07962  0.79440  1.0000 0.5633114961
C   C3        1.0  0.00038  0.37233  0.12694  1.0000 -0.1094300288
C   C4        1.0  0.15773  0.11821  0.66143  1.0000 -0.0771762829
C   C5        1.0  0.20923  0.46513  0.15831  1.0000 0.0481880765
C   C6        1.0  0.85814  0.44002  0.12448  1.0000 0.0577304325
C   C7        1.0  0.28647  0.13170  0.58204  1.0000 0.0577304325
C   C8        1.0  0.97030  0.14383  0.58996  1.0000 0.0577304325
C   C9        1.0  0.19763  0.59245  0.17924  1.0000 0.0006747222
C   C10       1.0  0.98156  0.57700  0.15842  1.0000 -0.0306998908
C   C11       1.0  0.18053  0.17046  0.46061  1.0000 0.0396650706
C   C12       1.0  0.98579  0.17794  0.46549  1.0000 0.0228137255
C   C13       1.0  0.06012  0.76997  0.90363  1.0000 0.6090902176
C   C14       1.0  0.79293  0.92038  0.20560  1.0000 0.5658113745
C   C15       1.0  0.99962  0.62767  0.87306  1.0000 -0.1094300288
C   C16       1.0  0.84227  0.88179  0.33857  1.0000 -0.0771762829
C   C17       1.0  0.79077  0.53487  0.84169  1.0000 0.0481880765
C   C18       1.0  0.14186  0.55998  0.87552  1.0000 0.0577304325
C   C19       1.0  0.71353  0.86830  0.41796  1.0000 0.0577304325
C   C20       1.0  0.02970  0.85617  0.41004  1.0000 0.0577304325
C   C21       1.0  0.80237  0.40755  0.82076  1.0000 0.0006747222
C   C22       1.0  0.01844  0.42300  0.84158  1.0000 -0.0306998908
C   C23       1.0  0.81947  0.82954  0.53939  1.0000 0.0396650706
C   C24       1.0  0.01421  0.82206  0.53451  1.0000 0.0228137255
O   O1        1.0  0.30320  0.03660  0.07770  1.0000 -0.8685472223
O   O2        1.0  0.75030  0.17960  0.09040  1.0000 -0.550829402
O   O3        1.0  0.37920  0.05900  0.83890  1.0000 -0.5075367007
O   O4        1.0  0.04960  0.06210  0.82920  1.0000 -0.5200420234
O   O5        1.0  0.07500  0.18550  0.08580  1.0000 -0.5200420234
O   O6        1.0  0.69680  0.96340  0.92230  1.0000 -0.8632431838
O   O7        1.0  0.24970  0.82040  0.90960  1.0000 -0.550829402
O   O8        1.0  0.62080  0.94100  0.16110  1.0000 -0.5075367007
O   O9        1.0  0.95040  0.93790  0.17080  1.0000 -0.5200420234
O   O10       1.0  0.92500  0.81450  0.91420  1.0000 -0.5267467115
