# DDEC6 charges by PACMAN v1.1 (https://github.com/mtap-research/PACMAN-charge/)
data_2020[Ni][sql]2[FSR]10
_chemical_formula_sum              "Ni2 H28 C32 N8 O12"
_cell_length_a       6.5605
_cell_length_b       17.9705
_cell_length_c       12.3861
_cell_angle_alpha    90
_cell_angle_beta     117.927
_cell_angle_gamma    90

_symmetry_space_group_name_H-M    "P 1"
_symmetry_Int_Tables_number       1

loop_
  _symmetry_equiv_pos_as_xyz
  'x, y, z'

loop_
  _atom_site_type_symbol
  _atom_site_label
  _atom_site_symmetry_multiplicity
  _atom_site_fract_x
  _atom_site_fract_y
  _atom_site_fract_z
  _atom_site_occupancy
  _atom_site_charge
Ni  Ni1       1.0  0.00000  0.00000  0.00000  1.0000 0.7968248992
Ni  Ni2       1.0  0.00000  0.50000  0.50000  1.0000 0.7968248992
H   H1        1.0  0.32210  0.86960  0.20410  1.0000 0.1286223898
H   H2        1.0  0.51400  0.75950  0.08760  1.0000 0.1408107846
H   H3        1.0  0.31890  0.72900  0.32370  1.0000 0.1286223898
H   H4        1.0  0.66900  0.65790  0.21470  1.0000 0.1286223898
H   H5        1.0  0.66190  0.88570  0.01470  1.0000 0.2974474884
H   H6        1.0  0.60750  0.03680  0.95100  1.0000 0.2974474884
H   H7        1.0  0.56690  0.00530  0.85330  1.0000 0.2725651234
H   H8        1.0  0.67790  0.36960  0.29590  1.0000 0.1286223898
H   H9        1.0  0.48600  0.25950  0.41240  1.0000 0.1408107846
H   H10       1.0  0.68110  0.22900  0.17630  1.0000 0.1286223898
H   H11       1.0  0.33100  0.15790  0.28530  1.0000 0.1286223898
H   H12       1.0  0.33810  0.38570  0.48530  1.0000 0.2974474884
H   H13       1.0  0.39250  0.53680  0.54900  1.0000 0.2974474884
H   H14       1.0  0.43310  0.50530  0.64670  1.0000 0.2725651234
H   H15       1.0  0.67790  0.13040  0.79590  1.0000 0.1286223898
H   H16       1.0  0.48600  0.24050  0.91240  1.0000 0.1408107846
H   H17       1.0  0.68110  0.27100  0.67630  1.0000 0.1286223898
H   H18       1.0  0.33100  0.34210  0.78530  1.0000 0.1286223898
H   H19       1.0  0.33810  0.11430  0.98530  1.0000 0.2974474884
H   H20       1.0  0.39250  0.96320  0.04900  1.0000 0.2974474884
H   H21       1.0  0.43310  0.99470  0.14670  1.0000 0.2725651234
H   H22       1.0  0.32210  0.63040  0.70410  1.0000 0.1286223898
H   H23       1.0  0.51400  0.74050  0.58760  1.0000 0.1408107846
H   H24       1.0  0.31890  0.77100  0.82370  1.0000 0.1286223898
H   H25       1.0  0.66900  0.84210  0.71470  1.0000 0.1286223898
H   H26       1.0  0.66190  0.61430  0.51470  1.0000 0.2974474884
H   H27       1.0  0.60750  0.46320  0.45100  1.0000 0.2974474884
H   H28       1.0  0.56690  0.49470  0.35330  1.0000 0.2725651234
C   C1        1.0  0.16510  0.85970  0.17130  1.0000 -0.0272014015
C   C2        1.0  0.07140  0.79640  0.19990  1.0000 -0.0033942441
C   C3        1.0  0.83130  0.80490  0.12900  1.0000 0.1541349559
C   C4        1.0  0.67270  0.75330  0.13360  1.0000 -0.1771065325
C   C5        1.0  0.16040  0.73520  0.27690  1.0000 -0.1497820795
C   C6        1.0  0.00940  0.68420  0.28240  1.0000 -0.0272014015
C   C7        1.0  0.76730  0.69360  0.21010  1.0000 -0.1001324833
C   C8        1.0  0.10350  0.61880  0.36690  1.0000 0.572561261
C   C9        1.0  0.83490  0.35970  0.32870  1.0000 -0.0272014015
C   C10       1.0  0.92860  0.29640  0.30010  1.0000 -0.0033942441
C   C11       1.0  0.16870  0.30490  0.37100  1.0000 0.1541349559
C   C12       1.0  0.32730  0.25330  0.36640  1.0000 -0.1771065325
C   C13       1.0  0.83960  0.23520  0.22310  1.0000 -0.1497820795
C   C14       1.0  0.99060  0.18420  0.21760  1.0000 -0.0272014015
C   C15       1.0  0.23270  0.19360  0.28990  1.0000 -0.1001324833
C   C16       1.0  0.89650  0.11880  0.13310  1.0000 0.572561261
C   C17       1.0  0.83490  0.14030  0.82870  1.0000 -0.0272014015
C   C18       1.0  0.92860  0.20360  0.80010  1.0000 -0.0033942441
C   C19       1.0  0.16870  0.19510  0.87100  1.0000 0.1541349559
C   C20       1.0  0.32730  0.24670  0.86640  1.0000 -0.1771065325
C   C21       1.0  0.83960  0.26480  0.72310  1.0000 -0.1497820795
C   C22       1.0  0.99060  0.31580  0.71760  1.0000 -0.0272014015
C   C23       1.0  0.23270  0.30640  0.78990  1.0000 -0.1001324833
C   C24       1.0  0.89650  0.38120  0.63310  1.0000 0.572561261
C   C25       1.0  0.16510  0.64030  0.67130  1.0000 -0.0272014015
C   C26       1.0  0.07140  0.70360  0.69990  1.0000 -0.0033942441
C   C27       1.0  0.83130  0.69510  0.62900  1.0000 0.1541349559
C   C28       1.0  0.67270  0.74670  0.63360  1.0000 -0.1771065325
C   C29       1.0  0.16040  0.76480  0.77690  1.0000 -0.1497820795
C   C30       1.0  0.00940  0.81580  0.78240  1.0000 -0.0272014015
C   C31       1.0  0.76730  0.80640  0.71010  1.0000 -0.1001324833
C   C32       1.0  0.10350  0.88120  0.86690  1.0000 0.572561261
N   N1        1.0  0.00130  0.90240  0.09250  1.0000 -0.1593510539
N   N2        1.0  0.79530  0.86860  0.06530  1.0000 -0.1357401603
N   N3        1.0  0.99870  0.40240  0.40750  1.0000 -0.1593510539
N   N4        1.0  0.20470  0.36860  0.43470  1.0000 -0.1357401603
N   N5        1.0  0.99870  0.09760  0.90750  1.0000 -0.1593510539
N   N6        1.0  0.20470  0.13140  0.93470  1.0000 -0.1357401603
N   N7        1.0  0.00130  0.59760  0.59250  1.0000 -0.1593510539
N   N8        1.0  0.79530  0.63140  0.56530  1.0000 -0.1357401603
O   O1        1.0  0.96300  0.56700  0.35610  1.0000 -0.5486977429
O   O2        1.0  0.31460  0.61950  0.44340  1.0000 -0.5697668672
O   O3        1.0  0.64660  0.99950  0.92710  1.0000 -0.6208727539
O   O4        1.0  0.03700  0.06700  0.14390  1.0000 -0.5486977429
O   O5        1.0  0.68540  0.11950  0.05660  1.0000 -0.5697668672
O   O6        1.0  0.35340  0.49950  0.57290  1.0000 -0.6208727539
O   O7        1.0  0.03700  0.43300  0.64390  1.0000 -0.5486977429
O   O8        1.0  0.68540  0.38050  0.55660  1.0000 -0.5697668672
O   O9        1.0  0.35340  0.00050  0.07290  1.0000 -0.6208727539
O   O10       1.0  0.96300  0.93300  0.85610  1.0000 -0.5486977429
O   O11       1.0  0.31460  0.88050  0.94340  1.0000 -0.5697668672
O   O12       1.0  0.64660  0.50050  0.42710  1.0000 -0.6208727539
