# DDEC6 charges by PACMAN v1.1 (https://github.com/mtap-research/PACMAN-charge/)
data_2020[Zn][bbf]3[FSR]2
_chemical_formula_sum              "Zn4 H60 C72 N8 O16"
_cell_length_a       10.5868
_cell_length_b       16.5965
_cell_length_c       12.3099
_cell_angle_alpha    90
_cell_angle_beta     109.279
_cell_angle_gamma    90

_symmetry_space_group_name_H-M    "P 1"
_symmetry_Int_Tables_number       1

loop_
  _symmetry_equiv_pos_as_xyz
  'x, y, z'

loop_
  _atom_site_type_symbol
  _atom_site_label
  _atom_site_symmetry_multiplicity
  _atom_site_fract_x
  _atom_site_fract_y
  _atom_site_fract_z
  _atom_site_occupancy
  _atom_site_charge
Zn  Zn1       1.0  0.30209  0.76301  0.71547  1.0000 0.7431198316
Zn  Zn2       1.0  0.69791  0.26301  0.78453  1.0000 0.7431198316
Zn  Zn3       1.0  0.69791  0.23699  0.28453  1.0000 0.7431198316
Zn  Zn4       1.0  0.30209  0.73699  0.21547  1.0000 0.7431198316
H   H1        1.0  0.46070  0.02640  0.67270  1.0000 0.1205705064
H   H2        1.0  0.13850  0.77800  0.46560  1.0000 0.1205705064
H   H3        1.0  0.93060  0.74130  0.34070  1.0000 0.130299518
H   H4        1.0  0.85090  0.63680  0.60720  1.0000 0.130299518
H   H5        1.0  0.06080  0.67470  0.72510  1.0000 0.1115597203
H   H6        1.0  0.66630  0.70410  0.37210  1.0000 0.130299518
H   H7        1.0  0.73690  0.65180  0.29940  1.0000 0.130299518
H   H8        1.0  0.85630  0.52450  0.43270  1.0000 0.1115597203
H   H9        1.0  0.73350  0.48380  0.33470  1.0000 0.130299518
H   H10       1.0  0.89540  0.38270  0.75940  1.0000 0.1115597203
H   H11       1.0  0.92460  0.47190  0.62490  1.0000 0.130299518
H   H12       1.0  0.56780  0.39920  0.40210  1.0000 0.1471796589
H   H13       1.0  0.54890  0.31050  0.54110  1.0000 0.1115597203
H   H14       1.0  0.66780  0.58990  0.48990  1.0000 0.0913207619
H   H15       1.0  0.58270  0.57310  0.35800  1.0000 0.1115597203
H   H16       1.0  0.53930  0.52640  0.82730  1.0000 0.1205705064
H   H17       1.0  0.86150  0.27800  0.03440  1.0000 0.1205705064
H   H18       1.0  0.06940  0.24130  0.15930  1.0000 0.130299518
H   H19       1.0  0.14910  0.13680  0.89280  1.0000 0.130299518
H   H20       1.0  0.93920  0.17470  0.77490  1.0000 0.1115597203
H   H21       1.0  0.33370  0.20410  0.12790  1.0000 0.130299518
H   H22       1.0  0.26310  0.15180  0.20060  1.0000 0.130299518
H   H23       1.0  0.14370  0.02450  0.06730  1.0000 0.1115597203
H   H24       1.0  0.26650  0.98380  0.16530  1.0000 0.130299518
H   H25       1.0  0.10460  0.88270  0.74060  1.0000 0.1115597203
H   H26       1.0  0.07540  0.97190  0.87510  1.0000 0.130299518
H   H27       1.0  0.43220  0.89920  0.09790  1.0000 0.1471796589
H   H28       1.0  0.45110  0.81050  0.95890  1.0000 0.1115597203
H   H29       1.0  0.33220  0.08990  0.01010  1.0000 0.0913207619
H   H30       1.0  0.41730  0.07310  0.14200  1.0000 0.1008372307
H   H31       1.0  0.53930  0.97360  0.32730  1.0000 0.1205705064
H   H32       1.0  0.86150  0.22200  0.53440  1.0000 0.1205705064
H   H33       1.0  0.06940  0.25870  0.65930  1.0000 0.130299518
H   H34       1.0  0.14910  0.36320  0.39280  1.0000 0.130299518
H   H35       1.0  0.93920  0.32530  0.27490  1.0000 0.1115597203
H   H36       1.0  0.33370  0.29590  0.62790  1.0000 0.130299518
H   H37       1.0  0.26310  0.34820  0.70060  1.0000 0.130299518
H   H38       1.0  0.14370  0.47550  0.56730  1.0000 0.1115597203
H   H39       1.0  0.26650  0.51620  0.66530  1.0000 0.130299518
H   H40       1.0  0.10460  0.61730  0.24060  1.0000 0.1115597203
H   H41       1.0  0.07540  0.52810  0.37510  1.0000 0.130299518
H   H42       1.0  0.43220  0.60080  0.59790  1.0000 0.1471796589
H   H43       1.0  0.45110  0.68950  0.45890  1.0000 0.1115597203
H   H44       1.0  0.33220  0.41010  0.51010  1.0000 0.0913207619
H   H45       1.0  0.41730  0.42690  0.64200  1.0000 0.1008372307
H   H46       1.0  0.46070  0.47360  0.17270  1.0000 0.1205705064
H   H47       1.0  0.13850  0.72200  0.96560  1.0000 0.1205705064
H   H48       1.0  0.93060  0.75870  0.84070  1.0000 0.130299518
H   H49       1.0  0.85090  0.86320  0.10720  1.0000 0.130299518
H   H50       1.0  0.06080  0.82530  0.22510  1.0000 0.1115597203
H   H51       1.0  0.66630  0.79590  0.87210  1.0000 0.130299518
H   H52       1.0  0.73690  0.84820  0.79940  1.0000 0.130299518
H   H53       1.0  0.85630  0.97550  0.93270  1.0000 0.1115597203
H   H54       1.0  0.73350  0.01620  0.83470  1.0000 0.130299518
H   H55       1.0  0.89540  0.11730  0.25940  1.0000 0.1115597203
H   H56       1.0  0.92460  0.02810  0.12490  1.0000 0.130299518
H   H57       1.0  0.56780  0.10080  0.90210  1.0000 0.1471796589
H   H58       1.0  0.54890  0.18950  0.04110  1.0000 0.1115597203
H   H59       1.0  0.66780  0.91010  0.98990  1.0000 0.0913207619
H   H60       1.0  0.58270  0.92690  0.85800  1.0000 0.1008372307
C   C1        1.0  0.44809  0.92991  0.43730  1.0000 -0.035935816
C   C2        1.0  0.42570  0.94567  0.54137  1.0000 -0.0098773801
C   C3        1.0  0.47699  0.01566  0.60267  1.0000 -0.1475699363
C   C4        1.0  0.37806  0.85999  0.36401  1.0000 0.5544738727
C   C5        1.0  0.34850  0.88904  0.59206  1.0000 0.5735498028
C   C6        1.0  0.07969  0.74841  0.49456  1.0000 0.1008372307
C   C7        1.0  0.95531  0.72675  0.41963  1.0000 -0.2194230003
C   C8        1.0  0.86595  0.68382  0.45887  1.0000 0.1856073695
C   C9        1.0  0.90850  0.66529  0.57571  1.0000 -0.2141910312
C   C10       1.0  0.03404  0.68828  0.64578  1.0000 0.0708728446
C   C11       1.0  0.73011  0.65951  0.37708  1.0000 -0.2610809473
C   C12       1.0  0.76151  0.50787  0.41263  1.0000 -0.2610809473
C   C13       1.0  0.82832  0.38625  0.68585  1.0000 0.0913207619
C   C14       1.0  0.84616  0.43968  0.60602  1.0000 -0.2141910312
C   C15       1.0  0.74875  0.44620  0.49770  1.0000 0.1802851739
C   C16       1.0  0.63650  0.39679  0.47481  1.0000 -0.2015606505
C   C17       1.0  0.62549  0.34425  0.55828  1.0000 0.0913207619
C   C18       1.0  0.67421  0.58253  0.41208  1.0000 -0.1325243121
C   C19       1.0  0.55191  0.42991  0.06270  1.0000 -0.035935816
C   C20       1.0  0.57430  0.44567  0.95863  1.0000 -0.0098773801
C   C21       1.0  0.52301  0.51566  0.89733  1.0000 -0.1475699363
C   C22       1.0  0.62194  0.35999  0.13599  1.0000 0.5544738727
C   C23       1.0  0.65150  0.38904  0.90794  1.0000 0.5735498028
C   C24       1.0  0.92031  0.24841  0.00544  1.0000 0.1008372307
C   C25       1.0  0.04469  0.22675  0.08037  1.0000 -0.2194230003
C   C26       1.0  0.13405  0.18382  0.04113  1.0000 0.1856073695
C   C27       1.0  0.09150  0.16529  0.92429  1.0000 -0.2141910312
C   C28       1.0  0.96596  0.18828  0.85422  1.0000 0.0708728446
C   C29       1.0  0.26989  0.15951  0.12292  1.0000 -0.2610809473
C   C30       1.0  0.23849  0.00787  0.08737  1.0000 -0.2610809473
C   C31       1.0  0.17168  0.88625  0.81415  1.0000 0.0913207619
C   C32       1.0  0.15384  0.93968  0.89398  1.0000 -0.2141910312
C   C33       1.0  0.25125  0.94620  0.00230  1.0000 0.1802851739
C   C34       1.0  0.36350  0.89679  0.02519  1.0000 -0.2015606505
C   C35       1.0  0.37451  0.84425  0.94172  1.0000 0.0913207619
C   C36       1.0  0.32579  0.08253  0.08792  1.0000 -0.1325243121
C   C37       1.0  0.55191  0.07009  0.56270  1.0000 -0.035935816
C   C38       1.0  0.57430  0.05433  0.45863  1.0000 -0.0098773801
C   C39       1.0  0.52301  0.98434  0.39733  1.0000 -0.1475699363
C   C40       1.0  0.62194  0.14001  0.63599  1.0000 0.5544738727
C   C41       1.0  0.65150  0.11096  0.40794  1.0000 0.5735498028
C   C42       1.0  0.92031  0.25159  0.50544  1.0000 0.1008372307
C   C43       1.0  0.04469  0.27325  0.58037  1.0000 -0.2194230003
C   C44       1.0  0.13405  0.31618  0.54113  1.0000 0.1856073695
C   C45       1.0  0.09150  0.33471  0.42429  1.0000 -0.2141910312
C   C46       1.0  0.96596  0.31172  0.35422  1.0000 0.0708728446
C   C47       1.0  0.26989  0.34049  0.62292  1.0000 -0.2610809473
C   C48       1.0  0.23849  0.49213  0.58737  1.0000 -0.2610809473
C   C49       1.0  0.17168  0.61375  0.31415  1.0000 0.0913207619
C   C50       1.0  0.15384  0.56032  0.39398  1.0000 -0.2141910312
C   C51       1.0  0.25125  0.55380  0.50230  1.0000 0.1802851739
C   C52       1.0  0.36350  0.60321  0.52519  1.0000 -0.2015606505
C   C53       1.0  0.37451  0.65575  0.44172  1.0000 0.0913207619
C   C54       1.0  0.32579  0.41747  0.58792  1.0000 -0.1325243121
C   C55       1.0  0.44809  0.57009  0.93730  1.0000 -0.035935816
C   C56       1.0  0.42570  0.55433  0.04137  1.0000 -0.0098773801
C   C57       1.0  0.47699  0.48434  0.10267  1.0000 -0.1475699363
C   C58       1.0  0.37806  0.64001  0.86401  1.0000 0.5544738727
C   C59       1.0  0.34850  0.61096  0.09206  1.0000 0.5735498028
C   C60       1.0  0.07969  0.75159  0.99456  1.0000 0.1008372307
C   C61       1.0  0.95531  0.77325  0.91963  1.0000 -0.2194230003
C   C62       1.0  0.86595  0.81618  0.95887  1.0000 0.1856073695
C   C63       1.0  0.90850  0.83471  0.07571  1.0000 -0.2141910312
C   C64       1.0  0.03404  0.81172  0.14578  1.0000 0.0708728446
C   C65       1.0  0.73011  0.84049  0.87708  1.0000 -0.2610809473
C   C66       1.0  0.76151  0.99213  0.91263  1.0000 -0.2610809473
C   C67       1.0  0.82832  0.11375  0.18585  1.0000 0.0913207619
C   C68       1.0  0.84616  0.06032  0.10602  1.0000 -0.2141910312
C   C69       1.0  0.74875  0.05380  0.99770  1.0000 0.1802851739
C   C70       1.0  0.63650  0.10321  0.97481  1.0000 -0.2015606505
C   C71       1.0  0.62549  0.15575  0.05828  1.0000 0.0913207619
C   C72       1.0  0.67421  0.91747  0.91208  1.0000 -0.1325243121
N   N1        1.0  0.12058  0.72906  0.60716  1.0000 -0.2506187303
N   N2        1.0  0.71938  0.33909  0.66320  1.0000 -0.2402198208
N   N3        1.0  0.87942  0.22906  0.89284  1.0000 -0.2506187303
N   N4        1.0  0.28062  0.83909  0.83680  1.0000 -0.2402198208
N   N5        1.0  0.87942  0.27094  0.39284  1.0000 -0.2506187303
N   N6        1.0  0.28062  0.66091  0.33680  1.0000 -0.2402198208
N   N7        1.0  0.12058  0.77094  0.10716  1.0000 -0.2506187303
N   N8        1.0  0.71938  0.16091  0.16320  1.0000 -0.2402198208
O   O1        1.0  0.40390  0.82056  0.62835  1.0000 -0.560958807
O   O2        1.0  0.24149  0.91121  0.60151  1.0000 -0.5511168383
O   O3        1.0  0.43180  0.82512  0.29694  1.0000 -0.5511168383
O   O4        1.0  0.26697  0.84031  0.36899  1.0000 -0.5511168383
O   O5        1.0  0.59610  0.32056  0.87165  1.0000 -0.560958807
O   O6        1.0  0.75851  0.41121  0.89849  1.0000 -0.5511168383
O   O7        1.0  0.56820  0.32512  0.20306  1.0000 -0.5511168383
O   O8        1.0  0.73303  0.34031  0.13101  1.0000 -0.5511168383
O   O9        1.0  0.59610  0.17944  0.37165  1.0000 -0.560958807
O   O10       1.0  0.75851  0.08879  0.39849  1.0000 -0.5511168383
O   O11       1.0  0.56820  0.17488  0.70306  1.0000 -0.5511168383
O   O12       1.0  0.73303  0.15969  0.63101  1.0000 -0.5511168383
O   O13       1.0  0.40390  0.67944  0.12835  1.0000 -0.560958807
O   O14       1.0  0.24149  0.58879  0.10151  1.0000 -0.5511168383
O   O15       1.0  0.43180  0.67488  0.79694  1.0000 -0.5511168383
O   O16       1.0  0.26697  0.65969  0.86899  1.0000 -0.5511168383
