# DDEC6 charges by PACMAN v1.1 (https://github.com/mtap-research/PACMAN-charge/)
data_2020[Co][nan]2[FSR]8
_chemical_formula_sum              "Co4 H36 C52 N8 O16"
_cell_length_a       11.209
_cell_length_b       7.794
_cell_length_c       15.876
_cell_angle_alpha    90
_cell_angle_beta     104.73
_cell_angle_gamma    90

_symmetry_space_group_name_H-M    "P 1"
_symmetry_Int_Tables_number       1

loop_
  _symmetry_equiv_pos_as_xyz
  'x, y, z'

loop_
  _atom_site_type_symbol
  _atom_site_label
  _atom_site_symmetry_multiplicity
  _atom_site_fract_x
  _atom_site_fract_y
  _atom_site_fract_z
  _atom_site_occupancy
  _atom_site_charge
Co  Co1       1.0  0.20754  0.98495  0.31268  1.0000 0.8025138162
Co  Co2       1.0  0.79246  0.48495  0.18732  1.0000 0.8025138162
Co  Co3       1.0  0.79246  0.01505  0.68732  1.0000 0.8025138162
Co  Co4       1.0  0.20754  0.51505  0.81268  1.0000 0.8025138162
H   H1        1.0  0.00689  0.03035  0.36130  1.0000 0.3121685169
H   H2        1.0  0.00028  0.14549  0.28939  1.0000 0.3121685169
H   H3        1.0  0.18991  0.60836  0.55421  1.0000 0.1212714942
H   H4        1.0  0.09522  0.42423  0.30943  1.0000 0.1388014245
H   H5        1.0  0.07825  0.11702  0.50902  1.0000 0.1388014245
H   H6        1.0  0.36166  0.28120  0.28063  1.0000 0.1212714942
H   H7        1.0  0.46081  0.50868  0.35406  1.0000 0.1388014245
H   H8        1.0  0.46834  0.26867  0.57582  1.0000 0.1388014245
H   H9        1.0  0.36034  0.05156  0.49658  1.0000 0.1212714942
H   H10       1.0  0.99311  0.53035  0.13870  1.0000 0.3121685169
H   H11       1.0  0.99972  0.64549  0.21061  1.0000 0.3121685169
H   H12       1.0  0.81009  0.10836  0.94579  1.0000 0.1212714942
H   H13       1.0  0.90478  0.92423  0.19057  1.0000 0.1388014245
H   H14       1.0  0.92175  0.61702  0.99098  1.0000 0.1388014245
H   H15       1.0  0.63834  0.78120  0.21937  1.0000 0.1212714942
H   H16       1.0  0.53919  0.00868  0.14594  1.0000 0.1388014245
H   H17       1.0  0.53166  0.76867  0.92418  1.0000 0.1388014245
H   H18       1.0  0.63966  0.55156  0.00342  1.0000 0.1212714942
H   H19       1.0  0.99311  0.96965  0.63870  1.0000 0.3121685169
H   H20       1.0  0.99972  0.85451  0.71061  1.0000 0.3121685169
H   H21       1.0  0.81009  0.39164  0.44579  1.0000 0.1212714942
H   H22       1.0  0.90478  0.57577  0.69057  1.0000 0.1388014245
H   H23       1.0  0.92175  0.88298  0.49098  1.0000 0.1388014245
H   H24       1.0  0.63834  0.71880  0.71937  1.0000 0.1212714942
H   H25       1.0  0.53919  0.49132  0.64594  1.0000 0.1388014245
H   H26       1.0  0.53166  0.73133  0.42418  1.0000 0.1388014245
H   H27       1.0  0.63966  0.94844  0.50342  1.0000 0.1212714942
H   H28       1.0  0.00689  0.46965  0.86130  1.0000 0.3121685169
H   H29       1.0  0.00028  0.35451  0.78939  1.0000 0.3121685169
H   H30       1.0  0.18991  0.89164  0.05421  1.0000 0.1212714942
H   H31       1.0  0.09522  0.07577  0.80943  1.0000 0.1388014245
H   H32       1.0  0.07825  0.38298  0.00902  1.0000 0.1388014245
H   H33       1.0  0.36166  0.21880  0.78063  1.0000 0.1212714942
H   H34       1.0  0.46081  0.99132  0.85406  1.0000 0.1388014245
H   H35       1.0  0.46834  0.23133  0.07582  1.0000 0.1388014245
H   H36       1.0  0.36034  0.44844  0.99658  1.0000 0.1212714942
C   C1        1.0  0.15470  0.33090  0.64330  1.0000 0.544518613
C   C2        1.0  0.13790  0.35740  0.54660  1.0000 -0.010574152
C   C3        1.0  0.16320  0.51830  0.51560  1.0000 -0.1403359987
C   C4        1.0  0.14790  0.54250  0.42610  1.0000 -0.0240162231
C   C5        1.0  0.17460  0.71180  0.39260  1.0000 0.5336326889
C   C6        1.0  0.10680  0.40730  0.36900  1.0000 -0.1998633716
C   C7        1.0  0.08310  0.24860  0.39920  1.0000 0.2592709146
C   C8        1.0  0.09670  0.22300  0.48860  1.0000 -0.1998633716
C   C9        1.0  0.37970  0.28020  0.34110  1.0000 0.0803574088
C   C10       1.0  0.43980  0.41750  0.38520  1.0000 -0.1716928699
C   C11       1.0  0.47030  0.42490  0.47480  1.0000 0.114490845
C   C12       1.0  0.44340  0.27780  0.51550  1.0000 -0.1801915534
C   C13       1.0  0.38020  0.14600  0.46700  1.0000 0.0803574088
C   C14       1.0  0.84530  0.83090  0.85670  1.0000 0.544518613
C   C15       1.0  0.86210  0.85740  0.95340  1.0000 -0.010574152
C   C16       1.0  0.83680  0.01830  0.98440  1.0000 -0.1403359987
C   C17       1.0  0.85210  0.04250  0.07390  1.0000 -0.0240162231
C   C18       1.0  0.82540  0.21180  0.10740  1.0000 0.5336326889
C   C19       1.0  0.89320  0.90730  0.13100  1.0000 -0.1998633716
C   C20       1.0  0.91690  0.74860  0.10080  1.0000 0.2592709146
C   C21       1.0  0.90330  0.72300  0.01140  1.0000 -0.1998633716
C   C22       1.0  0.62030  0.78020  0.15890  1.0000 0.0803574088
C   C23       1.0  0.56020  0.91750  0.11480  1.0000 -0.1716928699
C   C24       1.0  0.52970  0.92490  0.02520  1.0000 0.114490845
C   C25       1.0  0.55660  0.77780  0.98450  1.0000 -0.1801915534
C   C26       1.0  0.61980  0.64600  0.03300  1.0000 0.0803574088
C   C27       1.0  0.84530  0.66910  0.35670  1.0000 0.544518613
C   C28       1.0  0.86210  0.64260  0.45340  1.0000 -0.010574152
C   C29       1.0  0.83680  0.48170  0.48440  1.0000 -0.1403359987
C   C30       1.0  0.85210  0.45750  0.57390  1.0000 -0.0240162231
C   C31       1.0  0.82540  0.28820  0.60740  1.0000 0.5336326889
C   C32       1.0  0.89320  0.59270  0.63100  1.0000 -0.1998633716
C   C33       1.0  0.91690  0.75140  0.60080  1.0000 0.2592709146
C   C34       1.0  0.90330  0.77700  0.51140  1.0000 -0.1998633716
C   C35       1.0  0.62030  0.71980  0.65890  1.0000 0.0803574088
C   C36       1.0  0.56020  0.58250  0.61480  1.0000 -0.1716928699
C   C37       1.0  0.52970  0.57510  0.52520  1.0000 0.114490845
C   C38       1.0  0.55660  0.72220  0.48450  1.0000 -0.1801915534
C   C39       1.0  0.61980  0.85400  0.53300  1.0000 0.0803574088
C   C40       1.0  0.15470  0.16910  0.14330  1.0000 0.544518613
C   C41       1.0  0.13790  0.14260  0.04660  1.0000 -0.010574152
C   C42       1.0  0.16320  0.98170  0.01560  1.0000 -0.1403359987
C   C43       1.0  0.14790  0.95750  0.92610  1.0000 -0.0240162231
C   C44       1.0  0.17460  0.78820  0.89260  1.0000 0.5336326889
C   C45       1.0  0.10680  0.09270  0.86900  1.0000 -0.1998633716
C   C46       1.0  0.08310  0.25140  0.89920  1.0000 0.2592709146
C   C47       1.0  0.09670  0.27700  0.98860  1.0000 -0.1998633716
C   C48       1.0  0.37970  0.21980  0.84110  1.0000 0.0803574088
C   C49       1.0  0.43980  0.08250  0.88520  1.0000 -0.1716928699
C   C50       1.0  0.47030  0.07510  0.97480  1.0000 0.114490845
C   C51       1.0  0.44340  0.22220  0.01550  1.0000 -0.1801915534
C   C52       1.0  0.38020  0.35400  0.96700  1.0000 0.0803574088
N   N1        1.0  0.04920  0.10720  0.33910  1.0000 -0.5909042575
N   N2        1.0  0.34520  0.14380  0.38030  1.0000 -0.2552529715
N   N3        1.0  0.95080  0.60720  0.16090  1.0000 -0.5909042575
N   N4        1.0  0.65480  0.64380  0.11970  1.0000 -0.2552529715
N   N5        1.0  0.95080  0.89280  0.66090  1.0000 -0.5909042575
N   N6        1.0  0.65480  0.85620  0.61970  1.0000 -0.2552529715
N   N7        1.0  0.04920  0.39280  0.83910  1.0000 -0.5909042575
N   N8        1.0  0.34520  0.35620  0.88030  1.0000 -0.2552529715
O   O1        1.0  0.19520  0.45920  0.69060  1.0000 -0.5667526938
O   O2        1.0  0.12920  0.18960  0.66970  1.0000 -0.5520131804
O   O3        1.0  0.21490  0.83430  0.44280  1.0000 -0.5410587259
O   O4        1.0  0.15790  0.73450  0.31050  1.0000 -0.5259795405
O   O5        1.0  0.80480  0.95920  0.80940  1.0000 -0.5667526938
O   O6        1.0  0.87080  0.68960  0.83030  1.0000 -0.5520131804
O   O7        1.0  0.78510  0.33430  0.05720  1.0000 -0.5410587259
O   O8        1.0  0.84210  0.23450  0.18950  1.0000 -0.5259795405
O   O9        1.0  0.80480  0.54080  0.30940  1.0000 -0.5667526938
O   O10       1.0  0.87080  0.81040  0.33030  1.0000 -0.5520131804
O   O11       1.0  0.78510  0.16570  0.55720  1.0000 -0.5410587259
O   O12       1.0  0.84210  0.26550  0.68950  1.0000 -0.5259795405
O   O13       1.0  0.19520  0.04080  0.19060  1.0000 -0.5667526938
O   O14       1.0  0.12920  0.31040  0.16970  1.0000 -0.5520131804
O   O15       1.0  0.21490  0.66570  0.94280  1.0000 -0.5410587259
O   O16       1.0  0.15790  0.76550  0.81050  1.0000 -0.5259795405
