# DDEC6 charges by PACMAN v1.1 (https://github.com/mtap-research/PACMAN-charge/)
data_2020[Zn][pcu]3[FSR]13
_chemical_formula_sum              "Zn4 H72 C100 N16 O20"
_cell_length_a       10.755
_cell_length_b       21.0445
_cell_length_c       11.9923
_cell_angle_alpha    90
_cell_angle_beta     99.79
_cell_angle_gamma    90

_symmetry_space_group_name_H-M    "P 1"
_symmetry_Int_Tables_number       1

loop_
  _symmetry_equiv_pos_as_xyz
  'x, y, z'

loop_
  _atom_site_type_symbol
  _atom_site_label
  _atom_site_symmetry_multiplicity
  _atom_site_fract_x
  _atom_site_fract_y
  _atom_site_fract_z
  _atom_site_occupancy
  _atom_site_charge
Zn  Zn1       1.0  0.42865  0.94179  0.09174  1.0000 0.8193218337
Zn  Zn2       1.0  0.57135  0.44179  0.40826  1.0000 0.8193218337
Zn  Zn3       1.0  0.57135  0.05821  0.90826  1.0000 0.8193218337
Zn  Zn4       1.0  0.42865  0.55821  0.59174  1.0000 0.8193218337
H   H1        1.0  0.68930  0.88810  0.21240  1.0000 0.11112839
H   H2        1.0  0.46500  0.01830  0.30470  1.0000 0.11112839
H   H3        1.0  0.83400  0.90040  0.37860  1.0000 0.1412681467
H   H4        1.0  0.60030  0.03440  0.47330  1.0000 0.1412681467
H   H5        1.0  0.16720  0.90860  0.68930  1.0000 0.1473192201
H   H6        1.0  0.01630  0.02900  0.89540  1.0000 0.1412681467
H   H7        1.0  0.33960  0.89710  0.83320  1.0000 0.11112839
H   H8        1.0  0.18890  0.01040  0.03420  1.0000 0.0990079183
H   H9        1.0  0.12660  0.79750  0.10180  1.0000 0.1239852161
H   H10       1.0  0.14830  0.88520  0.40480  1.0000 0.11112839
H   H11       1.0  0.97450  0.72870  0.14980  1.0000 0.11112839
H   H12       1.0  0.00520  0.81280  0.45650  1.0000 0.11112839
H   H13       1.0  0.90050  0.64760  0.23410  1.0000 0.11112839
H   H14       1.0  0.81190  0.78010  0.45250  1.0000 0.11112839
H   H15       1.0  0.74890  0.57970  0.28560  1.0000 0.11112839
H   H16       1.0  0.66550  0.71080  0.50870  1.0000 0.1239852161
H   H17       1.0  0.77140  0.00560  0.59560  1.0000 0.2889696678
H   H18       1.0  0.91340  0.01260  0.72060  1.0000 0.2889696678
H   H19       1.0  0.31070  0.38810  0.28760  1.0000 0.11112839
H   H20       1.0  0.53500  0.51830  0.19530  1.0000 0.11112839
H   H21       1.0  0.16600  0.40040  0.12140  1.0000 0.1412681467
H   H22       1.0  0.39970  0.53440  0.02670  1.0000 0.1412681467
H   H23       1.0  0.83280  0.40860  0.81070  1.0000 0.1473192201
H   H24       1.0  0.98370  0.52900  0.60460  1.0000 0.1412681467
H   H25       1.0  0.66040  0.39710  0.66680  1.0000 0.11112839
H   H26       1.0  0.81110  0.51040  0.46580  1.0000 0.0990079183
H   H27       1.0  0.87340  0.29750  0.39820  1.0000 0.1239852161
H   H28       1.0  0.85170  0.38520  0.09520  1.0000 0.11112839
H   H29       1.0  0.02550  0.22870  0.35020  1.0000 0.11112839
H   H30       1.0  0.99480  0.31280  0.04350  1.0000 0.11112839
H   H31       1.0  0.09950  0.14760  0.26590  1.0000 0.11112839
H   H32       1.0  0.18810  0.28010  0.04750  1.0000 0.11112839
H   H33       1.0  0.25110  0.07970  0.21440  1.0000 0.11112839
H   H34       1.0  0.33450  0.21080  0.99130  1.0000 0.1239852161
H   H35       1.0  0.22860  0.50560  0.90440  1.0000 0.2889696678
H   H36       1.0  0.08660  0.51260  0.77940  1.0000 0.2889696678
H   H37       1.0  0.31070  0.11190  0.78760  1.0000 0.11112839
H   H38       1.0  0.53500  0.98170  0.69530  1.0000 0.11112839
H   H39       1.0  0.16600  0.09960  0.62140  1.0000 0.1412681467
H   H40       1.0  0.39970  0.96560  0.52670  1.0000 0.1412681467
H   H41       1.0  0.83280  0.09140  0.31070  1.0000 0.1473192201
H   H42       1.0  0.98370  0.97100  0.10460  1.0000 0.1412681467
H   H43       1.0  0.66040  0.10290  0.16680  1.0000 0.11112839
H   H44       1.0  0.81110  0.98960  0.96580  1.0000 0.0990079183
H   H45       1.0  0.87340  0.20250  0.89820  1.0000 0.1239852161
H   H46       1.0  0.85170  0.11480  0.59520  1.0000 0.11112839
H   H47       1.0  0.02550  0.27130  0.85020  1.0000 0.11112839
H   H48       1.0  0.99480  0.18720  0.54350  1.0000 0.11112839
H   H49       1.0  0.09950  0.35240  0.76590  1.0000 0.11112839
H   H50       1.0  0.18810  0.21990  0.54750  1.0000 0.11112839
H   H51       1.0  0.25110  0.42030  0.71440  1.0000 0.11112839
H   H52       1.0  0.33450  0.28920  0.49130  1.0000 0.1239852161
H   H53       1.0  0.22860  0.99440  0.40440  1.0000 0.2889696678
H   H54       1.0  0.08660  0.98740  0.27940  1.0000 0.2889696678
H   H55       1.0  0.68930  0.61190  0.71240  1.0000 0.11112839
H   H56       1.0  0.46500  0.48170  0.80470  1.0000 0.11112839
H   H57       1.0  0.83400  0.59960  0.87860  1.0000 0.1412681467
H   H58       1.0  0.60030  0.46560  0.97330  1.0000 0.1412681467
H   H59       1.0  0.16720  0.59140  0.18930  1.0000 0.1473192201
H   H60       1.0  0.01630  0.47100  0.39540  1.0000 0.1412681467
H   H61       1.0  0.33960  0.60290  0.33320  1.0000 0.11112839
H   H62       1.0  0.18890  0.48960  0.53420  1.0000 0.0990079183
H   H63       1.0  0.12660  0.70250  0.60180  1.0000 0.1239852161
H   H64       1.0  0.14830  0.61480  0.90480  1.0000 0.11112839
H   H65       1.0  0.97450  0.77130  0.64980  1.0000 0.11112839
H   H66       1.0  0.00520  0.68720  0.95650  1.0000 0.11112839
H   H67       1.0  0.90050  0.85240  0.73410  1.0000 0.11112839
H   H68       1.0  0.81190  0.71990  0.95250  1.0000 0.11112839
H   H69       1.0  0.74890  0.92030  0.78560  1.0000 0.11112839
H   H70       1.0  0.66550  0.78920  0.00870  1.0000 0.1239852161
H   H71       1.0  0.77140  0.49440  0.09560  1.0000 0.2889696678
H   H72       1.0  0.91340  0.48740  0.22060  1.0000 0.2889696678
C   C1        1.0  0.67112  0.91798  0.26673  1.0000 0.0990079183
C   C2        1.0  0.54008  0.99376  0.32036  1.0000 0.0898682141
C   C3        1.0  0.75846  0.92476  0.36587  1.0000 -0.2514525775
C   C4        1.0  0.62044  0.00371  0.42108  1.0000 -0.2694192006
C   C5        1.0  0.73143  0.96851  0.44614  1.0000 0.2889696678
C   C6        1.0  0.92410  0.95772  0.59373  1.0000 0.6155969129
C   C7        1.0  0.07175  0.97052  0.77620  1.0000 0.2889696678
C   C8        1.0  0.17001  0.93059  0.75890  1.0000 -0.2446073069
C   C9        1.0  0.08107  0.00106  0.88098  1.0000 -0.2694192006
C   C10       1.0  0.27214  0.92375  0.84592  1.0000 0.0990079183
C   C11       1.0  0.18501  0.99023  0.96283  1.0000 0.0898682141
C   C12       1.0  0.24735  0.89485  0.21666  1.0000 0.5544662104
C   C13       1.0  0.15288  0.84856  0.24822  1.0000 -0.0375437326
C   C14       1.0  0.10057  0.80143  0.17332  1.0000 -0.0989899038
C   C15       1.0  0.11449  0.85282  0.35326  1.0000 -0.1069122924
C   C16       1.0  0.01050  0.76009  0.20247  1.0000 -0.1413627862
C   C17       1.0  0.02744  0.81029  0.38323  1.0000 -0.1413627862
C   C18       1.0  0.97186  0.76388  0.30782  1.0000 0.0715971516
C   C19       1.0  0.87447  0.72059  0.33924  1.0000 0.0820418262
C   C20       1.0  0.85296  0.66079  0.28998  1.0000 -0.1499360985
C   C21       1.0  0.80111  0.73888  0.41982  1.0000 -0.1499360985
C   C22       1.0  0.76310  0.62002  0.32119  1.0000 -0.1069122924
C   C23       1.0  0.71299  0.69784  0.45267  1.0000 -0.0989899038
C   C24       1.0  0.69381  0.63774  0.40395  1.0000 -0.0375437326
C   C25       1.0  0.60101  0.59266  0.44139  1.0000 0.5615531729
C   C26       1.0  0.32888  0.41798  0.23327  1.0000 0.0990079183
C   C27       1.0  0.45992  0.49376  0.17964  1.0000 0.0898682141
C   C28       1.0  0.24154  0.42476  0.13413  1.0000 -0.2514525775
C   C29       1.0  0.37956  0.50371  0.07892  1.0000 -0.2694192006
C   C30       1.0  0.26857  0.46851  0.05386  1.0000 0.2889696678
C   C31       1.0  0.07590  0.45772  0.90627  1.0000 0.6147272812
C   C32       1.0  0.92825  0.47052  0.72380  1.0000 0.2889696678
C   C33       1.0  0.82999  0.43059  0.74110  1.0000 -0.2446073069
C   C34       1.0  0.91893  0.50106  0.61902  1.0000 -0.2694192006
C   C35       1.0  0.72786  0.42375  0.65408  1.0000 0.0990079183
C   C36       1.0  0.81499  0.49023  0.53717  1.0000 0.0898682141
C   C37       1.0  0.75265  0.39485  0.28334  1.0000 0.5544662104
C   C38       1.0  0.84712  0.34856  0.25178  1.0000 -0.0375437326
C   C39       1.0  0.89943  0.30143  0.32668  1.0000 -0.0989899038
C   C40       1.0  0.88551  0.35282  0.14674  1.0000 -0.1069122924
C   C41       1.0  0.98950  0.26009  0.29753  1.0000 -0.1413627862
C   C42       1.0  0.97256  0.31029  0.11677  1.0000 -0.1413627862
C   C43       1.0  0.02814  0.26388  0.19218  1.0000 0.0715971516
C   C44       1.0  0.12553  0.22059  0.16076  1.0000 0.0820418262
C   C45       1.0  0.14704  0.16079  0.21002  1.0000 -0.1499360985
C   C46       1.0  0.19889  0.23888  0.08018  1.0000 -0.1499360985
C   C47       1.0  0.23690  0.12002  0.17881  1.0000 -0.1069122924
C   C48       1.0  0.28701  0.19784  0.04733  1.0000 -0.0989899038
C   C49       1.0  0.30619  0.13774  0.09605  1.0000 -0.0375437326
C   C50       1.0  0.39899  0.09266  0.05861  1.0000 0.5615531729
C   C51       1.0  0.32888  0.08202  0.73327  1.0000 0.0990079183
C   C52       1.0  0.45992  0.00624  0.67964  1.0000 0.0898682141
C   C53       1.0  0.24154  0.07524  0.63413  1.0000 -0.2514525775
C   C54       1.0  0.37956  0.99629  0.57892  1.0000 -0.2694192006
C   C55       1.0  0.26857  0.03149  0.55386  1.0000 0.2889696678
C   C56       1.0  0.07590  0.04228  0.40627  1.0000 0.6147272812
C   C57       1.0  0.92825  0.02948  0.22380  1.0000 0.2889696678
C   C58       1.0  0.82999  0.06941  0.24110  1.0000 -0.2446073069
C   C59       1.0  0.91893  0.99894  0.11902  1.0000 -0.2694192006
C   C60       1.0  0.72786  0.07625  0.15408  1.0000 0.0990079183
C   C61       1.0  0.81499  0.00977  0.03717  1.0000 0.0898682141
C   C62       1.0  0.75265  0.10515  0.78334  1.0000 0.5544662104
C   C63       1.0  0.84712  0.15144  0.75178  1.0000 -0.0375437326
C   C64       1.0  0.89943  0.19857  0.82668  1.0000 -0.0989899038
C   C65       1.0  0.88551  0.14718  0.64674  1.0000 -0.1069122924
C   C66       1.0  0.98950  0.23991  0.79753  1.0000 -0.1413627862
C   C67       1.0  0.97256  0.18971  0.61677  1.0000 -0.1413627862
C   C68       1.0  0.02814  0.23612  0.69218  1.0000 0.0715971516
C   C69       1.0  0.12553  0.27941  0.66076  1.0000 0.0820418262
C   C70       1.0  0.14704  0.33921  0.71002  1.0000 -0.1499360985
C   C71       1.0  0.19889  0.26112  0.58018  1.0000 -0.1499360985
C   C72       1.0  0.23690  0.37998  0.67881  1.0000 -0.1069122924
C   C73       1.0  0.28701  0.30216  0.54733  1.0000 -0.0989899038
C   C74       1.0  0.30619  0.36226  0.59605  1.0000 -0.0375437326
C   C75       1.0  0.39899  0.40734  0.55861  1.0000 0.5615531729
C   C76       1.0  0.67112  0.58202  0.76673  1.0000 0.0990079183
C   C77       1.0  0.54008  0.50624  0.82036  1.0000 0.0898682141
C   C78       1.0  0.75846  0.57524  0.86587  1.0000 -0.2514525775
C   C79       1.0  0.62044  0.49629  0.92108  1.0000 -0.2694192006
C   C80       1.0  0.73143  0.53149  0.94614  1.0000 0.2889696678
C   C81       1.0  0.92410  0.54228  0.09373  1.0000 0.6155969129
C   C82       1.0  0.07175  0.52948  0.27620  1.0000 0.2889696678
C   C83       1.0  0.17001  0.56941  0.25890  1.0000 -0.2446073069
C   C84       1.0  0.08107  0.49894  0.38098  1.0000 -0.2694192006
C   C85       1.0  0.27214  0.57625  0.34592  1.0000 0.0990079183
C   C86       1.0  0.18501  0.50977  0.46283  1.0000 0.0898682141
C   C87       1.0  0.24735  0.60515  0.71666  1.0000 0.5544662104
C   C88       1.0  0.15288  0.65144  0.74822  1.0000 -0.0375437326
C   C89       1.0  0.10057  0.69857  0.67332  1.0000 -0.0989899038
C   C90       1.0  0.11449  0.64718  0.85326  1.0000 -0.1069122924
C   C91       1.0  0.01050  0.73991  0.70247  1.0000 -0.1413627862
C   C92       1.0  0.02744  0.68971  0.88323  1.0000 -0.1413627862
C   C93       1.0  0.97186  0.73612  0.80782  1.0000 0.0715971516
C   C94       1.0  0.87447  0.77941  0.83924  1.0000 0.0820418262
C   C95       1.0  0.85296  0.83921  0.78998  1.0000 -0.1499360985
C   C96       1.0  0.80111  0.76112  0.91982  1.0000 -0.1499360985
C   C97       1.0  0.76310  0.87998  0.82119  1.0000 -0.1069122924
C   C98       1.0  0.71299  0.80216  0.95267  1.0000 -0.0989899038
C   C99       1.0  0.69381  0.86226  0.90395  1.0000 -0.0375437326
C   C100      1.0  0.60101  0.90734  0.94139  1.0000 0.5615531729
N   N1        1.0  0.56291  0.95080  0.24271  1.0000 -0.2514525775
N   N2        1.0  0.80512  0.98023  0.55057  1.0000 -0.4176680668
N   N3        1.0  0.96365  0.98372  0.69924  1.0000 -0.4176680668
N   N4        1.0  0.28149  0.95249  0.94702  1.0000 -0.2514525775
N   N5        1.0  0.43709  0.45080  0.25729  1.0000 -0.2514525775
N   N6        1.0  0.19488  0.48023  0.94943  1.0000 -0.4176680668
N   N7        1.0  0.03635  0.48372  0.80076  1.0000 -0.4176680668
N   N8        1.0  0.71851  0.45249  0.55298  1.0000 -0.2514525775
N   N9        1.0  0.43709  0.04920  0.75729  1.0000 -0.2514525775
N   N10       1.0  0.19488  0.01977  0.44943  1.0000 -0.4176680668
N   N11       1.0  0.03635  0.01628  0.30076  1.0000 -0.4176680668
N   N12       1.0  0.71851  0.04751  0.05298  1.0000 -0.2514525775
N   N13       1.0  0.56291  0.54920  0.74271  1.0000 -0.2514525775
N   N14       1.0  0.80512  0.51977  0.05057  1.0000 -0.4176680668
N   N15       1.0  0.96365  0.51628  0.19924  1.0000 -0.4176680668
N   N16       1.0  0.28149  0.54751  0.44702  1.0000 -0.2514525775
O   O1        1.0  0.98415  0.92034  0.54680  1.0000 -0.5055578126
O   O2        1.0  0.31770  0.87563  0.14919  1.0000 -0.519286312
O   O3        1.0  0.25101  0.94997  0.25700  1.0000 -0.5926815046
O   O4        1.0  0.58560  0.53952  0.39439  1.0000 -0.5680174603
O   O5        1.0  0.54418  0.61174  0.51893  1.0000 -0.5282861813
O   O6        1.0  0.01585  0.42034  0.95320  1.0000 -0.5055578126
O   O7        1.0  0.68230  0.37563  0.35081  1.0000 -0.519286312
O   O8        1.0  0.74899  0.44997  0.24300  1.0000 -0.5926815046
O   O9        1.0  0.41440  0.03952  0.10561  1.0000 -0.5680174603
O   O10       1.0  0.45582  0.11174  0.98107  1.0000 -0.5282861813
O   O11       1.0  0.01585  0.07966  0.45320  1.0000 -0.5038469209
O   O12       1.0  0.68230  0.12437  0.85081  1.0000 -0.519286312
O   O13       1.0  0.74899  0.05003  0.74300  1.0000 -0.5926815046
O   O14       1.0  0.41440  0.46048  0.60561  1.0000 -0.5680174603
O   O15       1.0  0.45582  0.38826  0.48107  1.0000 -0.5282861813
O   O16       1.0  0.98415  0.57966  0.04680  1.0000 -0.5055578126
O   O17       1.0  0.31770  0.62437  0.64919  1.0000 -0.519286312
O   O18       1.0  0.25101  0.55003  0.75700  1.0000 -0.5926815046
O   O19       1.0  0.58560  0.96048  0.89439  1.0000 -0.5680174603
O   O20       1.0  0.54418  0.88826  0.01893  1.0000 -0.5282861813
