# DDEC6 charges by PACMAN v1.1 (https://github.com/mtap-research/PACMAN-charge/)
data_2020[Mg][nan]3[FSR]8
_chemical_formula_sum              "Mg3 H12 C21 O15"
_cell_length_a       8.8601
_cell_length_b       8.8601
_cell_length_c       10.8742
_cell_angle_alpha    90
_cell_angle_beta     90
_cell_angle_gamma    120

_symmetry_space_group_name_H-M    "P 1"
_symmetry_Int_Tables_number       1

loop_
  _symmetry_equiv_pos_as_xyz
  'x, y, z'

loop_
  _atom_site_type_symbol
  _atom_site_label
  _atom_site_symmetry_multiplicity
  _atom_site_fract_x
  _atom_site_fract_y
  _atom_site_fract_z
  _atom_site_occupancy
  _atom_site_charge
Mg  Mg1       1.0  0.00000  0.97701  0.66667  1.0000 1.3285958887
Mg  Mg2       1.0  0.97701  0.00000  0.33333  1.0000 1.3285958887
Mg  Mg3       1.0  0.02299  0.02299  0.00000  1.0000 1.3285958887
H   H1        1.0  0.22825  0.88091  0.56734  1.0000 0.3703170539
H   H2        1.0  0.51028  0.91053  0.66832  1.0000 0.141188045
H   H3        1.0  0.65266  0.77175  0.23400  1.0000 0.3703170539
H   H4        1.0  0.40025  0.48972  0.33499  1.0000 0.141188045
H   H5        1.0  0.11909  0.34734  0.90067  1.0000 0.3703170539
H   H6        1.0  0.08947  0.59975  0.00166  1.0000 0.141188045
H   H7        1.0  0.34734  0.11909  0.09933  1.0000 0.3703170539
H   H8        1.0  0.59975  0.08947  0.99834  1.0000 0.141188045
H   H9        1.0  0.88091  0.22825  0.43267  1.0000 0.3703170539
H   H10       1.0  0.91053  0.51028  0.33167  1.0000 0.141188045
H   H11       1.0  0.77175  0.65266  0.76600  1.0000 0.3703170539
H   H12       1.0  0.48972  0.40025  0.66501  1.0000 0.141188045
C   C1        1.0  0.47866  0.96993  0.72760  1.0000 -0.2703046976
C   C2        1.0  0.31170  0.95517  0.72721  1.0000 0.2194874979
C   C3        1.0  0.49127  0.52134  0.39427  1.0000 -0.2703046976
C   C4        1.0  0.64347  0.68830  0.39387  1.0000 0.2194874979
C   C5        1.0  0.03007  0.50873  0.06094  1.0000 -0.2703046976
C   C6        1.0  0.04483  0.35653  0.06054  1.0000 0.2194874979
C   C7        1.0  0.50873  0.03007  0.93906  1.0000 -0.2703046976
C   C8        1.0  0.35653  0.04483  0.93946  1.0000 0.2194874979
C   C9        1.0  0.96993  0.47866  0.27239  1.0000 -0.2703046976
C   C10       1.0  0.95517  0.31170  0.27280  1.0000 0.2194874979
C   C11       1.0  0.52134  0.49127  0.60573  1.0000 -0.2703046976
C   C12       1.0  0.68830  0.64347  0.60613  1.0000 0.2194874979
C   C13       1.0  0.25247  0.00000  0.83333  1.0000 0.0963817881
C   C14       1.0  0.73696  0.00000  0.83333  1.0000 0.6178159437
C   C15       1.0  0.56716  0.00000  0.83333  1.0000 -0.0020704437
C   C16       1.0  0.74753  0.74753  0.50000  1.0000 0.0963817881
C   C17       1.0  0.26304  0.26304  0.50000  1.0000 0.6178159437
C   C18       1.0  0.43284  0.43284  0.50000  1.0000 -0.0020704437
C   C19       1.0  0.00000  0.25247  0.16667  1.0000 0.0963817881
C   C20       1.0  1.00000  0.73696  0.16667  1.0000 0.6178159437
C   C21       1.0  0.00000  0.56716  0.16667  1.0000 -0.0020704437
O   O1        1.0  0.19461  0.89053  0.63663  1.0000 -0.4554456649
O   O2        1.0  0.81895  0.03153  0.73326  1.0000 -0.6495841323
O   O3        1.0  0.69592  0.80539  0.30330  1.0000 -0.4554456649
O   O4        1.0  0.21258  0.18105  0.39993  1.0000 -0.6495841323
O   O5        1.0  0.10947  0.30408  0.96997  1.0000 -0.4554456649
O   O6        1.0  0.96847  0.78742  0.06660  1.0000 -0.6495841323
O   O7        1.0  0.30408  0.10947  0.03003  1.0000 -0.4554456649
O   O8        1.0  0.78742  0.96847  0.93340  1.0000 -0.6495841323
O   O9        1.0  0.89053  0.19461  0.36336  1.0000 -0.4554456649
O   O10       1.0  0.03153  0.81895  0.26673  1.0000 -0.6495841323
O   O11       1.0  0.80539  0.69592  0.69670  1.0000 -0.4554456649
O   O12       1.0  0.18105  0.21258  0.60007  1.0000 -0.6495841323
O   O13       1.0  0.10061  0.00000  0.83333  1.0000 -0.7520393807
O   O14       1.0  0.89939  0.89939  0.50000  1.0000 -0.7520393807
O   O15       1.0  0.00000  0.10061  0.16667  1.0000 -0.7520393807
