# DDEC6 charges by PACMAN v1.1 (https://github.com/mtap-research/PACMAN-charge/)
data_2020[CdEu][nan]3[FSR]1
_chemical_formula_sum              "Eu4 Cd6 H80 C120 N32 O44"
_cell_length_a       12.2618
_cell_length_b       15.043
_cell_length_c       20.2124
_cell_angle_alpha    90
_cell_angle_beta     93.225
_cell_angle_gamma    90

_symmetry_space_group_name_H-M    "P 1"
_symmetry_Int_Tables_number       1

loop_
  _symmetry_equiv_pos_as_xyz
  'x, y, z'

loop_
  _atom_site_type_symbol
  _atom_site_label
  _atom_site_symmetry_multiplicity
  _atom_site_fract_x
  _atom_site_fract_y
  _atom_site_fract_z
  _atom_site_occupancy
  _atom_site_charge
Eu  Eu1       1.0  0.20319  0.58926  0.20985  1.0000 2.2027795229
Eu  Eu2       1.0  0.79681  0.08926  0.29015  1.0000 2.2027795229
Eu  Eu3       1.0  0.79681  0.41074  0.79015  1.0000 2.2027795229
Eu  Eu4       1.0  0.20319  0.91074  0.70985  1.0000 2.2027795229
Cd  Cd1       1.0  0.18993  0.45586  0.37263  1.0000 0.8844871435
Cd  Cd2       1.0  0.81007  0.95586  0.12737  1.0000 0.8844871435
Cd  Cd3       1.0  0.81007  0.54414  0.62737  1.0000 0.8844871435
Cd  Cd4       1.0  0.18993  0.04414  0.87263  1.0000 0.8844871435
Cd  Cd5       1.0  0.00000  0.50000  0.50000  1.0000 0.7579771194
Cd  Cd6       1.0  0.00000  0.00000  0.00000  1.0000 0.7579771194
H   H1        1.0  0.99010  0.73040  0.27560  1.0000 0.1292039989
H   H2        1.0  0.81530  0.56570  0.38590  1.0000 0.1097888704
H   H3        1.0  0.50070  0.05760  0.27570  1.0000 0.1212919663
H   H4        1.0  0.69280  0.80200  0.33020  1.0000 0.1212919663
H   H5        1.0  0.26110  0.88580  0.31240  1.0000 0.1212919663
H   H6        1.0  0.49520  0.81600  0.19120  1.0000 0.1292039989
H   H7        1.0  0.36760  0.66380  0.36600  1.0000 0.1212919663
H   H8        1.0  0.69890  0.61600  0.48120  1.0000 0.1097888704
H   H9        1.0  0.53810  0.58630  0.53120  1.0000 0.1212919663
H   H10       1.0  0.33230  0.58320  0.08260  1.0000 0.4305538747
H   H11       1.0  0.26760  0.49270  0.08300  1.0000 0.4198125962
H   H12       1.0  0.25380  0.96910  0.40740  1.0000 0.1097888704
H   H13       1.0  0.52770  0.69800  0.31800  1.0000 0.1097888704
H   H14       1.0  0.27790  0.26330  0.35110  1.0000 0.1292039989
H   H15       1.0  0.11610  0.77220  0.15810  1.0000 0.4305538747
H   H16       1.0  0.07860  0.70600  0.10170  1.0000 0.4074567023
H   H17       1.0  0.16490  0.07470  0.46680  1.0000 0.1097888704
H   H18       1.0  0.37240  0.15860  0.29540  1.0000 0.1212919663
H   H19       1.0  0.95550  0.57790  0.15730  1.0000 0.4074567023
H   H20       1.0  0.00650  0.48860  0.13420  1.0000 0.4198125962
H   H21       1.0  0.00990  0.23040  0.22440  1.0000 0.1292039989
H   H22       1.0  0.18470  0.06570  0.11410  1.0000 0.1097888704
H   H23       1.0  0.49930  0.55760  0.22430  1.0000 0.1212919663
H   H24       1.0  0.30720  0.30200  0.16980  1.0000 0.1212919663
H   H25       1.0  0.73890  0.38580  0.18760  1.0000 0.1212919663
H   H26       1.0  0.50480  0.31600  0.30880  1.0000 0.1292039989
H   H27       1.0  0.63240  0.16380  0.13400  1.0000 0.1212919663
H   H28       1.0  0.30110  0.11600  0.01880  1.0000 0.1097888704
H   H29       1.0  0.46190  0.08630  0.96880  1.0000 0.1212919663
H   H30       1.0  0.66770  0.08320  0.41740  1.0000 0.4305538747
H   H31       1.0  0.73240  0.99270  0.41700  1.0000 0.4198125962
H   H32       1.0  0.74620  0.46910  0.09260  1.0000 0.1097888704
H   H33       1.0  0.47230  0.19800  0.18200  1.0000 0.1097888704
H   H34       1.0  0.72210  0.76330  0.14890  1.0000 0.1292039989
H   H35       1.0  0.88390  0.27220  0.34190  1.0000 0.4305538747
H   H36       1.0  0.92140  0.20600  0.39830  1.0000 0.4074567023
H   H37       1.0  0.83510  0.57470  0.03320  1.0000 0.1097888704
H   H38       1.0  0.62760  0.65860  0.20460  1.0000 0.1212919663
H   H39       1.0  0.04450  0.07790  0.34270  1.0000 0.4074567023
H   H40       1.0  0.99350  0.98860  0.36580  1.0000 0.4198125962
H   H41       1.0  0.00990  0.26960  0.72440  1.0000 0.1292039989
H   H42       1.0  0.18470  0.43430  0.61410  1.0000 0.1097888704
H   H43       1.0  0.49930  0.94240  0.72430  1.0000 0.1212919663
H   H44       1.0  0.30720  0.19800  0.66980  1.0000 0.1212919663
H   H45       1.0  0.73890  0.11420  0.68760  1.0000 0.1212919663
H   H46       1.0  0.50480  0.18400  0.80880  1.0000 0.1292039989
H   H47       1.0  0.63240  0.33620  0.63400  1.0000 0.1212919663
H   H48       1.0  0.30110  0.38400  0.51880  1.0000 0.1097888704
H   H49       1.0  0.46190  0.41370  0.46880  1.0000 0.1212919663
H   H50       1.0  0.66770  0.41680  0.91740  1.0000 0.4305538747
H   H51       1.0  0.73240  0.50730  0.91700  1.0000 0.4198125962
H   H52       1.0  0.74620  0.03090  0.59260  1.0000 0.1097888704
H   H53       1.0  0.47230  0.30200  0.68200  1.0000 0.1097888704
H   H54       1.0  0.72210  0.73670  0.64890  1.0000 0.1292039989
H   H55       1.0  0.88390  0.22780  0.84190  1.0000 0.4305538747
H   H56       1.0  0.92140  0.29400  0.89830  1.0000 0.4074567023
H   H57       1.0  0.83510  0.92530  0.53320  1.0000 0.1097888704
H   H58       1.0  0.62760  0.84140  0.70460  1.0000 0.1212919663
H   H59       1.0  0.04450  0.42210  0.84270  1.0000 0.4074567023
H   H60       1.0  0.99350  0.51140  0.86580  1.0000 0.4198125962
H   H61       1.0  0.99010  0.76960  0.77560  1.0000 0.1292039989
H   H62       1.0  0.81530  0.93430  0.88590  1.0000 0.1097888704
H   H63       1.0  0.50070  0.44240  0.77570  1.0000 0.1212919663
H   H64       1.0  0.69280  0.69800  0.83020  1.0000 0.1212919663
H   H65       1.0  0.26110  0.61420  0.81240  1.0000 0.1212919663
H   H66       1.0  0.49520  0.68400  0.69120  1.0000 0.1292039989
H   H67       1.0  0.36760  0.83620  0.86600  1.0000 0.1212919663
H   H68       1.0  0.69890  0.88400  0.98120  1.0000 0.1097888704
H   H69       1.0  0.53810  0.91370  0.03120  1.0000 0.1212919663
H   H70       1.0  0.33230  0.91680  0.58260  1.0000 0.4305538747
H   H71       1.0  0.26760  0.00730  0.58300  1.0000 0.4198125962
H   H72       1.0  0.25380  0.53090  0.90740  1.0000 0.1097888704
H   H73       1.0  0.52770  0.80200  0.81800  1.0000 0.1097888704
H   H74       1.0  0.27790  0.23670  0.85110  1.0000 0.1292039989
H   H75       1.0  0.11610  0.72780  0.65810  1.0000 0.4305538747
H   H76       1.0  0.07860  0.79400  0.60170  1.0000 0.4074567023
H   H77       1.0  0.16490  0.42530  0.96680  1.0000 0.1097888704
H   H78       1.0  0.37240  0.34140  0.79540  1.0000 0.1212919663
H   H79       1.0  0.95550  0.92210  0.65730  1.0000 0.4074567023
H   H80       1.0  0.00650  0.01140  0.63420  1.0000 0.4198125962
C   C1        1.0  0.92800  0.71850  0.29840  1.0000 -0.1418676052
C   C2        1.0  0.91860  0.63910  0.33320  1.0000 -0.0184408759
C   C3        1.0  0.73590  0.67960  0.36140  1.0000 0.0763268236
C   C4        1.0  0.82200  0.61940  0.36380  1.0000 -0.1516061809
C   C5        1.0  0.61670  0.96060  0.19580  1.0000 0.6052111301
C   C6        1.0  0.33490  0.59740  0.48490  1.0000 0.2532033238
C   C7        1.0  0.13860  0.24530  0.44630  1.0000 0.2408713315
C   C8        1.0  0.46730  0.00250  0.26950  1.0000 -0.1418676052
C   C9        1.0  0.43720  0.61910  0.45290  1.0000 0.0418733645
C   C10       1.0  0.74860  0.76010  0.33010  1.0000 -0.1516061809
C   C11       1.0  0.01370  0.57700  0.33980  1.0000 0.6254209194
C   C12       1.0  0.63210  0.65850  0.39370  1.0000 0.0702730902
C   C13       1.0  0.37160  0.98340  0.30040  1.0000 0.0702730902
C   C14       1.0  0.84310  0.77960  0.29860  1.0000 -0.0102130763
C   C15       1.0  0.51340  0.93910  0.22930  1.0000 -0.0102130763
C   C16       1.0  0.20620  0.18210  0.41120  1.0000 0.0310192246
C   C17       1.0  0.31840  0.74720  0.24180  1.0000 0.5473060522
C   C18       1.0  0.32460  0.89930  0.29140  1.0000 -0.1418676052
C   C19       1.0  0.37030  0.83580  0.25200  1.0000 -0.0184408759
C   C20       1.0  0.46520  0.85710  0.21930  1.0000 -0.1168639783
C   C21       1.0  0.31790  0.05250  0.34070  1.0000 0.0702730902
C   C22       1.0  0.43430  0.65390  0.38910  1.0000 -0.1012623107
C   C23       1.0  0.63250  0.62570  0.45780  1.0000 -0.129735471
C   C24       1.0  0.53610  0.60690  0.48770  1.0000 -0.1168639783
C   C25       1.0  0.85200  0.86810  0.26510  1.0000 0.5987323437
C   C26       1.0  0.25740  0.02850  0.39510  1.0000 -0.1736753278
C   C27       1.0  0.53030  0.67390  0.36040  1.0000 -0.1418676052
C   C28       1.0  0.27060  0.20370  0.36240  1.0000 -0.1012623107
C   C29       1.0  0.20330  0.09160  0.43040  1.0000 -0.1736753278
C   C30       1.0  0.32700  0.14010  0.32810  1.0000 -0.129735471
C   C31       1.0  0.07200  0.21850  0.20160  1.0000 -0.1418676052
C   C32       1.0  0.08140  0.13910  0.16680  1.0000 -0.0184408759
C   C33       1.0  0.26410  0.17960  0.13860  1.0000 0.0763268236
C   C34       1.0  0.17800  0.11940  0.13620  1.0000 -0.1516061809
C   C35       1.0  0.38330  0.46060  0.30420  1.0000 0.6052111301
C   C36       1.0  0.66510  0.09740  0.01510  1.0000 0.2532033238
C   C37       1.0  0.86140  0.74530  0.05370  1.0000 0.2408713315
C   C38       1.0  0.53270  0.50250  0.23050  1.0000 -0.1418676052
C   C39       1.0  0.56280  0.11910  0.04710  1.0000 0.0418733645
C   C40       1.0  0.25140  0.26010  0.16990  1.0000 -0.1516061809
C   C41       1.0  0.98630  0.07700  0.16020  1.0000 0.6254209194
C   C42       1.0  0.36790  0.15850  0.10630  1.0000 0.0702730902
C   C43       1.0  0.62840  0.48340  0.19960  1.0000 0.0702730902
C   C44       1.0  0.15690  0.27960  0.20140  1.0000 -0.0102130763
C   C45       1.0  0.48660  0.43910  0.27070  1.0000 -0.0102130763
C   C46       1.0  0.79380  0.68210  0.08880  1.0000 0.0310192246
C   C47       1.0  0.68160  0.24720  0.25820  1.0000 0.5473060522
C   C48       1.0  0.67540  0.39930  0.20860  1.0000 -0.1418676052
C   C49       1.0  0.62970  0.33580  0.24800  1.0000 -0.0184408759
C   C50       1.0  0.53480  0.35710  0.28070  1.0000 -0.1168639783
C   C51       1.0  0.68210  0.55250  0.15930  1.0000 0.0702730902
C   C52       1.0  0.56570  0.15390  0.11090  1.0000 -0.1012623107
C   C53       1.0  0.36750  0.12570  0.04220  1.0000 -0.129735471
C   C54       1.0  0.46390  0.10690  0.01230  1.0000 -0.1168639783
C   C55       1.0  0.14800  0.36810  0.23490  1.0000 0.5987323437
C   C56       1.0  0.74260  0.52850  0.10490  1.0000 -0.1736753278
C   C57       1.0  0.46970  0.17390  0.13960  1.0000 -0.1418676052
C   C58       1.0  0.72940  0.70370  0.13760  1.0000 -0.1012623107
C   C59       1.0  0.79670  0.59160  0.06960  1.0000 -0.1736753278
C   C60       1.0  0.67300  0.64010  0.17190  1.0000 -0.129735471
C   C61       1.0  0.07200  0.28150  0.70160  1.0000 -0.1418676052
C   C62       1.0  0.08140  0.36090  0.66680  1.0000 -0.0184408759
C   C63       1.0  0.26410  0.32040  0.63860  1.0000 0.0763268236
C   C64       1.0  0.17800  0.38060  0.63620  1.0000 -0.1516061809
C   C65       1.0  0.38330  0.03940  0.80420  1.0000 0.6052111301
C   C66       1.0  0.66510  0.40260  0.51510  1.0000 0.2532033238
C   C67       1.0  0.86140  0.75470  0.55370  1.0000 0.2408713315
C   C68       1.0  0.53270  0.99750  0.73050  1.0000 -0.1418676052
C   C69       1.0  0.56280  0.38090  0.54710  1.0000 0.0418733645
C   C70       1.0  0.25140  0.23990  0.66990  1.0000 -0.1516061809
C   C71       1.0  0.98630  0.42300  0.66020  1.0000 0.6254209194
C   C72       1.0  0.36790  0.34150  0.60630  1.0000 0.0702730902
C   C73       1.0  0.62840  0.01660  0.69960  1.0000 0.0702730902
C   C74       1.0  0.15690  0.22040  0.70140  1.0000 -0.0102130763
C   C75       1.0  0.48660  0.06090  0.77070  1.0000 -0.0102130763
C   C76       1.0  0.79380  0.81790  0.58880  1.0000 0.0310192246
C   C77       1.0  0.68160  0.25280  0.75820  1.0000 0.5473060522
C   C78       1.0  0.67540  0.10070  0.70860  1.0000 -0.1418676052
C   C79       1.0  0.62970  0.16420  0.74800  1.0000 -0.0184408759
C   C80       1.0  0.53480  0.14290  0.78070  1.0000 -0.1168639783
C   C81       1.0  0.68210  0.94750  0.65930  1.0000 0.0702730902
C   C82       1.0  0.56570  0.34610  0.61090  1.0000 -0.1012623107
C   C83       1.0  0.36750  0.37430  0.54220  1.0000 -0.129735471
C   C84       1.0  0.46390  0.39310  0.51230  1.0000 -0.1168639783
C   C85       1.0  0.14800  0.13190  0.73490  1.0000 0.5987323437
C   C86       1.0  0.74260  0.97150  0.60490  1.0000 -0.1736753278
C   C87       1.0  0.46970  0.32610  0.63960  1.0000 -0.1418676052
C   C88       1.0  0.72940  0.79630  0.63760  1.0000 -0.1012623107
C   C89       1.0  0.79670  0.90840  0.56960  1.0000 -0.1736753278
C   C90       1.0  0.67300  0.85990  0.67190  1.0000 -0.129735471
C   C91       1.0  0.92800  0.78150  0.79840  1.0000 -0.1418676052
C   C92       1.0  0.91860  0.86090  0.83320  1.0000 -0.0184408759
C   C93       1.0  0.73590  0.82040  0.86140  1.0000 0.0763268236
C   C94       1.0  0.82200  0.88060  0.86380  1.0000 -0.1516061809
C   C95       1.0  0.61670  0.53940  0.69580  1.0000 0.6052111301
C   C96       1.0  0.33490  0.90260  0.98490  1.0000 0.2532033238
C   C97       1.0  0.13860  0.25470  0.94630  1.0000 0.2408713315
C   C98       1.0  0.46730  0.49750  0.76950  1.0000 -0.1418676052
C   C99       1.0  0.43720  0.88090  0.95290  1.0000 0.0418733645
C   C100      1.0  0.74860  0.73990  0.83010  1.0000 -0.1516061809
C   C101      1.0  0.01370  0.92300  0.83980  1.0000 0.6254209194
C   C102      1.0  0.63210  0.84150  0.89370  1.0000 0.0702730902
C   C103      1.0  0.37160  0.51660  0.80040  1.0000 0.0702730902
C   C104      1.0  0.84310  0.72040  0.79860  1.0000 -0.0102130763
C   C105      1.0  0.51340  0.56090  0.72930  1.0000 -0.0102130763
C   C106      1.0  0.20620  0.31790  0.91120  1.0000 0.0310192246
C   C107      1.0  0.31840  0.75280  0.74180  1.0000 0.5473060522
C   C108      1.0  0.32460  0.60070  0.79140  1.0000 -0.1418676052
C   C109      1.0  0.37030  0.66420  0.75200  1.0000 -0.0184408759
C   C110      1.0  0.46520  0.64290  0.71930  1.0000 -0.1168639783
C   C111      1.0  0.31790  0.44750  0.84070  1.0000 0.0702730902
C   C112      1.0  0.43430  0.84610  0.88910  1.0000 -0.1012623107
C   C113      1.0  0.63250  0.87430  0.95780  1.0000 -0.129735471
C   C114      1.0  0.53610  0.89310  0.98770  1.0000 -0.1168639783
C   C115      1.0  0.85200  0.63190  0.76510  1.0000 0.5987323437
C   C116      1.0  0.25740  0.47150  0.89510  1.0000 -0.1736753278
C   C117      1.0  0.53030  0.82610  0.86040  1.0000 -0.1418676052
C   C118      1.0  0.27060  0.29630  0.86240  1.0000 -0.1012623107
C   C119      1.0  0.20330  0.40840  0.93040  1.0000 -0.1736753278
C   C120      1.0  0.32700  0.35990  0.82810  1.0000 -0.129735471
N   N1        1.0  0.13610  0.33390  0.43950  1.0000 -0.2779509809
N   N2        1.0  0.05780  0.35940  0.48060  1.0000 -0.0699281685
N   N3        1.0  0.17650  0.55180  0.50670  1.0000 -0.0853314895
N   N4        1.0  0.24880  0.55280  0.45830  1.0000 -0.286650182
N   N5        1.0  0.06780  0.21890  0.48990  1.0000 -0.2996338245
N   N6        1.0  0.01790  0.29100  0.51000  1.0000 -0.0699281685
N   N7        1.0  0.21820  0.59250  0.55880  1.0000 -0.0770292815
N   N8        1.0  0.31850  0.62170  0.54720  1.0000 -0.2779509809
N   N9        1.0  0.86390  0.83390  0.06050  1.0000 -0.2779509809
N   N10       1.0  0.94220  0.85940  0.01940  1.0000 -0.0699281685
N   N11       1.0  0.82350  0.05180  0.99330  1.0000 -0.0853314895
N   N12       1.0  0.75120  0.05280  0.04170  1.0000 -0.286650182
N   N13       1.0  0.93220  0.71890  0.01010  1.0000 -0.2996338245
N   N14       1.0  0.98210  0.79100  0.99000  1.0000 -0.0699281685
N   N15       1.0  0.78180  0.09250  0.94120  1.0000 -0.0770292815
N   N16       1.0  0.68150  0.12170  0.95280  1.0000 -0.2779509809
N   N17       1.0  0.86390  0.66610  0.56050  1.0000 -0.2779509809
N   N18       1.0  0.94220  0.64060  0.51940  1.0000 -0.0699281685
N   N19       1.0  0.82350  0.44820  0.49330  1.0000 -0.0853314895
N   N20       1.0  0.75120  0.44720  0.54170  1.0000 -0.286650182
N   N21       1.0  0.93220  0.78110  0.51010  1.0000 -0.2996338245
N   N22       1.0  0.98210  0.70900  0.49000  1.0000 -0.0699281685
N   N23       1.0  0.78180  0.40750  0.44120  1.0000 -0.0770292815
N   N24       1.0  0.68150  0.37830  0.45280  1.0000 -0.2779509809
N   N25       1.0  0.13610  0.16610  0.93950  1.0000 -0.2779509809
N   N26       1.0  0.05780  0.14060  0.98060  1.0000 -0.0699281685
N   N27       1.0  0.17650  0.94820  0.00670  1.0000 -0.0853314895
N   N28       1.0  0.24880  0.94720  0.95830  1.0000 -0.286650182
N   N29       1.0  0.06780  0.28110  0.98990  1.0000 -0.2996338245
N   N30       1.0  0.01790  0.20900  0.01000  1.0000 -0.0699281685
N   N31       1.0  0.21820  0.90750  0.05880  1.0000 -0.0770292815
N   N32       1.0  0.31850  0.87830  0.04720  1.0000 -0.2779509809
O   O1        1.0  0.01590  0.51770  0.38504  1.0000 -0.5478037682
O   O2        1.0  0.66920  0.02980  0.21200  1.0000 -0.6865824249
O   O3        1.0  0.23800  0.72510  0.27470  1.0000 -0.6271760996
O   O4        1.0  0.64630  0.90790  0.15210  1.0000 -0.5242673244
O   O5        1.0  0.09110  0.58440  0.30250  1.0000 -0.6574872222
O   O6        1.0  0.89500  0.87210  0.21060  1.0000 -0.533498415
O   O7        1.0  0.35460  0.69410  0.20040  1.0000 -0.6271760996
O   O8        1.0  0.80970  0.93360  0.29380  1.0000 -0.6865824249
O   O9        1.0  0.27980  0.54900  0.11050  1.0000 -0.8628642049
O   O10       1.0  0.11880  0.70840  0.14560  1.0000 -0.8628642049
O   O11       1.0  0.02580  0.54450  0.15870  1.0000 -0.8452233758
O   O12       1.0  0.98410  0.01770  0.11496  1.0000 -0.5478037682
O   O13       1.0  0.33080  0.52980  0.28800  1.0000 -0.6865824249
O   O14       1.0  0.76200  0.22510  0.22530  1.0000 -0.6271760996
O   O15       1.0  0.35370  0.40790  0.34790  1.0000 -0.5242673244
O   O16       1.0  0.90890  0.08440  0.19750  1.0000 -0.6574872222
O   O17       1.0  0.10500  0.37210  0.28940  1.0000 -0.533498415
O   O18       1.0  0.64540  0.19410  0.29960  1.0000 -0.6271760996
O   O19       1.0  0.19030  0.43360  0.20620  1.0000 -0.6865824249
O   O20       1.0  0.72020  0.04900  0.38950  1.0000 -0.8628642049
O   O21       1.0  0.88120  0.20840  0.35440  1.0000 -0.8628642049
O   O22       1.0  0.97420  0.04450  0.34130  1.0000 -0.8452233758
O   O23       1.0  0.98410  0.48230  0.61496  1.0000 -0.5478037682
O   O24       1.0  0.33080  0.97020  0.78800  1.0000 -0.6865824249
O   O25       1.0  0.76200  0.27490  0.72530  1.0000 -0.6271760996
O   O26       1.0  0.35370  0.09210  0.84790  1.0000 -0.5242673244
O   O27       1.0  0.90890  0.41560  0.69750  1.0000 -0.6574872222
O   O28       1.0  0.10500  0.12790  0.78940  1.0000 -0.533498415
O   O29       1.0  0.64540  0.30590  0.79960  1.0000 -0.6271760996
O   O30       1.0  0.19030  0.06640  0.70620  1.0000 -0.6865824249
O   O31       1.0  0.72020  0.45100  0.88950  1.0000 -0.8628642049
O   O32       1.0  0.88120  0.29160  0.85440  1.0000 -0.8628642049
O   O33       1.0  0.97420  0.45550  0.84130  1.0000 -0.8452233758
O   O34       1.0  0.01590  0.98230  0.88504  1.0000 -0.5478037682
O   O35       1.0  0.66920  0.47020  0.71200  1.0000 -0.6865824249
O   O36       1.0  0.23800  0.77490  0.77470  1.0000 -0.6271760996
O   O37       1.0  0.64630  0.59210  0.65210  1.0000 -0.5242673244
O   O38       1.0  0.09110  0.91560  0.80250  1.0000 -0.6574872222
O   O39       1.0  0.89500  0.62790  0.71060  1.0000 -0.533498415
O   O40       1.0  0.35460  0.80590  0.70040  1.0000 -0.6271760996
O   O41       1.0  0.80970  0.56640  0.79380  1.0000 -0.6865824249
O   O42       1.0  0.27980  0.95100  0.61050  1.0000 -0.8628642049
O   O43       1.0  0.11880  0.79160  0.64560  1.0000 -0.8628642049
O   O44       1.0  0.02580  0.95550  0.65870  1.0000 -0.8452233758
