# DDEC6 charges by PACMAN v1.1 (https://github.com/mtap-research/PACMAN-charge/)
data_2020[Sm][nan]3[FSR]2
_chemical_formula_sum              "Sm6 H16 C48 S8 O60"
_cell_length_a       7.0761
_cell_length_b       23.9242
_cell_length_c       11.7549
_cell_angle_alpha    90
_cell_angle_beta     92.739
_cell_angle_gamma    90

_symmetry_space_group_name_H-M    "P 1"
_symmetry_Int_Tables_number       1

loop_
  _symmetry_equiv_pos_as_xyz
  'x, y, z'

loop_
  _atom_site_type_symbol
  _atom_site_label
  _atom_site_symmetry_multiplicity
  _atom_site_fract_x
  _atom_site_fract_y
  _atom_site_fract_z
  _atom_site_occupancy
  _atom_site_charge
Sm  Sm1       1.0  0.69086  0.66312  0.43734  1.0000 2.3174225464
Sm  Sm2       1.0  0.52976  0.51235  0.26099  1.0000 2.2194625512
Sm  Sm3       1.0  0.19923  0.38798  0.07338  1.0000 2.1588821784
Sm  Sm4       1.0  0.30914  0.16312  0.56266  1.0000 2.3137170449
Sm  Sm5       1.0  0.47024  0.01235  0.73901  1.0000 2.2194625512
Sm  Sm6       1.0  0.80077  0.88798  0.92662  1.0000 2.1588821784
H   H1        1.0  0.03232  0.34059  0.41474  1.0000 0.1486390494
H   H2        1.0  0.04520  0.31403  0.60458  1.0000 0.1486390494
H   H3        1.0  0.16876  0.47865  0.80373  1.0000 0.159504842
H   H4        1.0  0.12904  0.60042  0.57194  1.0000 0.159504842
H   H5        1.0  0.70876  0.55469  0.92084  1.0000 0.1486390494
H   H6        1.0  0.70990  0.57951  0.73081  1.0000 0.1486390494
H   H7        1.0  0.58527  0.41766  0.53342  1.0000 0.159504842
H   H8        1.0  0.61727  0.29473  0.76669  1.0000 0.159504842
H   H9        1.0  0.96768  0.84059  0.58526  1.0000 0.1486390494
H   H10       1.0  0.95480  0.81403  0.39542  1.0000 0.1486390494
H   H11       1.0  0.83124  0.97865  0.19627  1.0000 0.159504842
H   H12       1.0  0.87096  0.10042  0.42806  1.0000 0.159504842
H   H13       1.0  0.29124  0.05469  0.07916  1.0000 0.1486390494
H   H14       1.0  0.29010  0.07951  0.26919  1.0000 0.1486390494
H   H15       1.0  0.41473  0.91766  0.46658  1.0000 0.159504842
H   H16       1.0  0.38273  0.79473  0.23331  1.0000 0.159504842
C   C1        1.0  0.08890  0.42220  0.43770  1.0000 -0.0380116254
C   C2        1.0  0.05940  0.36740  0.47050  1.0000 -0.0629876386
C   C3        1.0  0.06910  0.35100  0.58530  1.0000 -0.0707617123
C   C4        1.0  0.11390  0.38960  0.66950  1.0000 -0.0380116254
C   C5        1.0  0.12620  0.44720  0.64110  1.0000 0.0690489971
C   C6        1.0  0.15420  0.48930  0.72770  1.0000 -0.0916335695
C   C7        1.0  0.15970  0.54410  0.70010  1.0000 -0.0629876386
C   C8        1.0  0.13070  0.56240  0.58820  1.0000 -0.0707617123
C   C9        1.0  0.10450  0.52390  0.50150  1.0000 -0.0916335695
C   C10       1.0  0.10860  0.46480  0.52380  1.0000 0.0520898104
C   C11       1.0  0.12510  0.42560  0.31310  1.0000 0.6195398644
C   C12       1.0  0.14520  0.36490  0.78820  1.0000 0.5840797797
C   C13       1.0  0.64730  0.47400  0.89820  1.0000 -0.0473624133
C   C14       1.0  0.68310  0.52760  0.86540  1.0000 -0.0629876386
C   C15       1.0  0.68200  0.54280  0.75020  1.0000 -0.0707617123
C   C16       1.0  0.64080  0.50480  0.66560  1.0000 -0.0380116254
C   C17       1.0  0.62140  0.44730  0.69530  1.0000 0.0690489971
C   C18       1.0  0.59690  0.40660  0.60930  1.0000 -0.0916335695
C   C19       1.0  0.58970  0.35030  0.63620  1.0000 -0.0629876386
C   C20       1.0  0.61510  0.33270  0.74960  1.0000 -0.0707617123
C   C21       1.0  0.63650  0.37110  0.83530  1.0000 -0.0916335695
C   C22       1.0  0.63290  0.43110  0.81360  1.0000 0.0690489971
C   C23       1.0  0.60480  0.47080  0.02200  1.0000 0.6195398644
C   C24       1.0  0.61880  0.53000  0.54550  1.0000 0.6503110901
C   C25       1.0  0.91110  0.92220  0.56230  1.0000 -0.0380116254
C   C26       1.0  0.94060  0.86740  0.52950  1.0000 -0.0629876386
C   C27       1.0  0.93090  0.85100  0.41470  1.0000 -0.0707617123
C   C28       1.0  0.88610  0.88960  0.33050  1.0000 -0.0380116254
C   C29       1.0  0.87380  0.94720  0.35890  1.0000 0.0690489971
C   C30       1.0  0.84580  0.98930  0.27230  1.0000 -0.0916335695
C   C31       1.0  0.84030  0.04410  0.29990  1.0000 -0.0629876386
C   C32       1.0  0.86930  0.06240  0.41180  1.0000 -0.0707617123
C   C33       1.0  0.89550  0.02390  0.49850  1.0000 -0.0916335695
C   C34       1.0  0.89140  0.96480  0.47620  1.0000 0.0520898104
C   C35       1.0  0.87490  0.92560  0.68690  1.0000 0.6195398644
C   C36       1.0  0.85480  0.86490  0.21180  1.0000 0.5840797797
C   C37       1.0  0.35270  0.97400  0.10180  1.0000 -0.0473624133
C   C38       1.0  0.31690  0.02760  0.13460  1.0000 -0.0629876386
C   C39       1.0  0.31800  0.04280  0.24980  1.0000 -0.0707617123
C   C40       1.0  0.35920  0.00480  0.33440  1.0000 -0.0380116254
C   C41       1.0  0.37860  0.94730  0.30470  1.0000 0.0690489971
C   C42       1.0  0.40310  0.90660  0.39070  1.0000 -0.0916335695
C   C43       1.0  0.41030  0.85030  0.36380  1.0000 -0.0629876386
C   C44       1.0  0.38490  0.83270  0.25040  1.0000 -0.0707617123
C   C45       1.0  0.36350  0.87110  0.16470  1.0000 -0.0916335695
C   C46       1.0  0.36710  0.93110  0.18640  1.0000 0.0690489971
C   C47       1.0  0.39520  0.97080  0.97800  1.0000 0.6195398644
C   C48       1.0  0.38120  0.03000  0.45450  1.0000 0.6503110901
S   S1        1.0  0.04700  0.55420  0.36607  1.0000 1.2678723112
S   S2        1.0  0.18530  0.59591  0.80830  1.0000 1.1371216551
S   S3        1.0  0.56150  0.29949  0.52843  1.0000 1.1805857792
S   S4        1.0  0.68090  0.34212  0.97393  1.0000 1.2467655316
S   S5        1.0  0.95300  0.05420  0.63393  1.0000 1.2678723112
S   S6        1.0  0.81470  0.09591  0.19170  1.0000 1.1371216551
S   S7        1.0  0.43850  0.79949  0.47157  1.0000 1.1805857792
S   S8        1.0  0.31910  0.84212  0.02607  1.0000 1.2467655316
O   O1        1.0  0.28100  0.44540  0.28220  1.0000 -0.6685362681
O   O2        1.0  0.55980  0.68350  0.62620  1.0000 -0.3244194314
O   O3        1.0  0.01510  0.40120  0.24210  1.0000 -0.4869483486
O   O4        1.0  0.95250  0.70520  0.55360  1.0000 -0.4411684796
O   O5        1.0  0.16350  0.39630  0.87390  1.0000 -0.6087360159
O   O6        1.0  0.83840  0.71080  0.28540  1.0000 -0.4587304964
O   O7        1.0  0.15350  0.31330  0.79630  1.0000 -0.3130397871
O   O8        1.0  0.35660  0.66900  0.38750  1.0000 -0.3556327745
O   O9        1.0  0.42720  0.57760  0.10460  1.0000 -0.1081728711
O   O10       1.0  0.22340  0.55880  0.30690  1.0000 -0.5502538309
O   O11       1.0  0.65140  0.41780  0.28420  1.0000 -0.2436884269
O   O12       1.0  0.90590  0.51930  0.30890  1.0000 -0.5623964891
O   O13       1.0  0.98050  0.61070  0.38980  1.0000 -0.5623964891
O   O14       1.0  0.13340  0.29090  0.01370  1.0000 -0.2728530392
O   O15       1.0  0.01970  0.63040  0.79640  1.0000 -0.4957732781
O   O16       1.0  0.30390  0.31880  0.22420  1.0000 -0.2490957305
O   O17       1.0  0.35480  0.62670  0.78720  1.0000 -0.4679051861
O   O18       1.0  0.07290  0.48000  0.05170  1.0000 -0.2436884269
O   O19       1.0  0.19900  0.56520  0.91420  1.0000 -0.4462243095
O   O20       1.0  0.55870  0.50090  0.46370  1.0000 -0.5853389129
O   O21       1.0  0.66150  0.58080  0.53860  1.0000 -0.6087360159
O   O22       1.0  0.44490  0.45490  0.05080  1.0000 -0.6540771648
O   O23       1.0  0.71630  0.49420  0.09520  1.0000 -0.4827449992
O   O24       1.0  0.51610  0.32970  0.42310  1.0000 -0.4279811755
O   O25       1.0  0.73850  0.26890  0.52700  1.0000 -0.4079459831
O   O26       1.0  0.40880  0.26340  0.56150  1.0000 -0.6087360159
O   O27       1.0  0.50210  0.34420  0.03040  1.0000 -0.6087360159
O   O28       1.0  0.83010  0.37600  0.02960  1.0000 -0.6007719263
O   O29       1.0  0.73880  0.28460  0.95770  1.0000 -0.4462243095
O   O30       1.0  0.61020  0.60150  0.29760  1.0000 -1.1431516036
O   O31       1.0  0.71900  0.94540  0.71780  1.0000 -0.6685362681
O   O32       1.0  0.44020  0.18350  0.37380  1.0000 -0.3277826831
O   O33       1.0  0.98490  0.90120  0.75790  1.0000 -0.4869483486
O   O34       1.0  0.04750  0.20520  0.44640  1.0000 -0.4279811755
O   O35       1.0  0.83650  0.89630  0.12610  1.0000 -0.6087360159
O   O36       1.0  0.16160  0.21080  0.71460  1.0000 -0.4587304964
O   O37       1.0  0.84650  0.81330  0.20370  1.0000 -0.3130397871
O   O38       1.0  0.64340  0.16900  0.61250  1.0000 -0.3523746952
O   O39       1.0  0.57280  0.07760  0.89540  1.0000 -0.1081728711
O   O40       1.0  0.77660  0.05880  0.69310  1.0000 -0.5502538309
O   O41       1.0  0.34860  0.91780  0.71580  1.0000 -0.2490957305
O   O42       1.0  0.09410  0.01930  0.69110  1.0000 -0.5623964891
O   O43       1.0  0.01950  0.11070  0.61020  1.0000 -0.5623964891
O   O44       1.0  0.86660  0.79090  0.98630  1.0000 -0.2728530392
O   O45       1.0  0.98030  0.13040  0.20360  1.0000 -0.4957732781
O   O46       1.0  0.69610  0.81880  0.77580  1.0000 -0.2490957305
O   O47       1.0  0.64520  0.12670  0.21280  1.0000 -0.4679051861
O   O48       1.0  0.92710  0.98000  0.94830  1.0000 -0.2436884269
O   O49       1.0  0.80100  0.06520  0.08580  1.0000 -0.4462243095
O   O50       1.0  0.44130  0.00090  0.53630  1.0000 -0.5853389129
O   O51       1.0  0.33850  0.08080  0.46140  1.0000 -0.6087360159
O   O52       1.0  0.55510  0.95490  0.94920  1.0000 -0.6540771648
O   O53       1.0  0.28370  0.99420  0.90480  1.0000 -0.4827449992
O   O54       1.0  0.48390  0.82970  0.57690  1.0000 -0.4246759936
O   O55       1.0  0.26150  0.76890  0.47300  1.0000 -0.4079459831
O   O56       1.0  0.59120  0.76340  0.43850  1.0000 -0.6087360159
O   O57       1.0  0.49790  0.84420  0.96960  1.0000 -0.6087360159
O   O58       1.0  0.16990  0.87600  0.97040  1.0000 -0.6007719263
O   O59       1.0  0.26120  0.78460  0.04230  1.0000 -0.4462243095
O   O60       1.0  0.38980  0.10150  0.70240  1.0000 -1.1431516036
