# DDEC6 charges by PACMAN v1.1 (https://github.com/mtap-research/PACMAN-charge/)
data_2020[Eu][nan]2[FSR]1
_chemical_formula_sum              "Eu8 H88 C72 O56"
_cell_length_a       13.7725
_cell_length_b       15.325
_cell_length_c       14.8729
_cell_angle_alpha    90
_cell_angle_beta     109.101
_cell_angle_gamma    90

_symmetry_space_group_name_H-M    "P 1"
_symmetry_Int_Tables_number       1

loop_
  _symmetry_equiv_pos_as_xyz
  'x, y, z'

loop_
  _atom_site_type_symbol
  _atom_site_label
  _atom_site_symmetry_multiplicity
  _atom_site_fract_x
  _atom_site_fract_y
  _atom_site_fract_z
  _atom_site_occupancy
  _atom_site_charge
Eu  Eu1       1.0  0.43091  0.73160  0.20946  1.0000 2.0497662945
Eu  Eu2       1.0  0.55157  0.73100  0.99331  1.0000 2.0620099825
Eu  Eu3       1.0  0.56909  0.23160  0.29054  1.0000 2.0497662945
Eu  Eu4       1.0  0.44843  0.23100  0.50669  1.0000 2.0620099825
Eu  Eu5       1.0  0.56909  0.26840  0.79054  1.0000 2.0497662945
Eu  Eu6       1.0  0.44843  0.26900  0.00669  1.0000 2.0620099825
Eu  Eu7       1.0  0.43091  0.76840  0.70946  1.0000 2.0497662945
Eu  Eu8       1.0  0.55157  0.76900  0.49331  1.0000 2.0620099825
H   H1        1.0  0.25210  0.62310  0.15180  1.0000 0.3813126569
H   H2        1.0  0.32660  0.57440  0.12990  1.0000 0.3994654936
H   H3        1.0  0.52450  0.91620  0.95070  1.0000 0.3813126569
H   H4        1.0  0.56570  0.91290  0.04920  1.0000 0.3704638405
H   H5        1.0  0.67810  0.47050  0.35920  1.0000 0.1090480143
H   H6        1.0  0.69950  0.57020  0.34060  1.0000 0.1090480143
H   H7        1.0  0.76970  0.93350  0.34770  1.0000 0.0927578609
H   H8        1.0  0.77040  0.92350  0.24100  1.0000 0.1012586733
H   H9        1.0  0.84380  0.72080  0.28630  1.0000 0.1012586733
H   H10       1.0  0.84220  0.73310  0.39240  1.0000 0.1090480143
H   H11       1.0  0.77440  0.53270  0.16820  1.0000 0.1090480143
H   H12       1.0  0.76040  0.42920  0.17010  1.0000 0.1090480143
H   H13       1.0  0.13690  0.71530  0.92900  1.0000 0.0927578609
H   H14       1.0  0.11940  0.73450  0.81940  1.0000 0.1012586733
H   H15       1.0  0.24160  0.92400  0.95140  1.0000 0.1090480143
H   H16       1.0  0.21030  0.91410  0.83840  1.0000 0.1012586733
H   H17       1.0  0.85480  0.52830  0.33060  1.0000 0.0813515096
H   H18       1.0  0.82580  0.42780  0.33380  1.0000 0.1012586733
H   H19       1.0  0.04900  0.86310  0.83910  1.0000 0.0813515096
H   H20       1.0  0.09030  0.85250  0.95220  1.0000 0.0927578609
H   H21       1.0  0.92350  0.86170  0.40170  1.0000 0.0813515096
H   H22       1.0  0.92320  0.85020  0.29500  1.0000 0.0927578609
H   H23       1.0  0.74790  0.12310  0.34820  1.0000 0.3813126569
H   H24       1.0  0.67340  0.07440  0.37010  1.0000 0.3994654936
H   H25       1.0  0.47550  0.41620  0.54930  1.0000 0.3813126569
H   H26       1.0  0.43430  0.41290  0.45080  1.0000 0.3704638405
H   H27       1.0  0.32190  0.97050  0.14080  1.0000 0.1090480143
H   H28       1.0  0.30050  0.07020  0.15940  1.0000 0.1090480143
H   H29       1.0  0.23030  0.43350  0.15230  1.0000 0.0927578609
H   H30       1.0  0.22960  0.42350  0.25900  1.0000 0.1012586733
H   H31       1.0  0.15620  0.22080  0.21370  1.0000 0.1012586733
H   H32       1.0  0.15780  0.23310  0.10760  1.0000 0.1090480143
H   H33       1.0  0.22560  0.03270  0.33180  1.0000 0.1090480143
H   H34       1.0  0.23960  0.92920  0.32990  1.0000 0.1090480143
H   H35       1.0  0.86310  0.21530  0.57100  1.0000 0.0927578609
H   H36       1.0  0.88060  0.23450  0.68060  1.0000 0.1012586733
H   H37       1.0  0.75840  0.42400  0.54860  1.0000 0.1090480143
H   H38       1.0  0.78970  0.41410  0.66160  1.0000 0.1012586733
H   H39       1.0  0.14520  0.02830  0.16940  1.0000 0.0813515096
H   H40       1.0  0.17420  0.92780  0.16620  1.0000 0.1012586733
H   H41       1.0  0.95100  0.36310  0.66090  1.0000 0.0813515096
H   H42       1.0  0.90970  0.35250  0.54780  1.0000 0.0927578609
H   H43       1.0  0.07650  0.36170  0.09830  1.0000 0.0813515096
H   H44       1.0  0.07680  0.35020  0.20500  1.0000 0.0927578609
H   H45       1.0  0.74790  0.37690  0.84820  1.0000 0.3813126569
H   H46       1.0  0.67340  0.42560  0.87010  1.0000 0.3994654936
H   H47       1.0  0.47550  0.08380  0.04930  1.0000 0.3813126569
H   H48       1.0  0.43430  0.08710  0.95080  1.0000 0.3704638405
H   H49       1.0  0.32190  0.52950  0.64080  1.0000 0.1090480143
H   H50       1.0  0.30050  0.42980  0.65940  1.0000 0.1090480143
H   H51       1.0  0.23030  0.06650  0.65230  1.0000 0.0927578609
H   H52       1.0  0.22960  0.07650  0.75900  1.0000 0.1012586733
H   H53       1.0  0.15620  0.27920  0.71370  1.0000 0.1012586733
H   H54       1.0  0.15780  0.26690  0.60760  1.0000 0.1090480143
H   H55       1.0  0.22560  0.46730  0.83180  1.0000 0.1090480143
H   H56       1.0  0.23960  0.57080  0.82990  1.0000 0.1090480143
H   H57       1.0  0.86310  0.28470  0.07100  1.0000 0.0927578609
H   H58       1.0  0.88060  0.26550  0.18060  1.0000 0.1012586733
H   H59       1.0  0.75840  0.07600  0.04860  1.0000 0.1090480143
H   H60       1.0  0.78970  0.08590  0.16160  1.0000 0.1012586733
H   H61       1.0  0.14520  0.47170  0.66940  1.0000 0.0813515096
H   H62       1.0  0.17420  0.57220  0.66620  1.0000 0.1012586733
H   H63       1.0  0.95100  0.13690  0.16090  1.0000 0.0813515096
H   H64       1.0  0.90970  0.14750  0.04780  1.0000 0.0927578609
H   H65       1.0  0.07650  0.13830  0.59830  1.0000 0.0813515096
H   H66       1.0  0.07680  0.14980  0.70500  1.0000 0.0927578609
H   H67       1.0  0.25210  0.87690  0.65180  1.0000 0.3813126569
H   H68       1.0  0.32660  0.92560  0.62990  1.0000 0.3994654936
H   H69       1.0  0.52450  0.58380  0.45070  1.0000 0.3813126569
H   H70       1.0  0.56570  0.58710  0.54920  1.0000 0.3704638405
H   H71       1.0  0.67810  0.02950  0.85920  1.0000 0.1090480143
H   H72       1.0  0.69950  0.92980  0.84060  1.0000 0.1090480143
H   H73       1.0  0.76970  0.56650  0.84770  1.0000 0.0927578609
H   H74       1.0  0.77040  0.57650  0.74100  1.0000 0.1012586733
H   H75       1.0  0.84380  0.77920  0.78630  1.0000 0.1012586733
H   H76       1.0  0.84220  0.76690  0.89240  1.0000 0.1090480143
H   H77       1.0  0.77440  0.96730  0.66820  1.0000 0.1090480143
H   H78       1.0  0.76040  0.07080  0.67010  1.0000 0.1090480143
H   H79       1.0  0.13690  0.78470  0.42900  1.0000 0.0927578609
H   H80       1.0  0.11940  0.76550  0.31940  1.0000 0.1012586733
H   H81       1.0  0.24160  0.57600  0.45140  1.0000 0.1090480143
H   H82       1.0  0.21030  0.58590  0.33840  1.0000 0.1012586733
H   H83       1.0  0.85480  0.97170  0.83060  1.0000 0.0746774969
H   H84       1.0  0.82580  0.07220  0.83380  1.0000 0.1012586733
H   H85       1.0  0.04900  0.63690  0.33910  1.0000 0.0813515096
H   H86       1.0  0.09030  0.64750  0.45220  1.0000 0.0927578609
H   H87       1.0  0.92350  0.63830  0.90170  1.0000 0.0813515096
H   H88       1.0  0.92320  0.64980  0.79500  1.0000 0.0927578609
C   C1        1.0  0.31750  0.77130  0.01240  1.0000 0.5946480555
C   C2        1.0  0.66520  0.78450  0.18880  1.0000 0.6164956463
C   C3        1.0  0.31580  0.77220  0.84330  1.0000 0.6090416235
C   C4        1.0  0.66300  0.79450  0.35990  1.0000 0.6164956463
C   C5        1.0  0.72390  0.80620  0.29220  1.0000 -0.0795980452
C   C6        1.0  0.58270  0.57530  0.16240  1.0000 0.6561169548
C   C7        1.0  0.57640  0.41710  0.18320  1.0000 0.6354757471
C   C8        1.0  0.64600  0.49720  0.21150  1.0000 -0.0795980452
C   C9        1.0  0.25690  0.79270  0.90990  1.0000 -0.0795980452
C   C10       1.0  0.70090  0.51040  0.31970  1.0000 -0.1978376845
C   C11       1.0  0.78150  0.89420  0.30130  1.0000 -0.1902094364
C   C12       1.0  0.83010  0.76090  0.33110  1.0000 -0.1978376845
C   C13       1.0  0.75310  0.48430  0.19940  1.0000 -0.1902094364
C   C14       1.0  0.14590  0.75740  0.88360  1.0000 -0.1902094364
C   C15       1.0  0.21150  0.88600  0.89720  1.0000 -0.1902094364
C   C16       1.0  0.80130  0.48470  0.30740  1.0000 -0.1324196832
C   C17       1.0  0.10620  0.84490  0.89380  1.0000 -0.1324196832
C   C18       1.0  0.88270  0.84580  0.33720  1.0000 -0.1231557729
C   C19       1.0  0.68250  0.27130  0.48760  1.0000 0.5952147765
C   C20       1.0  0.33480  0.28450  0.31120  1.0000 0.6164956463
C   C21       1.0  0.68420  0.27220  0.65670  1.0000 0.6090416235
C   C22       1.0  0.33700  0.29450  0.14010  1.0000 0.6164956463
C   C23       1.0  0.27610  0.30620  0.20780  1.0000 -0.0795980452
C   C24       1.0  0.41730  0.07530  0.33760  1.0000 0.6561169548
C   C25       1.0  0.42360  0.91710  0.31680  1.0000 0.6354757471
C   C26       1.0  0.35400  0.99720  0.28850  1.0000 -0.0795980452
C   C27       1.0  0.74310  0.29270  0.59010  1.0000 -0.0795980452
C   C28       1.0  0.29910  0.01040  0.18030  1.0000 -0.1978376845
C   C29       1.0  0.21850  0.39420  0.19870  1.0000 -0.1902094364
C   C30       1.0  0.16990  0.26090  0.16890  1.0000 -0.1978376845
C   C31       1.0  0.24690  0.98430  0.30060  1.0000 -0.1902094364
C   C32       1.0  0.85410  0.25740  0.61640  1.0000 -0.1902094364
C   C33       1.0  0.78850  0.38600  0.60280  1.0000 -0.1902094364
C   C34       1.0  0.19870  0.98470  0.19260  1.0000 -0.1324196832
C   C35       1.0  0.89380  0.34490  0.60620  1.0000 -0.1324196832
C   C36       1.0  0.11730  0.34580  0.16280  1.0000 -0.1231557729
C   C37       1.0  0.68250  0.22870  0.98760  1.0000 0.5952147765
C   C38       1.0  0.33480  0.21550  0.81120  1.0000 0.6164956463
C   C39       1.0  0.68420  0.22780  0.15670  1.0000 0.6090416235
C   C40       1.0  0.33700  0.20550  0.64010  1.0000 0.6164956463
C   C41       1.0  0.27610  0.19380  0.70780  1.0000 -0.0795980452
C   C42       1.0  0.41730  0.42470  0.83760  1.0000 0.6561169548
C   C43       1.0  0.42360  0.58290  0.81680  1.0000 0.6354757471
C   C44       1.0  0.35400  0.50280  0.78850  1.0000 -0.0795980452
C   C45       1.0  0.74310  0.20730  0.09010  1.0000 -0.0795980452
C   C46       1.0  0.29910  0.48960  0.68030  1.0000 -0.1978376845
C   C47       1.0  0.21850  0.10580  0.69870  1.0000 -0.1902094364
C   C48       1.0  0.16990  0.23910  0.66890  1.0000 -0.1978376845
C   C49       1.0  0.24690  0.51570  0.80060  1.0000 -0.1902094364
C   C50       1.0  0.85410  0.24260  0.11640  1.0000 -0.1902094364
C   C51       1.0  0.78850  0.11400  0.10280  1.0000 -0.1902094364
C   C52       1.0  0.19870  0.51530  0.69260  1.0000 -0.1324196832
C   C53       1.0  0.89380  0.15510  0.10620  1.0000 -0.1324196832
C   C54       1.0  0.11730  0.15420  0.66280  1.0000 -0.1231557729
C   C55       1.0  0.31750  0.72870  0.51240  1.0000 0.5952147765
C   C56       1.0  0.66520  0.71550  0.68880  1.0000 0.6164956463
C   C57       1.0  0.31580  0.72780  0.34330  1.0000 0.6090416235
C   C58       1.0  0.66300  0.70550  0.85990  1.0000 0.6164956463
C   C59       1.0  0.72390  0.69380  0.79220  1.0000 -0.0795980452
C   C60       1.0  0.58270  0.92470  0.66240  1.0000 0.6561169548
C   C61       1.0  0.57640  0.08290  0.68320  1.0000 0.6354757471
C   C62       1.0  0.64600  0.00280  0.71150  1.0000 -0.0795980452
C   C63       1.0  0.25690  0.70730  0.40990  1.0000 -0.0795980452
C   C64       1.0  0.70090  0.98960  0.81970  1.0000 -0.1978376845
C   C65       1.0  0.78150  0.60580  0.80130  1.0000 -0.1902094364
C   C66       1.0  0.83010  0.73910  0.83110  1.0000 -0.1978376845
C   C67       1.0  0.75310  0.01570  0.69940  1.0000 -0.1902094364
C   C68       1.0  0.14590  0.74260  0.38360  1.0000 -0.1902094364
C   C69       1.0  0.21150  0.61400  0.39720  1.0000 -0.1902094364
C   C70       1.0  0.80130  0.01530  0.80740  1.0000 -0.1324196832
C   C71       1.0  0.10620  0.65510  0.39380  1.0000 -0.1324196832
C   C72       1.0  0.88270  0.65420  0.83720  1.0000 -0.1231557729
O   O1        1.0  0.59177  0.73727  0.34344  1.0000 -0.7308394985
O   O2        1.0  0.41040  0.79776  0.86741  1.0000 -0.7708151268
O   O3        1.0  0.71390  0.76885  0.13303  1.0000 -0.5607163983
O   O4        1.0  0.39566  0.72182  0.03127  1.0000 -0.7210130321
O   O5        1.0  0.28920  0.79958  0.07770  1.0000 -0.5607163983
O   O6        1.0  0.27500  0.73773  0.76507  1.0000 -0.5458818453
O   O7        1.0  0.56684  0.78581  0.15717  1.0000 -0.7580785977
O   O8        1.0  0.51998  0.60435  0.19974  1.0000 -0.6632915365
O   O9        1.0  0.54888  0.39207  0.09869  1.0000 -0.6172236728
O   O10       1.0  0.54878  0.38005  0.24716  1.0000 -0.6708329992
O   O11       1.0  0.31780  0.60711  0.17622  1.0000 -0.7799841391
O   O12       1.0  0.68748  0.83665  0.43678  1.0000 -0.5830433147
O   O13       1.0  0.59680  0.60615  0.08916  1.0000 -0.6432110148
O   O14       1.0  0.57400  0.89028  0.99714  1.0000 -0.7580785977
O   O15       1.0  0.40823  0.23727  0.15656  1.0000 -0.7308394985
O   O16       1.0  0.58960  0.29776  0.63259  1.0000 -0.7708151268
O   O17       1.0  0.28610  0.26885  0.36697  1.0000 -0.5607163983
O   O18       1.0  0.60434  0.22182  0.46873  1.0000 -0.7210130321
O   O19       1.0  0.71080  0.29958  0.42230  1.0000 -0.5607163983
O   O20       1.0  0.72500  0.23773  0.73493  1.0000 -0.5458818453
O   O21       1.0  0.43316  0.28581  0.34283  1.0000 -0.7580785977
O   O22       1.0  0.48002  0.10435  0.30026  1.0000 -0.6632915365
O   O23       1.0  0.45112  0.89207  0.40131  1.0000 -0.6172236728
O   O24       1.0  0.45122  0.88005  0.25284  1.0000 -0.6708329992
O   O25       1.0  0.68220  0.10711  0.32378  1.0000 -0.7799841391
O   O26       1.0  0.31252  0.33665  0.06322  1.0000 -0.5830433147
O   O27       1.0  0.40320  0.10615  0.41084  1.0000 -0.6432110148
O   O28       1.0  0.42600  0.39028  0.50286  1.0000 -0.7580785977
O   O29       1.0  0.40823  0.26273  0.65656  1.0000 -0.7308394985
O   O30       1.0  0.58960  0.20224  0.13259  1.0000 -0.7708151268
O   O31       1.0  0.28610  0.23115  0.86697  1.0000 -0.5607163983
O   O32       1.0  0.60434  0.27818  0.96873  1.0000 -0.7210130321
O   O33       1.0  0.71080  0.20042  0.92230  1.0000 -0.5607163983
O   O34       1.0  0.72500  0.26227  0.23493  1.0000 -0.5458818453
O   O35       1.0  0.43316  0.21419  0.84283  1.0000 -0.7580785977
O   O36       1.0  0.48002  0.39565  0.80026  1.0000 -0.6632915365
O   O37       1.0  0.45112  0.60793  0.90131  1.0000 -0.6172236728
O   O38       1.0  0.45122  0.61995  0.75284  1.0000 -0.6708329992
O   O39       1.0  0.68220  0.39289  0.82378  1.0000 -0.7799841391
O   O40       1.0  0.31252  0.16335  0.56322  1.0000 -0.5830433147
O   O41       1.0  0.40320  0.39385  0.91084  1.0000 -0.6432110148
O   O42       1.0  0.42600  0.10972  0.00286  1.0000 -0.7580785977
O   O43       1.0  0.59177  0.76273  0.84344  1.0000 -0.7308394985
O   O44       1.0  0.41040  0.70224  0.36741  1.0000 -0.7708151268
O   O45       1.0  0.71390  0.73115  0.63303  1.0000 -0.5607163983
O   O46       1.0  0.39566  0.77818  0.53127  1.0000 -0.7210130321
O   O47       1.0  0.28920  0.70042  0.57770  1.0000 -0.5607163983
O   O48       1.0  0.27500  0.76227  0.26507  1.0000 -0.5458818453
O   O49       1.0  0.56684  0.71419  0.65717  1.0000 -0.7580785977
O   O50       1.0  0.51998  0.89565  0.69974  1.0000 -0.6632915365
O   O51       1.0  0.54888  0.10793  0.59869  1.0000 -0.6172236728
O   O52       1.0  0.54878  0.11995  0.74716  1.0000 -0.6708329992
O   O53       1.0  0.31780  0.89289  0.67622  1.0000 -0.7799841391
O   O54       1.0  0.68748  0.66335  0.93678  1.0000 -0.5830433147
O   O55       1.0  0.59680  0.89385  0.58916  1.0000 -0.6432110148
O   O56       1.0  0.57400  0.60972  0.49714  1.0000 -0.7580785977
