# DDEC6 charges by PACMAN v1.1 (https://github.com/mtap-research/PACMAN-charge/)
data_2020[Zn][dia]3[FSR]7
_chemical_formula_sum              "Zn4 H80 C112 N8 O24"
_cell_length_a       15.9337
_cell_length_b       15.9337
_cell_length_c       18.158
_cell_angle_alpha    60.0091
_cell_angle_beta     119.991
_cell_angle_gamma    124.329

_symmetry_space_group_name_H-M    "P 1"
_symmetry_Int_Tables_number       1

loop_
  _symmetry_equiv_pos_as_xyz
  'x, y, z'

loop_
  _atom_site_type_symbol
  _atom_site_label
  _atom_site_symmetry_multiplicity
  _atom_site_fract_x
  _atom_site_fract_y
  _atom_site_fract_z
  _atom_site_occupancy
  _atom_site_charge
Zn  Zn1       1.0  0.78942  0.29474  0.24726  1.0000 0.7404856874
Zn  Zn2       1.0  0.21058  0.70526  0.75274  1.0000 0.7404856874
Zn  Zn3       1.0  0.29474  0.78942  0.25274  1.0000 0.7404856874
Zn  Zn4       1.0  0.70526  0.21058  0.74726  1.0000 0.7404856874
H   H1        1.0  0.79430  0.52750  0.34610  1.0000 0.3437875999
H   H2        1.0  0.79360  0.28300  0.99330  1.0000 0.3470405607
H   H3        1.0  0.59760  0.22340  0.28590  1.0000 0.1117600413
H   H4        1.0  0.41430  0.15310  0.22080  1.0000 0.1392564122
H   H5        1.0  0.46240  0.26080  0.98460  1.0000 0.1392564122
H   H6        1.0  0.64330  0.32450  0.05620  1.0000 0.1117600413
H   H7        1.0  0.28080  0.17220  0.98510  1.0000 0.1192780901
H   H8        1.0  0.24850  0.06850  0.14990  1.0000 0.1192780901
H   H9        1.0  0.07000  0.96620  0.15410  1.0000 0.1192780901
H   H10       1.0  0.88650  0.89290  0.08850  1.0000 0.1192780901
H   H11       1.0  0.83640  0.15060  0.43320  1.0000 0.1117600413
H   H12       1.0  0.77730  0.97010  0.50960  1.0000 0.1392564122
H   H13       1.0  0.61860  0.91020  0.27230  1.0000 0.1317872895
H   H14       1.0  0.68240  0.09120  0.20270  1.0000 0.1192780901
H   H15       1.0  0.67700  0.78480  0.51240  1.0000 0.1117600413
H   H16       1.0  0.55280  0.74680  0.34870  1.0000 0.1192780901
H   H17       1.0  0.45800  0.56740  0.34500  1.0000 0.1192780901
H   H18       1.0  0.39290  0.38490  0.41300  1.0000 0.1117600413
H   H19       1.0  0.98210  0.62490  0.51660  1.0000 0.1317872895
H   H20       1.0  0.97090  0.45930  0.87960  1.0000 0.1192780901
H   H21       1.0  0.20570  0.47250  0.65390  1.0000 0.3437875999
H   H22       1.0  0.20640  0.71700  0.00670  1.0000 0.3470405607
H   H23       1.0  0.40240  0.77660  0.71410  1.0000 0.1117600413
H   H24       1.0  0.58570  0.84690  0.77920  1.0000 0.1392564122
H   H25       1.0  0.53760  0.73920  0.01540  1.0000 0.1392564122
H   H26       1.0  0.35670  0.67550  0.94380  1.0000 0.1117600413
H   H27       1.0  0.71920  0.82780  0.01490  1.0000 0.1192780901
H   H28       1.0  0.75150  0.93150  0.85010  1.0000 0.1192780901
H   H29       1.0  0.93000  0.03380  0.84590  1.0000 0.1192780901
H   H30       1.0  0.11350  0.10710  0.91150  1.0000 0.1192780901
H   H31       1.0  0.16360  0.84940  0.56680  1.0000 0.1117600413
H   H32       1.0  0.22270  0.02990  0.49040  1.0000 0.1392564122
H   H33       1.0  0.38140  0.08980  0.72770  1.0000 0.1317872895
H   H34       1.0  0.31760  0.90880  0.79730  1.0000 0.1192780901
H   H35       1.0  0.32300  0.21520  0.48760  1.0000 0.1117600413
H   H36       1.0  0.44720  0.25320  0.65130  1.0000 0.1192780901
H   H37       1.0  0.54200  0.43260  0.65500  1.0000 0.1192780901
H   H38       1.0  0.60710  0.61510  0.58700  1.0000 0.1117600413
H   H39       1.0  0.01790  0.37510  0.48340  1.0000 0.1317872895
H   H40       1.0  0.02910  0.54070  0.12040  1.0000 0.1317872895
H   H41       1.0  0.52750  0.79430  0.15390  1.0000 0.3437875999
H   H42       1.0  0.28300  0.79360  0.50670  1.0000 0.3470405607
H   H43       1.0  0.22340  0.59760  0.21410  1.0000 0.1117600413
H   H44       1.0  0.15310  0.41430  0.27920  1.0000 0.1392564122
H   H45       1.0  0.26080  0.46240  0.51540  1.0000 0.1392564122
H   H46       1.0  0.32450  0.64330  0.44380  1.0000 0.1117600413
H   H47       1.0  0.17220  0.28080  0.51490  1.0000 0.1192780901
H   H48       1.0  0.06850  0.24850  0.35010  1.0000 0.1192780901
H   H49       1.0  0.96620  0.07000  0.34590  1.0000 0.1192780901
H   H50       1.0  0.89290  0.88650  0.41150  1.0000 0.1192780901
H   H51       1.0  0.15060  0.83640  0.06680  1.0000 0.1117600413
H   H52       1.0  0.97010  0.77730  0.99040  1.0000 0.1392564122
H   H53       1.0  0.91020  0.61860  0.22770  1.0000 0.1317872895
H   H54       1.0  0.09120  0.68240  0.29730  1.0000 0.1192780901
H   H55       1.0  0.78480  0.67700  0.98760  1.0000 0.1117600413
H   H56       1.0  0.74680  0.55280  0.15130  1.0000 0.1192780901
H   H57       1.0  0.56740  0.45800  0.15500  1.0000 0.1192780901
H   H58       1.0  0.38490  0.39290  0.08700  1.0000 0.1117600413
H   H59       1.0  0.62490  0.98210  0.98340  1.0000 0.1317872895
H   H60       1.0  0.45930  0.97090  0.62040  1.0000 0.1192780901
H   H61       1.0  0.47250  0.20570  0.84610  1.0000 0.3437875999
H   H62       1.0  0.71700  0.20640  0.49330  1.0000 0.3470405607
H   H63       1.0  0.77660  0.40240  0.78590  1.0000 0.1117600413
H   H64       1.0  0.84690  0.58570  0.72080  1.0000 0.1392564122
H   H65       1.0  0.73920  0.53760  0.48460  1.0000 0.1392564122
H   H66       1.0  0.67550  0.35670  0.55620  1.0000 0.1117600413
H   H67       1.0  0.82780  0.71920  0.48510  1.0000 0.1192780901
H   H68       1.0  0.93150  0.75150  0.64990  1.0000 0.1192780901
H   H69       1.0  0.03380  0.93000  0.65410  1.0000 0.1192780901
H   H70       1.0  0.10710  0.11350  0.58850  1.0000 0.1192780901
H   H71       1.0  0.84940  0.16360  0.93320  1.0000 0.1117600413
H   H72       1.0  0.02990  0.22270  0.00960  1.0000 0.1392564122
H   H73       1.0  0.08980  0.38140  0.77230  1.0000 0.1317872895
H   H74       1.0  0.90880  0.31760  0.70270  1.0000 0.1192780901
H   H75       1.0  0.21520  0.32300  0.01240  1.0000 0.1117600413
H   H76       1.0  0.25320  0.44720  0.84870  1.0000 0.1192780901
H   H77       1.0  0.43260  0.54200  0.84500  1.0000 0.1192780901
H   H78       1.0  0.61510  0.60710  0.91300  1.0000 0.1117600413
H   H79       1.0  0.37510  0.01790  0.01660  1.0000 0.1317872895
H   H80       1.0  0.54070  0.02910  0.37960  1.0000 0.1192780901
C   C1        1.0  0.56941  0.22879  0.22440  1.0000 0.0921695831
C   C2        1.0  0.46010  0.18730  0.18580  1.0000 -0.1800413014
C   C3        1.0  0.41692  0.19568  0.09480  1.0000 0.1720869231
C   C4        1.0  0.48815  0.25005  0.04700  1.0000 -0.1800413014
C   C5        1.0  0.59567  0.28813  0.09000  1.0000 0.0921695831
C   C6        1.0  0.30223  0.15217  0.04840  1.0000 -0.1417984379
C   C7        1.0  0.22687  0.08813  0.08670  1.0000 -0.1309493079
C   C8        1.0  0.11143  0.04357  0.04060  1.0000 0.100182375
C   C9        1.0  0.04188  0.98012  0.09120  1.0000 -0.1506496066
C   C10       1.0  0.93225  0.93655  0.05220  1.0000 -0.1506496066
C   C11       1.0  0.79085  0.10095  0.40020  1.0000 0.100182375
C   C12       1.0  0.75568  0.99312  0.44620  1.0000 -0.1871694321
C   C13       1.0  0.68935  0.91885  0.40020  1.0000 0.1720869231
C   C14       1.0  0.66270  0.95810  0.30680  1.0000 -0.1743553648
C   C15       1.0  0.70092  0.06608  0.26600  1.0000 0.0921695831
C   C16       1.0  0.65018  0.80462  0.44910  1.0000 -0.1611520381
C   C17       1.0  0.57983  0.72597  0.41200  1.0000 -0.1309493079
C   C18       1.0  0.54017  0.61163  0.45830  1.0000 0.100182375
C   C19       1.0  0.47537  0.54023  0.40820  1.0000 -0.1506496066
C   C20       1.0  0.43640  0.43140  0.44870  1.0000 -0.1506496066
C   C21       1.0  0.85065  0.40695  0.35600  1.0000 0.5678529335
C   C22       1.0  0.92654  0.45466  0.43120  1.0000 -0.1417984379
C   C23       1.0  0.91486  0.52934  0.44080  1.0000 0.2559658183
C   C24       1.0  0.98919  0.57401  0.50980  1.0000 -0.2208863007
C   C25       1.0  0.86224  0.35896  0.11320  1.0000 0.5557604922
C   C26       1.0  0.93100  0.43180  0.05210  1.0000 -0.1309493079
C   C27       1.0  0.91301  0.40739  0.97930  1.0000 0.2503031237
C   C28       1.0  0.98248  0.47572  0.92840  1.0000 -0.2401648034
C   C29       1.0  0.43059  0.77121  0.77560  1.0000 0.100182375
C   C30       1.0  0.53990  0.81270  0.81420  1.0000 -0.1800413014
C   C31       1.0  0.58308  0.80432  0.90520  1.0000 0.1720869231
C   C32       1.0  0.51185  0.74995  0.95300  1.0000 -0.1800413014
C   C33       1.0  0.40433  0.71187  0.91000  1.0000 0.0921695831
C   C34       1.0  0.69777  0.84783  0.95160  1.0000 -0.1417984379
C   C35       1.0  0.77313  0.91187  0.91330  1.0000 -0.1309493079
C   C36       1.0  0.88857  0.95643  0.95940  1.0000 0.100182375
C   C37       1.0  0.95812  0.01988  0.90880  1.0000 -0.1506496066
C   C38       1.0  0.06775  0.06345  0.94780  1.0000 -0.1506496066
C   C39       1.0  0.20915  0.89905  0.59980  1.0000 0.0921695831
C   C40       1.0  0.24432  0.00688  0.55380  1.0000 -0.1871694321
C   C41       1.0  0.31065  0.08115  0.59980  1.0000 0.1720869231
C   C42       1.0  0.33730  0.04190  0.69320  1.0000 -0.1743553648
C   C43       1.0  0.29908  0.93392  0.73400  1.0000 0.0921695831
C   C44       1.0  0.34982  0.19538  0.55090  1.0000 -0.1611520381
C   C45       1.0  0.42017  0.27403  0.58800  1.0000 -0.1309493079
C   C46       1.0  0.45983  0.38837  0.54170  1.0000 0.100182375
C   C47       1.0  0.52463  0.45977  0.59180  1.0000 -0.1506496066
C   C48       1.0  0.56360  0.56860  0.55130  1.0000 -0.1506496066
C   C49       1.0  0.14935  0.59305  0.64400  1.0000 0.5678529335
C   C50       1.0  0.07346  0.54534  0.56880  1.0000 -0.1417984379
C   C51       1.0  0.08514  0.47066  0.55920  1.0000 0.2559658183
C   C52       1.0  0.01081  0.42599  0.49020  1.0000 -0.2208863007
C   C53       1.0  0.13776  0.64104  0.88680  1.0000 0.5557604922
C   C54       1.0  0.06900  0.56820  0.94790  1.0000 -0.1309493079
C   C55       1.0  0.08699  0.59261  0.02070  1.0000 0.2503031237
C   C56       1.0  0.01752  0.52428  0.07160  1.0000 -0.2401648034
C   C57       1.0  0.22879  0.56941  0.27560  1.0000 0.0921695831
C   C58       1.0  0.18730  0.46010  0.31420  1.0000 -0.1800413014
C   C59       1.0  0.19568  0.41692  0.40520  1.0000 0.1720869231
C   C60       1.0  0.25005  0.48815  0.45300  1.0000 -0.1800413014
C   C61       1.0  0.28813  0.59567  0.41000  1.0000 0.0921695831
C   C62       1.0  0.15217  0.30223  0.45160  1.0000 -0.1417984379
C   C63       1.0  0.08813  0.22687  0.41330  1.0000 -0.1309493079
C   C64       1.0  0.04357  0.11143  0.45940  1.0000 0.100182375
C   C65       1.0  0.98012  0.04188  0.40880  1.0000 -0.1506496066
C   C66       1.0  0.93655  0.93225  0.44780  1.0000 -0.1506496066
C   C67       1.0  0.10095  0.79085  0.09980  1.0000 0.0921695831
C   C68       1.0  0.99312  0.75568  0.05380  1.0000 -0.1871694321
C   C69       1.0  0.91885  0.68935  0.09980  1.0000 0.1720869231
C   C70       1.0  0.95810  0.66270  0.19320  1.0000 -0.1743553648
C   C71       1.0  0.06608  0.70092  0.23400  1.0000 0.0921695831
C   C72       1.0  0.80462  0.65018  0.05090  1.0000 -0.1611520381
C   C73       1.0  0.72597  0.57983  0.08800  1.0000 -0.1309493079
C   C74       1.0  0.61163  0.54017  0.04170  1.0000 0.100182375
C   C75       1.0  0.54023  0.47537  0.09180  1.0000 -0.1506496066
C   C76       1.0  0.43140  0.43640  0.05130  1.0000 -0.1506496066
C   C77       1.0  0.40695  0.85065  0.14400  1.0000 0.5678529335
C   C78       1.0  0.45466  0.92654  0.06880  1.0000 -0.1417984379
C   C79       1.0  0.52934  0.91486  0.05920  1.0000 0.2559658183
C   C80       1.0  0.57401  0.98919  0.99020  1.0000 -0.2208863007
C   C81       1.0  0.35896  0.86224  0.38680  1.0000 0.5557604922
C   C82       1.0  0.43180  0.93100  0.44790  1.0000 -0.1309493079
C   C83       1.0  0.40739  0.91301  0.52070  1.0000 0.2503031237
C   C84       1.0  0.47572  0.98248  0.57160  1.0000 -0.2401648034
C   C85       1.0  0.77121  0.43059  0.72440  1.0000 0.0921695831
C   C86       1.0  0.81270  0.53990  0.68580  1.0000 -0.1800413014
C   C87       1.0  0.80432  0.58308  0.59480  1.0000 0.1720869231
C   C88       1.0  0.74995  0.51185  0.54700  1.0000 -0.1800413014
C   C89       1.0  0.71187  0.40433  0.59000  1.0000 0.0921695831
C   C90       1.0  0.84783  0.69777  0.54840  1.0000 -0.1417984379
C   C91       1.0  0.91187  0.77313  0.58670  1.0000 -0.1309493079
C   C92       1.0  0.95643  0.88857  0.54060  1.0000 0.100182375
C   C93       1.0  0.01988  0.95812  0.59120  1.0000 -0.1506496066
C   C94       1.0  0.06345  0.06775  0.55220  1.0000 -0.1506496066
C   C95       1.0  0.89905  0.20915  0.90020  1.0000 0.100182375
C   C96       1.0  0.00688  0.24432  0.94620  1.0000 -0.1871694321
C   C97       1.0  0.08115  0.31065  0.90020  1.0000 0.1720869231
C   C98       1.0  0.04190  0.33730  0.80680  1.0000 -0.1743553648
C   C99       1.0  0.93392  0.29908  0.76600  1.0000 0.0921695831
C   C100      1.0  0.19538  0.34982  0.94910  1.0000 -0.1611520381
C   C101      1.0  0.27403  0.42017  0.91200  1.0000 -0.1309493079
C   C102      1.0  0.38837  0.45983  0.95830  1.0000 0.100182375
C   C103      1.0  0.45977  0.52463  0.90820  1.0000 -0.1506496066
C   C104      1.0  0.56860  0.56360  0.94870  1.0000 -0.1506496066
C   C105      1.0  0.59305  0.14935  0.85600  1.0000 0.5678529335
C   C106      1.0  0.54534  0.07346  0.93120  1.0000 -0.1417984379
C   C107      1.0  0.47066  0.08514  0.94080  1.0000 0.2559658183
C   C108      1.0  0.42599  0.01081  0.00980  1.0000 -0.2208863007
C   C109      1.0  0.64104  0.13776  0.61320  1.0000 0.5557604922
C   C110      1.0  0.56820  0.06900  0.55210  1.0000 -0.1309493079
C   C111      1.0  0.59261  0.08699  0.47930  1.0000 0.2503031237
C   C112      1.0  0.52428  0.01752  0.42840  1.0000 -0.2401648034
N   N1        1.0  0.63700  0.27634  0.17815  1.0000 -0.2401648034
N   N2        1.0  0.76326  0.13828  0.31065  1.0000 -0.2401648034
N   N3        1.0  0.36300  0.72366  0.82185  1.0000 -0.2401648034
N   N4        1.0  0.23674  0.86172  0.68935  1.0000 -0.2401648034
N   N5        1.0  0.27634  0.63700  0.32185  1.0000 -0.2401648034
N   N6        1.0  0.13828  0.76326  0.18935  1.0000 -0.2401648034
N   N7        1.0  0.72366  0.36300  0.67815  1.0000 -0.2401648034
N   N8        1.0  0.86172  0.23674  0.81065  1.0000 -0.2401648034
O   O1        1.0  0.86855  0.34591  0.34964  1.0000 -0.5000249216
O   O2        1.0  0.77251  0.43171  0.30473  1.0000 -0.5636942791
O   O3        1.0  0.83322  0.55998  0.38452  1.0000 -0.4655677335
O   O4        1.0  0.88133  0.38663  0.17286  1.0000 -0.5000249216
O   O5        1.0  0.78401  0.27309  0.09406  1.0000 -0.5852333413
O   O6        1.0  0.82857  0.31829  0.95691  1.0000 -0.460306737
O   O7        1.0  0.13145  0.65409  0.65036  1.0000 -0.5000249216
O   O8        1.0  0.22749  0.56829  0.69527  1.0000 -0.5636942791
O   O9        1.0  0.16678  0.44002  0.61548  1.0000 -0.4655677335
O   O10       1.0  0.11867  0.61337  0.82714  1.0000 -0.5000249216
O   O11       1.0  0.21599  0.72691  0.90594  1.0000 -0.584767233
O   O12       1.0  0.17143  0.68171  0.04309  1.0000 -0.460306737
O   O13       1.0  0.34591  0.86855  0.15036  1.0000 -0.5000249216
O   O14       1.0  0.43171  0.77251  0.19527  1.0000 -0.5636942791
O   O15       1.0  0.55998  0.83322  0.11548  1.0000 -0.4655677335
O   O16       1.0  0.38663  0.88133  0.32714  1.0000 -0.5000249216
O   O17       1.0  0.27309  0.78401  0.40594  1.0000 -0.5852333413
O   O18       1.0  0.31829  0.82857  0.54309  1.0000 -0.460306737
O   O19       1.0  0.65409  0.13145  0.84964  1.0000 -0.5000249216
O   O20       1.0  0.56829  0.22749  0.80473  1.0000 -0.5636942791
O   O21       1.0  0.44002  0.16678  0.88452  1.0000 -0.4655677335
O   O22       1.0  0.61337  0.11867  0.67286  1.0000 -0.5000249216
O   O23       1.0  0.72691  0.21599  0.59406  1.0000 -0.5852333413
O   O24       1.0  0.68171  0.17143  0.45691  1.0000 -0.460306737
