# DDEC6 charges by PACMAN v1.1 (https://github.com/mtap-research/PACMAN-charge/)
data_2020[Cu][sql]2[FSR]16
_chemical_formula_sum              "Cu2 H28 C32 N8 O12"
_cell_length_a       6.5541
_cell_length_b       18.0179
_cell_length_c       12.3358
_cell_angle_alpha    90
_cell_angle_beta     117.977
_cell_angle_gamma    90

_symmetry_space_group_name_H-M    "P 1"
_symmetry_Int_Tables_number       1

loop_
  _symmetry_equiv_pos_as_xyz
  'x, y, z'

loop_
  _atom_site_type_symbol
  _atom_site_label
  _atom_site_symmetry_multiplicity
  _atom_site_fract_x
  _atom_site_fract_y
  _atom_site_fract_z
  _atom_site_occupancy
  _atom_site_charge
Cu  Cu1       1.0  0.00000  0.00000  0.00000  1.0000 0.8242628644
Cu  Cu2       1.0  0.00000  0.50000  0.50000  1.0000 0.825363345
H   H1        1.0  0.67610  0.36970  0.29660  1.0000 0.1268916038
H   H2        1.0  0.48580  0.25970  0.41210  1.0000 0.1392558734
H   H3        1.0  0.67900  0.22910  0.17490  1.0000 0.1268916038
H   H4        1.0  0.33130  0.15780  0.28520  1.0000 0.1268916038
H   H5        1.0  0.33820  0.38700  0.48430  1.0000 0.2927658851
H   H6        1.0  0.63160  0.03700  0.95910  1.0000 0.2927658851
H   H7        1.0  0.56130  0.00780  0.85520  1.0000 0.2775109927
H   H8        1.0  0.32390  0.86970  0.20340  1.0000 0.1268916038
H   H9        1.0  0.51420  0.75970  0.08790  1.0000 0.1392558734
H   H10       1.0  0.32100  0.72910  0.32510  1.0000 0.1268916038
H   H11       1.0  0.66870  0.65780  0.21480  1.0000 0.1268916038
H   H12       1.0  0.66180  0.88700  0.01570  1.0000 0.2927658851
H   H13       1.0  0.36840  0.53700  0.54090  1.0000 0.2927658851
H   H14       1.0  0.43870  0.50780  0.64480  1.0000 0.2775109927
H   H15       1.0  0.32390  0.63030  0.70340  1.0000 0.1268916038
H   H16       1.0  0.51420  0.74030  0.58790  1.0000 0.1392558734
H   H17       1.0  0.32100  0.77090  0.82510  1.0000 0.1268916038
H   H18       1.0  0.66870  0.84220  0.71480  1.0000 0.1268916038
H   H19       1.0  0.66180  0.61300  0.51570  1.0000 0.2927658851
H   H20       1.0  0.36840  0.96300  0.04090  1.0000 0.2927658851
H   H21       1.0  0.43870  0.99220  0.14480  1.0000 0.2775109927
H   H22       1.0  0.67610  0.13030  0.79660  1.0000 0.1268916038
H   H23       1.0  0.48580  0.24030  0.91210  1.0000 0.1392558734
H   H24       1.0  0.67900  0.27090  0.67490  1.0000 0.1268916038
H   H25       1.0  0.33130  0.34220  0.78520  1.0000 0.1268916038
H   H26       1.0  0.33820  0.11300  0.98430  1.0000 0.2927658851
H   H27       1.0  0.63160  0.46300  0.45910  1.0000 0.2927658851
H   H28       1.0  0.56130  0.49220  0.35520  1.0000 0.2775109927
C   C1        1.0  0.83316  0.35991  0.32906  1.0000 -0.0353510831
C   C2        1.0  0.92870  0.29661  0.30050  1.0000 -0.0005913306
C   C3        1.0  0.16976  0.30525  0.37086  1.0000 0.1556118797
C   C4        1.0  0.32689  0.25351  0.36609  1.0000 -0.1735822601
C   C5        1.0  0.83769  0.23514  0.22229  1.0000 -0.1529856254
C   C6        1.0  0.99055  0.18382  0.21775  1.0000 -0.0204016254
C   C7        1.0  0.23288  0.19342  0.28978  1.0000 -0.1013839324
C   C8        1.0  0.89643  0.11824  0.13303  1.0000 0.56957408
C   C9        1.0  0.16684  0.85991  0.17094  1.0000 -0.0353510831
C   C10       1.0  0.07130  0.79661  0.19950  1.0000 -0.0005913306
C   C11       1.0  0.83024  0.80525  0.12914  1.0000 0.1556118797
C   C12       1.0  0.67311  0.75351  0.13391  1.0000 -0.1735822601
C   C13       1.0  0.16231  0.73514  0.27771  1.0000 -0.1529856254
C   C14       1.0  0.00945  0.68382  0.28225  1.0000 -0.0204016254
C   C15       1.0  0.76712  0.69342  0.21022  1.0000 -0.1013839324
C   C16       1.0  0.10357  0.61824  0.36697  1.0000 0.56957408
C   C17       1.0  0.16684  0.64009  0.67094  1.0000 -0.0353510831
C   C18       1.0  0.07130  0.70339  0.69950  1.0000 -0.0005913306
C   C19       1.0  0.83024  0.69475  0.62914  1.0000 0.1556118797
C   C20       1.0  0.67311  0.74649  0.63391  1.0000 -0.1735822601
C   C21       1.0  0.16231  0.76486  0.77771  1.0000 -0.1529856254
C   C22       1.0  0.00945  0.81618  0.78225  1.0000 -0.0204016254
C   C23       1.0  0.76712  0.80658  0.71022  1.0000 -0.1013839324
C   C24       1.0  0.10357  0.88176  0.86697  1.0000 0.56957408
C   C25       1.0  0.83316  0.14009  0.82906  1.0000 -0.0353510831
C   C26       1.0  0.92870  0.20339  0.80050  1.0000 -0.0005913306
C   C27       1.0  0.16976  0.19475  0.87086  1.0000 0.1556118797
C   C28       1.0  0.32689  0.24649  0.86609  1.0000 -0.1735822601
C   C29       1.0  0.83769  0.26486  0.72229  1.0000 -0.1529856254
C   C30       1.0  0.99055  0.31618  0.71775  1.0000 -0.0204016254
C   C31       1.0  0.23288  0.30658  0.78978  1.0000 -0.1013839324
C   C32       1.0  0.89643  0.38176  0.63303  1.0000 0.56957408
N   N1        1.0  0.00049  0.40274  0.40849  1.0000 -0.1793298167
N   N2        1.0  0.20462  0.36955  0.43432  1.0000 -0.1354454686
N   N3        1.0  0.99951  0.90274  0.09151  1.0000 -0.1793298167
N   N4        1.0  0.79538  0.86955  0.06568  1.0000 -0.1354454686
N   N5        1.0  0.99951  0.59726  0.59151  1.0000 -0.1793298167
N   N6        1.0  0.79538  0.63045  0.56568  1.0000 -0.1354454686
N   N7        1.0  0.00049  0.09726  0.90849  1.0000 -0.1793298167
N   N8        1.0  0.20462  0.13045  0.93432  1.0000 -0.1354454686
O   O1        1.0  0.03778  0.06692  0.14438  1.0000 -0.5507145454
O   O2        1.0  0.68533  0.11893  0.05653  1.0000 -0.5639886786
O   O3        1.0  0.64608  0.99970  0.92670  1.0000 -0.6067915936
O   O4        1.0  0.96222  0.56692  0.35562  1.0000 -0.5507145454
O   O5        1.0  0.31467  0.61893  0.44347  1.0000 -0.5639886786
O   O6        1.0  0.35392  0.49970  0.57330  1.0000 -0.6067915936
O   O7        1.0  0.96222  0.93308  0.85562  1.0000 -0.5507145454
O   O8        1.0  0.31467  0.88107  0.94347  1.0000 -0.5639886786
O   O9        1.0  0.35392  0.00030  0.07330  1.0000 -0.6067915936
O   O10       1.0  0.03778  0.43308  0.64438  1.0000 -0.5507145454
O   O11       1.0  0.68533  0.38107  0.55653  1.0000 -0.5639886786
O   O12       1.0  0.64608  0.50030  0.42670  1.0000 -0.6067915936
