# DDEC6 charges by PACMAN v1.1 (https://github.com/mtap-research/PACMAN-charge/)
data_2020[Tb][sql]2[FSR]1
_chemical_formula_sum              "Tb4 H34 C42 N6 O32"
_cell_length_a       12.3586
_cell_length_b       12.3586
_cell_length_c       20.108
_cell_angle_alpha    74.5669
_cell_angle_beta     105.433
_cell_angle_gamma    151.941

_symmetry_space_group_name_H-M    "P 1"
_symmetry_Int_Tables_number       1

loop_
  _symmetry_equiv_pos_as_xyz
  'x, y, z'

loop_
  _atom_site_type_symbol
  _atom_site_label
  _atom_site_symmetry_multiplicity
  _atom_site_fract_x
  _atom_site_fract_y
  _atom_site_fract_z
  _atom_site_occupancy
  _atom_site_charge
Tb  Tb1       1.0  0.49976  0.82720  0.53596  1.0000 1.9930495817
Tb  Tb2       1.0  0.82720  0.49976  0.96404  1.0000 1.9930495817
Tb  Tb3       1.0  0.50024  0.17280  0.46404  1.0000 1.9930495817
Tb  Tb4       1.0  0.17280  0.50024  0.03596  1.0000 1.9930495817
H   H1        1.0  0.83900  0.99900  0.48400  1.0000 0.3629887972
H   H2        1.0  0.96400  0.14800  0.53300  1.0000 0.3754664558
H   H3        1.0  0.83380  0.25820  0.58500  1.0000 0.3399261731
H   H4        1.0  0.95100  0.26900  0.59200  1.0000 0.3330378879
H   H5        1.0  0.28140  0.52400  0.32690  1.0000 0.1369141686
H   H6        1.0  0.04110  0.27890  0.23840  1.0000 0.1109494044
H   H7        1.0  0.53040  0.99460  0.29630  1.0000 0.1109494044
H   H8        1.0  0.98210  0.09410  0.66070  1.0000 0.1109494044
H   H9        1.0  0.99900  0.83900  0.01600  1.0000 0.3629887972
H   H10       1.0  0.14800  0.96400  0.96700  1.0000 0.3754664558
H   H11       1.0  0.25820  0.83380  0.91500  1.0000 0.3399261731
H   H12       1.0  0.26900  0.95100  0.90800  1.0000 0.3330378879
H   H13       1.0  0.52400  0.28140  0.17310  1.0000 0.1369141686
H   H14       1.0  0.27890  0.04110  0.26160  1.0000 0.1109494044
H   H15       1.0  0.99460  0.53040  0.20370  1.0000 0.1109494044
H   H16       1.0  0.09410  0.98210  0.83930  1.0000 0.1109494044
H   H17       1.0  0.16100  0.00100  0.51600  1.0000 0.3629887972
H   H18       1.0  0.03600  0.85200  0.46700  1.0000 0.3754664558
H   H19       1.0  0.16620  0.74180  0.41500  1.0000 0.3399261731
H   H20       1.0  0.04900  0.73100  0.40800  1.0000 0.3330378879
H   H21       1.0  0.71860  0.47600  0.67310  1.0000 0.1369141686
H   H22       1.0  0.95890  0.72110  0.76160  1.0000 0.1109494044
H   H23       1.0  0.46960  0.00540  0.70370  1.0000 0.1109494044
H   H24       1.0  0.01790  0.90590  0.33930  1.0000 0.1109494044
H   H25       1.0  0.00100  0.16100  0.98400  1.0000 0.3629887972
H   H26       1.0  0.85200  0.03600  0.03300  1.0000 0.3754664558
H   H27       1.0  0.74180  0.16620  0.08500  1.0000 0.3399261731
H   H28       1.0  0.73100  0.04900  0.09200  1.0000 0.3330378879
H   H29       1.0  0.47600  0.71860  0.82690  1.0000 0.1369141686
H   H30       1.0  0.72110  0.95890  0.73840  1.0000 0.1109494044
H   H31       1.0  0.00540  0.46960  0.79630  1.0000 0.1109494044
H   H32       1.0  0.90590  0.01790  0.16070  1.0000 0.1109494044
H   H33       1.0  0.61920  0.61920  0.75000  1.0000 0.1188868109
H   H34       1.0  0.38080  0.38080  0.25000  1.0000 0.1188868109
C   C1        1.0  0.20610  0.55250  0.42450  1.0000 0.560689767
C   C2        1.0  0.04850  0.40130  0.36560  1.0000 -0.0259809148
C   C3        1.0  0.12900  0.41500  0.32110  1.0000 -0.1438538794
C   C4        1.0  0.98610  0.26910  0.26800  1.0000 0.0738789636
C   C5        1.0  0.68060  0.09880  0.30310  1.0000 0.0399201151
C   C6        1.0  0.82240  0.24160  0.35610  1.0000 -0.0719600167
C   C7        1.0  0.72580  0.22580  0.39790  1.0000 0.6376289326
C   C8        1.0  0.38630  0.53390  0.63490  1.0000 0.5826230246
C   C9        1.0  0.31190  0.37970  0.69440  1.0000 -0.0719600167
C   C10       1.0  0.08390  0.14870  0.69780  1.0000 0.0584011424
C   C11       1.0  0.55250  0.20610  0.07550  1.0000 0.560689767
C   C12       1.0  0.40130  0.04850  0.13440  1.0000 -0.0259809148
C   C13       1.0  0.41500  0.12900  0.17890  1.0000 -0.1438538794
C   C14       1.0  0.26910  0.98610  0.23200  1.0000 0.0738789636
C   C15       1.0  0.09880  0.68060  0.19690  1.0000 0.0399201151
C   C16       1.0  0.24160  0.82240  0.14390  1.0000 -0.0719600167
C   C17       1.0  0.22580  0.72580  0.10210  1.0000 0.6376289326
C   C18       1.0  0.53390  0.38630  0.86510  1.0000 0.5826230246
C   C19       1.0  0.37970  0.31190  0.80560  1.0000 -0.0719600167
C   C20       1.0  0.14870  0.08390  0.80220  1.0000 0.0584011424
C   C21       1.0  0.79390  0.44750  0.57550  1.0000 0.560689767
C   C22       1.0  0.95150  0.59870  0.63440  1.0000 -0.0259809148
C   C23       1.0  0.87100  0.58500  0.67890  1.0000 -0.1438538794
C   C24       1.0  0.01390  0.73090  0.73200  1.0000 0.0738789636
C   C25       1.0  0.31940  0.90120  0.69690  1.0000 0.0399201151
C   C26       1.0  0.17760  0.75840  0.64390  1.0000 -0.0719600167
C   C27       1.0  0.27420  0.77420  0.60210  1.0000 0.6376289326
C   C28       1.0  0.61370  0.46610  0.36510  1.0000 0.5826230246
C   C29       1.0  0.68810  0.62030  0.30560  1.0000 -0.0719600167
C   C30       1.0  0.91610  0.85130  0.30220  1.0000 0.0584011424
C   C31       1.0  0.44750  0.79390  0.92450  1.0000 0.560689767
C   C32       1.0  0.59870  0.95150  0.86560  1.0000 -0.0259809148
C   C33       1.0  0.58500  0.87100  0.82110  1.0000 -0.1438538794
C   C34       1.0  0.73090  0.01390  0.76800  1.0000 0.0738789636
C   C35       1.0  0.90120  0.31940  0.80310  1.0000 0.0399201151
C   C36       1.0  0.75840  0.17760  0.85610  1.0000 -0.0719600167
C   C37       1.0  0.77420  0.27420  0.89790  1.0000 0.6376289326
C   C38       1.0  0.46610  0.61370  0.13490  1.0000 0.5826230246
C   C39       1.0  0.62030  0.68810  0.19440  1.0000 -0.0719600167
C   C40       1.0  0.85130  0.91610  0.19780  1.0000 0.0584011424
C   C41       1.0  0.46400  0.46400  0.75000  1.0000 -0.0719600167
C   C42       1.0  0.53600  0.53600  0.25000  1.0000 -0.0719600167
N   N1        1.0  0.75850  0.10730  0.25950  1.0000 -0.2289847908
N   N2        1.0  0.10730  0.75850  0.24050  1.0000 -0.2289847908
N   N3        1.0  0.24150  0.89270  0.74050  1.0000 -0.2289847908
N   N4        1.0  0.89270  0.24150  0.75950  1.0000 -0.2289847908
N   N5        1.0  0.99820  0.99820  0.75000  1.0000 -0.2211500209
N   N6        1.0  0.00180  0.00180  0.25000  1.0000 -0.2211500209
O   O1        1.0  0.39150  0.66150  0.43890  1.0000 -0.6074654263
O   O2        1.0  0.83340  0.03320  0.51170  1.0000 -0.7541750473
O   O3        1.0  0.15420  0.57180  0.45950  1.0000 -0.5710874897
O   O4        1.0  0.81600  0.17340  0.59190  1.0000 -0.759936611
O   O5        1.0  0.73190  0.33470  0.37780  1.0000 -0.5622316402
O   O6        1.0  0.61500  0.08220  0.44980  1.0000 -0.7197945666
O   O7        1.0  0.57670  0.74410  0.63740  1.0000 -0.5813773673
O   O8        1.0  0.24500  0.44480  0.58250  1.0000 -0.6414538425
O   O9        1.0  0.66150  0.39150  0.06110  1.0000 -0.6074654263
O   O10       1.0  0.03320  0.83340  0.98830  1.0000 -0.7541750473
O   O11       1.0  0.57180  0.15420  0.04050  1.0000 -0.5710874897
O   O12       1.0  0.17340  0.81600  0.90810  1.0000 -0.759936611
O   O13       1.0  0.33470  0.73190  0.12220  1.0000 -0.5622316402
O   O14       1.0  0.08220  0.61500  0.05020  1.0000 -0.7197945666
O   O15       1.0  0.74410  0.57670  0.86260  1.0000 -0.5813773673
O   O16       1.0  0.44480  0.24500  0.91750  1.0000 -0.6414538425
O   O17       1.0  0.60850  0.33850  0.56110  1.0000 -0.6074654263
O   O18       1.0  0.16660  0.96680  0.48830  1.0000 -0.7541750473
O   O19       1.0  0.84580  0.42820  0.54050  1.0000 -0.5710874897
O   O20       1.0  0.18400  0.82660  0.40810  1.0000 -0.759936611
O   O21       1.0  0.26810  0.66530  0.62220  1.0000 -0.5622316402
O   O22       1.0  0.38500  0.91780  0.55020  1.0000 -0.7197945666
O   O23       1.0  0.42330  0.25590  0.36260  1.0000 -0.5813773673
O   O24       1.0  0.75500  0.55520  0.41750  1.0000 -0.6414538425
O   O25       1.0  0.33850  0.60850  0.93890  1.0000 -0.6074654263
O   O26       1.0  0.96680  0.16660  0.01170  1.0000 -0.7541750473
O   O27       1.0  0.42820  0.84580  0.95950  1.0000 -0.5710874897
O   O28       1.0  0.82660  0.18400  0.09190  1.0000 -0.759936611
O   O29       1.0  0.66530  0.26810  0.87780  1.0000 -0.5622316402
O   O30       1.0  0.91780  0.38500  0.94980  1.0000 -0.7197945666
O   O31       1.0  0.25590  0.42330  0.13740  1.0000 -0.5813773673
O   O32       1.0  0.55520  0.75500  0.08250  1.0000 -0.6414538425
