# DDEC6 charges by PACMAN v1.1 (https://github.com/mtap-research/PACMAN-charge/)
data_2020[Cd][hcb]2[FSR]4
_chemical_formula_sum              "Cd4 H60 C76 Br4 N8 O20"
_cell_length_a       8.5537
_cell_length_b       25.3923
_cell_length_c       10.0743
_cell_angle_alpha    90
_cell_angle_beta     92.62
_cell_angle_gamma    90

_symmetry_space_group_name_H-M    "P 1"
_symmetry_Int_Tables_number       1

loop_
  _symmetry_equiv_pos_as_xyz
  'x, y, z'

loop_
  _atom_site_type_symbol
  _atom_site_label
  _atom_site_symmetry_multiplicity
  _atom_site_fract_x
  _atom_site_fract_y
  _atom_site_fract_z
  _atom_site_occupancy
  _atom_site_charge
Cd  Cd1       1.0  0.41091  0.58265  0.28544  1.0000 0.8909216997
Cd  Cd2       1.0  0.08909  0.08265  0.71456  1.0000 0.8909216997
Cd  Cd3       1.0  0.58909  0.41735  0.71456  1.0000 0.8909216997
Cd  Cd4       1.0  0.91091  0.91735  0.28544  1.0000 0.8909216997
H   H1        1.0  0.44540  0.58300  0.79960  1.0000 0.1207614391
H   H2        1.0  0.71520  0.68960  0.99290  1.0000 0.1386348953
H   H3        1.0  0.70190  0.68460  0.59750  1.0000 0.1386348953
H   H4        1.0  0.90100  0.73740  0.71930  1.0000 0.1303614927
H   H5        1.0  0.90020  0.74060  0.87490  1.0000 0.1303614927
H   H6        1.0  0.73390  0.80090  0.97630  1.0000 0.1303614927
H   H7        1.0  0.58450  0.87630  0.96470  1.0000 0.1469435719
H   H8        1.0  0.58770  0.86860  0.57060  1.0000 0.1386348953
H   H9        1.0  0.73670  0.79370  0.58900  1.0000 0.1303614927
H   H10       1.0  0.42470  0.93660  0.94840  1.0000 0.1386348953
H   H11       1.0  0.25150  0.00440  0.92170  1.0000 0.1207614391
H   H12       1.0  0.28630  0.00420  0.54440  1.0000 0.1115459082
H   H13       1.0  0.45530  0.93420  0.55550  1.0000 0.1386348953
H   H14       1.0  0.59600  0.48800  0.33100  1.0000 0.3844902915
H   H15       1.0  0.70700  0.52100  0.26600  1.0000 0.3860070435
H   H16       1.0  0.05460  0.08300  0.20040  1.0000 0.1207614391
H   H17       1.0  0.78480  0.18960  0.00710  1.0000 0.1386348953
H   H18       1.0  0.79810  0.18460  0.40250  1.0000 0.1386348953
H   H19       1.0  0.59900  0.23740  0.28070  1.0000 0.1303614927
H   H20       1.0  0.59980  0.24060  0.12510  1.0000 0.1303614927
H   H21       1.0  0.76610  0.30090  0.02370  1.0000 0.1303614927
H   H22       1.0  0.91550  0.37630  0.03530  1.0000 0.1469435719
H   H23       1.0  0.91230  0.36860  0.42940  1.0000 0.1386348953
H   H24       1.0  0.76330  0.29370  0.41100  1.0000 0.1303614927
H   H25       1.0  0.07530  0.43660  0.05160  1.0000 0.1386348953
H   H26       1.0  0.24850  0.50440  0.07830  1.0000 0.1207614391
H   H27       1.0  0.21370  0.50420  0.45560  1.0000 0.1115459082
H   H28       1.0  0.04470  0.43420  0.44450  1.0000 0.1386348953
H   H29       1.0  0.90400  0.98800  0.66900  1.0000 0.3844902915
H   H30       1.0  0.79300  0.02100  0.73400  1.0000 0.3860070435
H   H31       1.0  0.55460  0.41700  0.20040  1.0000 0.1207614391
H   H32       1.0  0.28480  0.31040  0.00710  1.0000 0.1386348953
H   H33       1.0  0.29810  0.31540  0.40250  1.0000 0.1386348953
H   H34       1.0  0.09900  0.26260  0.28070  1.0000 0.1303614927
H   H35       1.0  0.09980  0.25940  0.12510  1.0000 0.1303614927
H   H36       1.0  0.26610  0.19910  0.02370  1.0000 0.1303614927
H   H37       1.0  0.41550  0.12370  0.03530  1.0000 0.1469435719
H   H38       1.0  0.41230  0.13140  0.42940  1.0000 0.1386348953
H   H39       1.0  0.26330  0.20630  0.41100  1.0000 0.1303614927
H   H40       1.0  0.57530  0.06340  0.05160  1.0000 0.1386348953
H   H41       1.0  0.74850  0.99560  0.07830  1.0000 0.1207614391
H   H42       1.0  0.71370  0.99580  0.45560  1.0000 0.1115459082
H   H43       1.0  0.54470  0.06580  0.44450  1.0000 0.1386348953
H   H44       1.0  0.40400  0.51200  0.66900  1.0000 0.3844902915
H   H45       1.0  0.29300  0.47900  0.73400  1.0000 0.3860070435
H   H46       1.0  0.94540  0.91700  0.79960  1.0000 0.1207614391
H   H47       1.0  0.21520  0.81040  0.99290  1.0000 0.1386348953
H   H48       1.0  0.20190  0.81540  0.59750  1.0000 0.1386348953
H   H49       1.0  0.40100  0.76260  0.71930  1.0000 0.1303614927
H   H50       1.0  0.40020  0.75940  0.87490  1.0000 0.1303614927
H   H51       1.0  0.23390  0.69910  0.97630  1.0000 0.1303614927
H   H52       1.0  0.08450  0.62370  0.96470  1.0000 0.1469435719
H   H53       1.0  0.08770  0.63140  0.57060  1.0000 0.1386348953
H   H54       1.0  0.23670  0.70630  0.58900  1.0000 0.1303614927
H   H55       1.0  0.92470  0.56340  0.94840  1.0000 0.1386348953
H   H56       1.0  0.75150  0.49560  0.92170  1.0000 0.1207614391
H   H57       1.0  0.78630  0.49580  0.54440  1.0000 0.1115459082
H   H58       1.0  0.95530  0.56580  0.55550  1.0000 0.1386348953
H   H59       1.0  0.09600  0.01200  0.33100  1.0000 0.3844902915
H   H60       1.0  0.20700  0.97900  0.26600  1.0000 0.3860070435
C   C1        1.0  0.56450  0.62980  0.67780  1.0000 -0.0182750547
C   C2        1.0  0.51540  0.61100  0.79810  1.0000 -0.1436767253
C   C3        1.0  0.56970  0.63360  0.91540  1.0000 -0.0110274978
C   C4        1.0  0.67630  0.67490  0.91340  1.0000 -0.1794066625
C   C5        1.0  0.72420  0.69420  0.79540  1.0000 0.0841020335
C   C6        1.0  0.66880  0.67160  0.67780  1.0000 -0.1794066625
C   C7        1.0  0.50110  0.60690  0.54990  1.0000 0.5413671163
C   C8        1.0  0.51570  0.61350  0.04480  1.0000 0.519949886
C   C9        1.0  0.83410  0.74050  0.79410  1.0000 -0.1994208766
C   C10       1.0  0.70260  0.81470  0.89380  1.0000 0.0372965773
C   C11       1.0  0.61330  0.85980  0.88710  1.0000 -0.1734938147
C   C12       1.0  0.56620  0.88070  0.76460  1.0000 0.1115459082
C   C13       1.0  0.61530  0.85520  0.65450  1.0000 -0.1794066625
C   C14       1.0  0.70440  0.81040  0.66520  1.0000 0.0346231525
C   C15       1.0  0.46350  0.92730  0.75360  1.0000 0.1115459082
C   C16       1.0  0.39890  0.94950  0.86380  1.0000 -0.1994208766
C   C17       1.0  0.29650  0.99060  0.84690  1.0000 0.0885008098
C   C18       1.0  0.31560  0.99040  0.62730  1.0000 0.0958787156
C   C19       1.0  0.41780  0.94830  0.63310  1.0000 -0.1994208766
C   C20       1.0  0.93550  0.12980  0.32220  1.0000 -0.0182750547
C   C21       1.0  0.98460  0.11100  0.20190  1.0000 -0.1436767253
C   C22       1.0  0.93030  0.13360  0.08460  1.0000 -0.0110274978
C   C23       1.0  0.82370  0.17490  0.08660  1.0000 -0.1794066625
C   C24       1.0  0.77580  0.19420  0.20460  1.0000 0.0841020335
C   C25       1.0  0.83120  0.17160  0.32220  1.0000 -0.1794066625
C   C26       1.0  0.99890  0.10690  0.45010  1.0000 0.5413671163
C   C27       1.0  0.98430  0.11350  0.95520  1.0000 0.519949886
C   C28       1.0  0.66590  0.24050  0.20590  1.0000 -0.1994208766
C   C29       1.0  0.79740  0.31470  0.10620  1.0000 0.0372965773
C   C30       1.0  0.88670  0.35980  0.11290  1.0000 -0.1734938147
C   C31       1.0  0.93380  0.38070  0.23540  1.0000 0.1115459082
C   C32       1.0  0.88470  0.35520  0.34550  1.0000 -0.1794066625
C   C33       1.0  0.79560  0.31040  0.33480  1.0000 0.0346231525
C   C34       1.0  0.03650  0.42730  0.24640  1.0000 0.1115459082
C   C35       1.0  0.10110  0.44950  0.13620  1.0000 -0.1994208766
C   C36       1.0  0.20350  0.49060  0.15310  1.0000 0.0885008098
C   C37       1.0  0.18440  0.49040  0.37270  1.0000 0.0958787156
C   C38       1.0  0.08220  0.44830  0.36690  1.0000 -0.1994208766
C   C39       1.0  0.43550  0.37020  0.32220  1.0000 -0.0182750547
C   C40       1.0  0.48460  0.38900  0.20190  1.0000 -0.1436767253
C   C41       1.0  0.43030  0.36640  0.08460  1.0000 -0.0110274978
C   C42       1.0  0.32370  0.32510  0.08660  1.0000 -0.1794066625
C   C43       1.0  0.27580  0.30580  0.20460  1.0000 0.0841020335
C   C44       1.0  0.33120  0.32840  0.32220  1.0000 -0.1794066625
C   C45       1.0  0.49890  0.39310  0.45010  1.0000 0.5413671163
C   C46       1.0  0.48430  0.38650  0.95520  1.0000 0.519949886
C   C47       1.0  0.16590  0.25950  0.20590  1.0000 -0.1994208766
C   C48       1.0  0.29740  0.18530  0.10620  1.0000 0.0372965773
C   C49       1.0  0.38670  0.14020  0.11290  1.0000 -0.1734938147
C   C50       1.0  0.43380  0.11930  0.23540  1.0000 0.1115459082
C   C51       1.0  0.38470  0.14480  0.34550  1.0000 -0.1794066625
C   C52       1.0  0.29560  0.18960  0.33480  1.0000 0.0346231525
C   C53       1.0  0.53650  0.07270  0.24640  1.0000 0.1115459082
C   C54       1.0  0.60110  0.05050  0.13620  1.0000 -0.1994208766
C   C55       1.0  0.70350  0.00940  0.15310  1.0000 0.0885008098
C   C56       1.0  0.68440  0.00960  0.37270  1.0000 0.0958787156
C   C57       1.0  0.58220  0.05170  0.36690  1.0000 -0.1994208766
C   C58       1.0  0.06450  0.87020  0.67780  1.0000 -0.0182750547
C   C59       1.0  0.01540  0.88900  0.79810  1.0000 -0.1436767253
C   C60       1.0  0.06970  0.86640  0.91540  1.0000 -0.0110274978
C   C61       1.0  0.17630  0.82510  0.91340  1.0000 -0.1794066625
C   C62       1.0  0.22420  0.80580  0.79540  1.0000 0.0841020335
C   C63       1.0  0.16880  0.82840  0.67780  1.0000 -0.1794066625
C   C64       1.0  0.00110  0.89310  0.54990  1.0000 0.5413671163
C   C65       1.0  0.01570  0.88650  0.04480  1.0000 0.519949886
C   C66       1.0  0.33410  0.75950  0.79410  1.0000 -0.1994208766
C   C67       1.0  0.20260  0.68530  0.89380  1.0000 0.0372965773
C   C68       1.0  0.11330  0.64020  0.88710  1.0000 -0.1734938147
C   C69       1.0  0.06620  0.61930  0.76460  1.0000 0.1115459082
C   C70       1.0  0.11530  0.64480  0.65450  1.0000 -0.1794066625
C   C71       1.0  0.20440  0.68960  0.66520  1.0000 0.0346231525
C   C72       1.0  0.96350  0.57270  0.75360  1.0000 0.1115459082
C   C73       1.0  0.89890  0.55050  0.86380  1.0000 -0.1994208766
C   C74       1.0  0.79650  0.50940  0.84690  1.0000 0.0885008098
C   C75       1.0  0.81560  0.50960  0.62730  1.0000 0.0958787156
C   C76       1.0  0.91780  0.55170  0.63310  1.0000 -0.1994208766
Br  Br1       1.0  0.16799  0.65123  0.28082  1.0000 -0.6415742907
Br  Br2       1.0  0.33201  0.15123  0.71918  1.0000 -0.6415742907
Br  Br3       1.0  0.83201  0.34877  0.71918  1.0000 -0.6415742907
Br  Br4       1.0  0.66799  0.84877  0.28082  1.0000 -0.6415742907
N   N1        1.0  0.74470  0.79078  0.78380  1.0000 0.0958787156
N   N2        1.0  0.25850  0.01160  0.73120  1.0000 -0.218759508
N   N3        1.0  0.75530  0.29078  0.21620  1.0000 0.0958787156
N   N4        1.0  0.24150  0.51160  0.26880  1.0000 -0.218759508
N   N5        1.0  0.25530  0.20922  0.21620  1.0000 0.0958787156
N   N6        1.0  0.74150  0.98840  0.26880  1.0000 -0.218759508
N   N7        1.0  0.24470  0.70922  0.78380  1.0000 0.0958787156
N   N8        1.0  0.75850  0.48840  0.73120  1.0000 -0.218759508
O   O1        1.0  0.53990  0.62920  0.44600  1.0000 -0.4934178265
O   O2        1.0  0.41320  0.56822  0.54890  1.0000 -0.5656062486
O   O3        1.0  0.41250  0.58010  0.04430  1.0000 -0.5241668495
O   O4        1.0  0.57200  0.63230  0.14830  1.0000 -0.4769141051
O   O5        1.0  0.60860  0.51920  0.29190  1.0000 -0.6933461251
O   O6        1.0  0.96010  0.12920  0.55400  1.0000 -0.4934178265
O   O7        1.0  0.08680  0.06822  0.45110  1.0000 -0.5656062486
O   O8        1.0  0.08750  0.08010  0.95570  1.0000 -0.5241668495
O   O9        1.0  0.92800  0.13230  0.85170  1.0000 -0.4769141051
O   O10       1.0  0.89140  0.01920  0.70810  1.0000 -0.6933461251
O   O11       1.0  0.46010  0.37080  0.55400  1.0000 -0.4934178265
O   O12       1.0  0.58680  0.43178  0.45110  1.0000 -0.5656062486
O   O13       1.0  0.58750  0.41990  0.95570  1.0000 -0.5241668495
O   O14       1.0  0.42800  0.36770  0.85170  1.0000 -0.4769141051
O   O15       1.0  0.39140  0.48080  0.70810  1.0000 -0.6933461251
O   O16       1.0  0.03990  0.87080  0.44600  1.0000 -0.4934178265
O   O17       1.0  0.91320  0.93178  0.54890  1.0000 -0.5656062486
O   O18       1.0  0.91250  0.91990  0.04430  1.0000 -0.5241668495
O   O19       1.0  0.07200  0.86770  0.14830  1.0000 -0.4769141051
O   O20       1.0  0.10860  0.98080  0.29190  1.0000 -0.6933461251
