# DDEC6 charges by PACMAN v1.1 (https://github.com/mtap-research/PACMAN-charge/)
data_2020[Ag][nbo]3[FSR]1
_chemical_formula_sum              "Ag6 H126 C138 N18"
_cell_length_a       22.5897
_cell_length_b       22.5897
_cell_length_c       22.5897
_cell_angle_alpha    117.63
_cell_angle_beta     117.63
_cell_angle_gamma    117.63

_symmetry_space_group_name_H-M    "P 1"
_symmetry_Int_Tables_number       1

loop_
  _symmetry_equiv_pos_as_xyz
  'x, y, z'

loop_
  _atom_site_type_symbol
  _atom_site_label
  _atom_site_symmetry_multiplicity
  _atom_site_fract_x
  _atom_site_fract_y
  _atom_site_fract_z
  _atom_site_occupancy
  _atom_site_charge
Ag  Ag1       1.0  0.10163  0.60501  0.54600  1.0000 0.121827427
Ag  Ag2       1.0  0.60501  0.54600  0.10163  1.0000 0.121827427
Ag  Ag3       1.0  0.54600  0.10163  0.60501  1.0000 0.121827427
Ag  Ag4       1.0  0.89837  0.39499  0.45400  1.0000 0.121827427
Ag  Ag5       1.0  0.39499  0.45400  0.89837  1.0000 0.121827427
Ag  Ag6       1.0  0.45400  0.89837  0.39499  1.0000 0.121827427
H   H1        1.0  0.18550  0.53640  0.52060  1.0000 0.093475452
H   H2        1.0  0.14210  0.41440  0.37850  1.0000 0.1302815586
H   H3        1.0  0.83980  0.26210  0.10350  1.0000 0.1302815586
H   H4        1.0  0.89210  0.38830  0.25380  1.0000 0.1013694714
H   H5        1.0  0.91710  0.17220  0.10110  1.0000 0.1098001478
H   H6        1.0  0.04400  0.30240  0.18180  1.0000 0.1013694714
H   H7        1.0  0.99660  0.36910  0.13310  1.0000 0.1098001478
H   H8        1.0  0.00020  0.30870  0.06390  1.0000 0.1013694714
H   H9        1.0  0.97980  0.36750  0.99610  1.0000 0.1302815586
H   H10       1.0  0.83860  0.30080  0.83680  1.0000 0.093475452
H   H11       1.0  0.54810  0.03600  0.69310  1.0000 0.093475452
H   H12       1.0  0.68340  0.09790  0.85020  1.0000 0.121827427
H   H13       1.0  0.76750  0.04940  0.83920  1.0000 0.1098001478
H   H14       1.0  0.88470  0.10680  0.94840  1.0000 0.1013694714
H   H15       1.0  0.77880  0.92060  0.85140  1.0000 0.121827427
H   H16       1.0  0.67970  0.73250  0.76390  1.0000 0.1098001478
H   H17       1.0  0.52480  0.55030  0.66840  1.0000 0.1013694714
H   H18       1.0  0.37270  0.48600  0.62050  1.0000 0.1013694714
H   H19       1.0  0.37280  0.59960  0.66190  1.0000 0.1098001478
H   H20       1.0  0.46930  0.78440  0.74540  1.0000 0.1098001478
H   H21       1.0  0.62080  0.96330  0.83590  1.0000 0.1098001478
H   H22       1.0  0.53640  0.52060  0.18550  1.0000 0.093475452
H   H23       1.0  0.41440  0.37850  0.14210  1.0000 0.1302815586
H   H24       1.0  0.26210  0.10350  0.83980  1.0000 0.1302815586
H   H25       1.0  0.38830  0.25380  0.89210  1.0000 0.1013694714
H   H26       1.0  0.17220  0.10110  0.91710  1.0000 0.1098001478
H   H27       1.0  0.30240  0.18180  0.04400  1.0000 0.1013694714
H   H28       1.0  0.36910  0.13310  0.99660  1.0000 0.1098001478
H   H29       1.0  0.30870  0.06390  0.00020  1.0000 0.1013694714
H   H30       1.0  0.36750  0.99610  0.97980  1.0000 0.1302815586
H   H31       1.0  0.30080  0.83680  0.83860  1.0000 0.093475452
H   H32       1.0  0.03600  0.69310  0.54810  1.0000 0.093475452
H   H33       1.0  0.09790  0.85020  0.68340  1.0000 0.121827427
H   H34       1.0  0.04940  0.83920  0.76750  1.0000 0.1098001478
H   H35       1.0  0.10680  0.94840  0.88470  1.0000 0.1013694714
H   H36       1.0  0.92060  0.85140  0.77880  1.0000 0.121827427
H   H37       1.0  0.73250  0.76390  0.67970  1.0000 0.1098001478
H   H38       1.0  0.55030  0.66840  0.52480  1.0000 0.1013694714
H   H39       1.0  0.48600  0.62050  0.37270  1.0000 0.1013694714
H   H40       1.0  0.59960  0.66190  0.37280  1.0000 0.1098001478
H   H41       1.0  0.78440  0.74540  0.46930  1.0000 0.1098001478
H   H42       1.0  0.96330  0.83590  0.62080  1.0000 0.1098001478
H   H43       1.0  0.52060  0.18550  0.53640  1.0000 0.093475452
H   H44       1.0  0.37850  0.14210  0.41440  1.0000 0.1302815586
H   H45       1.0  0.10350  0.83980  0.26210  1.0000 0.1302815586
H   H46       1.0  0.25380  0.89210  0.38830  1.0000 0.1013694714
H   H47       1.0  0.10110  0.91710  0.17220  1.0000 0.1098001478
H   H48       1.0  0.18180  0.04400  0.30240  1.0000 0.1013694714
H   H49       1.0  0.13310  0.99660  0.36910  1.0000 0.1098001478
H   H50       1.0  0.06390  0.00020  0.30870  1.0000 0.1013694714
H   H51       1.0  0.99610  0.97980  0.36750  1.0000 0.1302815586
H   H52       1.0  0.83680  0.83860  0.30080  1.0000 0.093475452
H   H53       1.0  0.69310  0.54810  0.03600  1.0000 0.093475452
H   H54       1.0  0.85020  0.68340  0.09790  1.0000 0.121827427
H   H55       1.0  0.83920  0.76750  0.04940  1.0000 0.1098001478
H   H56       1.0  0.94840  0.88470  0.10680  1.0000 0.1013694714
H   H57       1.0  0.85140  0.77880  0.92060  1.0000 0.121827427
H   H58       1.0  0.76390  0.67970  0.73250  1.0000 0.1098001478
H   H59       1.0  0.66840  0.52480  0.55030  1.0000 0.1013694714
H   H60       1.0  0.62050  0.37270  0.48600  1.0000 0.1013694714
H   H61       1.0  0.66190  0.37280  0.59960  1.0000 0.1098001478
H   H62       1.0  0.74540  0.46930  0.78440  1.0000 0.1098001478
H   H63       1.0  0.83590  0.62080  0.96330  1.0000 0.1098001478
H   H64       1.0  0.81450  0.46360  0.47940  1.0000 0.093475452
H   H65       1.0  0.85790  0.58560  0.62150  1.0000 0.1302815586
H   H66       1.0  0.16020  0.73790  0.89650  1.0000 0.1302815586
H   H67       1.0  0.10790  0.61170  0.74620  1.0000 0.1013694714
H   H68       1.0  0.08290  0.82780  0.89890  1.0000 0.1098001478
H   H69       1.0  0.95600  0.69760  0.81820  1.0000 0.1013694714
H   H70       1.0  0.00340  0.63090  0.86690  1.0000 0.1098001478
H   H71       1.0  0.99980  0.69130  0.93610  1.0000 0.1013694714
H   H72       1.0  0.02020  0.63250  0.00390  1.0000 0.1302815586
H   H73       1.0  0.16140  0.69920  0.16320  1.0000 0.093475452
H   H74       1.0  0.45190  0.96400  0.30690  1.0000 0.093475452
H   H75       1.0  0.31660  0.90210  0.14980  1.0000 0.121827427
H   H76       1.0  0.23250  0.95060  0.16080  1.0000 0.1098001478
H   H77       1.0  0.11530  0.89320  0.05160  1.0000 0.1013694714
H   H78       1.0  0.22120  0.07940  0.14860  1.0000 0.121827427
H   H79       1.0  0.32030  0.26750  0.23610  1.0000 0.1098001478
H   H80       1.0  0.47520  0.44970  0.33160  1.0000 0.1013694714
H   H81       1.0  0.62730  0.51400  0.37950  1.0000 0.1013694714
H   H82       1.0  0.62720  0.40040  0.33810  1.0000 0.1098001478
H   H83       1.0  0.53070  0.21560  0.25460  1.0000 0.1098001478
H   H84       1.0  0.37920  0.03670  0.16410  1.0000 0.1098001478
H   H85       1.0  0.46360  0.47940  0.81450  1.0000 0.093475452
H   H86       1.0  0.58560  0.62150  0.85790  1.0000 0.1302815586
H   H87       1.0  0.73790  0.89650  0.16020  1.0000 0.1302815586
H   H88       1.0  0.61170  0.74620  0.10790  1.0000 0.1013694714
H   H89       1.0  0.82780  0.89890  0.08290  1.0000 0.1098001478
H   H90       1.0  0.69760  0.81820  0.95600  1.0000 0.1013694714
H   H91       1.0  0.63090  0.86690  0.00340  1.0000 0.1098001478
H   H92       1.0  0.69130  0.93610  0.99980  1.0000 0.1013694714
H   H93       1.0  0.63250  0.00390  0.02020  1.0000 0.1302815586
H   H94       1.0  0.69920  0.16320  0.16140  1.0000 0.093475452
H   H95       1.0  0.96400  0.30690  0.45190  1.0000 0.093475452
H   H96       1.0  0.90210  0.14980  0.31660  1.0000 0.121827427
H   H97       1.0  0.95060  0.16080  0.23250  1.0000 0.1098001478
H   H98       1.0  0.89320  0.05160  0.11530  1.0000 0.1013694714
H   H99       1.0  0.07940  0.14860  0.22120  1.0000 0.121827427
H   H100      1.0  0.26750  0.23610  0.32030  1.0000 0.1098001478
H   H101      1.0  0.44970  0.33160  0.47520  1.0000 0.1013694714
H   H102      1.0  0.51400  0.37950  0.62730  1.0000 0.1013694714
H   H103      1.0  0.40040  0.33810  0.62720  1.0000 0.1098001478
H   H104      1.0  0.21560  0.25460  0.53070  1.0000 0.1098001478
H   H105      1.0  0.03670  0.16410  0.37920  1.0000 0.1098001478
H   H106      1.0  0.47940  0.81450  0.46360  1.0000 0.093475452
H   H107      1.0  0.62150  0.85790  0.58560  1.0000 0.1302815586
H   H108      1.0  0.89650  0.16020  0.73790  1.0000 0.1302815586
H   H109      1.0  0.74620  0.10790  0.61170  1.0000 0.1013694714
H   H110      1.0  0.89890  0.08290  0.82780  1.0000 0.1098001478
H   H111      1.0  0.81820  0.95600  0.69760  1.0000 0.1013694714
H   H112      1.0  0.86690  0.00340  0.63090  1.0000 0.1098001478
H   H113      1.0  0.93610  0.99980  0.69130  1.0000 0.1013694714
H   H114      1.0  0.00390  0.02020  0.63250  1.0000 0.1302815586
H   H115      1.0  0.16320  0.16140  0.69920  1.0000 0.093475452
H   H116      1.0  0.30690  0.45190  0.96400  1.0000 0.093475452
H   H117      1.0  0.14980  0.31660  0.90210  1.0000 0.121827427
H   H118      1.0  0.16080  0.23250  0.95060  1.0000 0.1098001478
H   H119      1.0  0.05160  0.11530  0.89320  1.0000 0.1013694714
H   H120      1.0  0.14860  0.22120  0.07940  1.0000 0.121827427
H   H121      1.0  0.23610  0.32030  0.26750  1.0000 0.1098001478
H   H122      1.0  0.33160  0.47520  0.44970  1.0000 0.1013694714
H   H123      1.0  0.37950  0.62730  0.51400  1.0000 0.1013694714
H   H124      1.0  0.33810  0.62720  0.40040  1.0000 0.1098001478
H   H125      1.0  0.25460  0.53070  0.21560  1.0000 0.1098001478
H   H126      1.0  0.16410  0.37920  0.03670  1.0000 0.1098001478
C   C1        1.0  0.11460  0.48050  0.43440  1.0000 0.0247642029
C   C2        1.0  0.08929  0.40810  0.35031  1.0000 -0.2194663897
C   C3        1.0  0.98719  0.32568  0.22433  1.0000 0.1302815586
C   C4        1.0  0.91304  0.31910  0.18986  1.0000 -0.2103778636
C   C5        1.0  0.94520  0.39500  0.28040  1.0000 0.0310786757
C   C6        1.0  0.95870  0.24523  0.13197  1.0000 -0.1874287168
C   C7        1.0  0.94050  0.28677  0.04893  1.0000 -0.1874287168
C   C8        1.0  0.84759  0.24105  0.94276  1.0000 0.1302815586
C   C9        1.0  0.89060  0.29887  0.93493  1.0000 -0.2299989378
C   C10       1.0  0.80570  0.25810  0.83920  1.0000 0.0310786757
C   C11       1.0  0.63810  0.10550  0.75620  1.0000 0.0371227454
C   C12       1.0  0.71870  0.14240  0.85020  1.0000 -0.2018793489
C   C13       1.0  0.81268  0.07650  0.91032  1.0000 -0.2018793489
C   C14       1.0  0.71441  0.95853  0.85056  1.0000 0.093475452
C   C15       1.0  0.71382  0.89080  0.82708  1.0000 -0.2299989378
C   C16       1.0  0.62043  0.77786  0.76821  1.0000 0.0751066267
C   C17       1.0  0.61690  0.70570  0.74220  1.0000 -0.1701060841
C   C18       1.0  0.52670  0.59910  0.68730  1.0000 -0.1140557841
C   C19       1.0  0.43530  0.56040  0.65810  1.0000 -0.1140557841
C   C20       1.0  0.43550  0.62750  0.68290  1.0000 -0.1701060841
C   C21       1.0  0.52780  0.73860  0.73930  1.0000 0.0558286741
C   C22       1.0  0.53090  0.81020  0.76540  1.0000 -0.1701060841
C   C23       1.0  0.62094  0.91630  0.81916  1.0000 -0.1701060841
C   C24       1.0  0.48050  0.43440  0.11460  1.0000 0.0310786757
C   C25       1.0  0.40810  0.35031  0.08929  1.0000 -0.2194663897
C   C26       1.0  0.32568  0.22433  0.98719  1.0000 0.1302815586
C   C27       1.0  0.31910  0.18986  0.91304  1.0000 -0.2103778636
C   C28       1.0  0.39500  0.28040  0.94520  1.0000 0.0310786757
C   C29       1.0  0.24523  0.13197  0.95870  1.0000 -0.1874287168
C   C30       1.0  0.28677  0.04893  0.94050  1.0000 -0.1874287168
C   C31       1.0  0.24105  0.94276  0.84759  1.0000 0.1302815586
C   C32       1.0  0.29887  0.93493  0.89060  1.0000 -0.2299989378
C   C33       1.0  0.25810  0.83920  0.80570  1.0000 0.0310786757
C   C34       1.0  0.10550  0.75620  0.63810  1.0000 0.0371227454
C   C35       1.0  0.14240  0.85020  0.71870  1.0000 -0.2018793489
C   C36       1.0  0.07650  0.91032  0.81268  1.0000 -0.2018793489
C   C37       1.0  0.95853  0.85056  0.71441  1.0000 0.093475452
C   C38       1.0  0.89080  0.82708  0.71382  1.0000 -0.2299989378
C   C39       1.0  0.77786  0.76821  0.62043  1.0000 0.0751066267
C   C40       1.0  0.70570  0.74220  0.61690  1.0000 -0.1701060841
C   C41       1.0  0.59910  0.68730  0.52670  1.0000 -0.1140557841
C   C42       1.0  0.56040  0.65810  0.43530  1.0000 -0.1140557841
C   C43       1.0  0.62750  0.68290  0.43550  1.0000 -0.1701060841
C   C44       1.0  0.73860  0.73930  0.52780  1.0000 0.0558286741
C   C45       1.0  0.81020  0.76540  0.53090  1.0000 -0.1701060841
C   C46       1.0  0.91630  0.81916  0.62094  1.0000 -0.1701060841
C   C47       1.0  0.43440  0.11460  0.48050  1.0000 0.0310786757
C   C48       1.0  0.35031  0.08929  0.40810  1.0000 -0.2194663897
C   C49       1.0  0.22433  0.98719  0.32568  1.0000 0.1302815586
C   C50       1.0  0.18986  0.91304  0.31910  1.0000 -0.2103778636
C   C51       1.0  0.28040  0.94520  0.39500  1.0000 0.0310786757
C   C52       1.0  0.13197  0.95870  0.24523  1.0000 -0.1874287168
C   C53       1.0  0.04893  0.94050  0.28677  1.0000 -0.1874287168
C   C54       1.0  0.94276  0.84759  0.24105  1.0000 0.1302815586
C   C55       1.0  0.93493  0.89060  0.29887  1.0000 -0.2299989378
C   C56       1.0  0.83920  0.80570  0.25810  1.0000 0.0310786757
C   C57       1.0  0.75620  0.63810  0.10550  1.0000 0.0371227454
C   C58       1.0  0.85020  0.71870  0.14240  1.0000 -0.2018793489
C   C59       1.0  0.91032  0.81268  0.07650  1.0000 -0.2018793489
C   C60       1.0  0.85056  0.71441  0.95853  1.0000 0.093475452
C   C61       1.0  0.82708  0.71382  0.89080  1.0000 -0.2299989378
C   C62       1.0  0.76821  0.62043  0.77786  1.0000 0.0751066267
C   C63       1.0  0.74220  0.61690  0.70570  1.0000 -0.1701060841
C   C64       1.0  0.68730  0.52670  0.59910  1.0000 -0.1140557841
C   C65       1.0  0.65810  0.43530  0.56040  1.0000 -0.1140557841
C   C66       1.0  0.68290  0.43550  0.62750  1.0000 -0.1701060841
C   C67       1.0  0.73930  0.52780  0.73860  1.0000 0.0558286741
C   C68       1.0  0.76540  0.53090  0.81020  1.0000 -0.1701060841
C   C69       1.0  0.81916  0.62094  0.91630  1.0000 -0.1701060841
C   C70       1.0  0.88540  0.51950  0.56560  1.0000 0.0310786757
C   C71       1.0  0.91071  0.59190  0.64969  1.0000 -0.2194663897
C   C72       1.0  0.01281  0.67432  0.77567  1.0000 0.1302815586
C   C73       1.0  0.08696  0.68090  0.81014  1.0000 -0.2103778636
C   C74       1.0  0.05480  0.60500  0.71960  1.0000 0.0310786757
C   C75       1.0  0.04130  0.75477  0.86803  1.0000 -0.1874287168
C   C76       1.0  0.05950  0.71323  0.95107  1.0000 -0.1874287168
C   C77       1.0  0.15241  0.75895  0.05724  1.0000 0.1302815586
C   C78       1.0  0.10940  0.70113  0.06507  1.0000 -0.2299989378
C   C79       1.0  0.19430  0.74190  0.16080  1.0000 0.0310786757
C   C80       1.0  0.36190  0.89450  0.24380  1.0000 0.0371227454
C   C81       1.0  0.28130  0.85760  0.14980  1.0000 -0.2018793489
C   C82       1.0  0.18732  0.92350  0.08968  1.0000 -0.2018793489
C   C83       1.0  0.28559  0.04147  0.14944  1.0000 0.093475452
C   C84       1.0  0.28618  0.10920  0.17292  1.0000 -0.2299989378
C   C85       1.0  0.37957  0.22214  0.23179  1.0000 0.0751066267
C   C86       1.0  0.38310  0.29430  0.25780  1.0000 -0.1701060841
C   C87       1.0  0.47330  0.40090  0.31270  1.0000 -0.1140557841
C   C88       1.0  0.56470  0.43960  0.34190  1.0000 -0.1140557841
C   C89       1.0  0.56450  0.37250  0.31710  1.0000 -0.1701060841
C   C90       1.0  0.47220  0.26140  0.26070  1.0000 0.0558286741
C   C91       1.0  0.46910  0.18980  0.23460  1.0000 -0.1701060841
C   C92       1.0  0.37906  0.08370  0.18084  1.0000 -0.1640408799
C   C93       1.0  0.51950  0.56560  0.88540  1.0000 0.0310786757
C   C94       1.0  0.59190  0.64969  0.91071  1.0000 -0.2194663897
C   C95       1.0  0.67432  0.77567  0.01281  1.0000 0.1302815586
C   C96       1.0  0.68090  0.81014  0.08696  1.0000 -0.2103778636
C   C97       1.0  0.60500  0.71960  0.05480  1.0000 0.0310786757
C   C98       1.0  0.75477  0.86803  0.04130  1.0000 -0.1874287168
C   C99       1.0  0.71323  0.95107  0.05950  1.0000 -0.1874287168
C   C100      1.0  0.75895  0.05724  0.15241  1.0000 0.1302815586
C   C101      1.0  0.70113  0.06507  0.10940  1.0000 -0.2299989378
C   C102      1.0  0.74190  0.16080  0.19430  1.0000 0.0310786757
C   C103      1.0  0.89450  0.24380  0.36190  1.0000 0.0371227454
C   C104      1.0  0.85760  0.14980  0.28130  1.0000 -0.2018793489
C   C105      1.0  0.92350  0.08968  0.18732  1.0000 -0.2018793489
C   C106      1.0  0.04147  0.14944  0.28559  1.0000 0.093475452
C   C107      1.0  0.10920  0.17292  0.28618  1.0000 -0.2299989378
C   C108      1.0  0.22214  0.23179  0.37957  1.0000 0.0751066267
C   C109      1.0  0.29430  0.25780  0.38310  1.0000 -0.1701060841
C   C110      1.0  0.40090  0.31270  0.47330  1.0000 -0.1140557841
C   C111      1.0  0.43960  0.34190  0.56470  1.0000 -0.1140557841
C   C112      1.0  0.37250  0.31710  0.56450  1.0000 -0.1701060841
C   C113      1.0  0.26140  0.26070  0.47220  1.0000 0.0558286741
C   C114      1.0  0.18980  0.23460  0.46910  1.0000 -0.1701060841
C   C115      1.0  0.08370  0.18084  0.37906  1.0000 -0.1701060841
C   C116      1.0  0.56560  0.88540  0.51950  1.0000 0.0310786757
C   C117      1.0  0.64969  0.91071  0.59190  1.0000 -0.2194663897
C   C118      1.0  0.77567  0.01281  0.67432  1.0000 0.1302815586
C   C119      1.0  0.81014  0.08696  0.68090  1.0000 -0.2103778636
C   C120      1.0  0.71960  0.05480  0.60500  1.0000 0.0310786757
C   C121      1.0  0.86803  0.04130  0.75477  1.0000 -0.1874287168
C   C122      1.0  0.95107  0.05950  0.71323  1.0000 -0.1874287168
C   C123      1.0  0.05724  0.15241  0.75895  1.0000 0.1302815586
C   C124      1.0  0.06507  0.10940  0.70113  1.0000 -0.2299989378
C   C125      1.0  0.16080  0.19430  0.74190  1.0000 0.0310786757
C   C126      1.0  0.24380  0.36190  0.89450  1.0000 0.0371227454
C   C127      1.0  0.14980  0.28130  0.85760  1.0000 -0.2018793489
C   C128      1.0  0.08968  0.18732  0.92350  1.0000 -0.2018793489
C   C129      1.0  0.14944  0.28559  0.04147  1.0000 0.093475452
C   C130      1.0  0.17292  0.28618  0.10920  1.0000 -0.2299989378
C   C131      1.0  0.23179  0.37957  0.22214  1.0000 0.0751066267
C   C132      1.0  0.25780  0.38310  0.29430  1.0000 -0.1701060841
C   C133      1.0  0.31270  0.47330  0.40090  1.0000 -0.1140557841
C   C134      1.0  0.34190  0.56470  0.43960  1.0000 -0.1140557841
C   C135      1.0  0.31710  0.56450  0.37250  1.0000 -0.1701060841
C   C136      1.0  0.26070  0.47220  0.26140  1.0000 0.0558286741
C   C137      1.0  0.23460  0.46910  0.18980  1.0000 -0.1701060841
C   C138      1.0  0.18084  0.37906  0.08370  1.0000 -0.1701060841
N   N1        1.0  0.04614  0.47754  0.40292  1.0000 -0.1827931121
N   N2        1.0  0.87099  0.18750  0.01491  1.0000 -0.08164628
N   N3        1.0  0.68065  0.16258  0.75017  1.0000 -0.1874287168
N   N4        1.0  0.47754  0.40292  0.04614  1.0000 -0.1827931121
N   N5        1.0  0.18750  0.01491  0.87099  1.0000 -0.08164628
N   N6        1.0  0.16258  0.75017  0.68065  1.0000 -0.1874287168
N   N7        1.0  0.40292  0.04614  0.47754  1.0000 -0.1827931121
N   N8        1.0  0.01491  0.87099  0.18750  1.0000 -0.08164628
N   N9        1.0  0.75017  0.68065  0.16258  1.0000 -0.1874287168
N   N10       1.0  0.95386  0.52246  0.59708  1.0000 -0.1827931121
N   N11       1.0  0.12901  0.81250  0.98509  1.0000 -0.08164628
N   N12       1.0  0.31935  0.83742  0.24983  1.0000 -0.1874287168
N   N13       1.0  0.52246  0.59708  0.95386  1.0000 -0.1827931121
N   N14       1.0  0.81250  0.98509  0.12901  1.0000 -0.08164628
N   N15       1.0  0.83742  0.24983  0.31935  1.0000 -0.1874287168
N   N16       1.0  0.59708  0.95386  0.52246  1.0000 -0.1827931121
N   N17       1.0  0.98509  0.12901  0.81250  1.0000 -0.08164628
N   N18       1.0  0.24983  0.31935  0.83742  1.0000 -0.1874287168
