# DDEC6 charges by PACMAN v1.1 (https://github.com/mtap-research/PACMAN-charge/)
data_2020[Zn][kgd]2[FSR]1
_chemical_formula_sum              "Zn8 H32 C20 N8 O32"
_cell_length_a       7.581
_cell_length_b       11.554
_cell_length_c       17.011
_cell_angle_alpha    90
_cell_angle_beta     90.48
_cell_angle_gamma    90

_symmetry_space_group_name_H-M    "P 1"
_symmetry_Int_Tables_number       1

loop_
  _symmetry_equiv_pos_as_xyz
  'x, y, z'

loop_
  _atom_site_type_symbol
  _atom_site_label
  _atom_site_symmetry_multiplicity
  _atom_site_fract_x
  _atom_site_fract_y
  _atom_site_fract_z
  _atom_site_occupancy
  _atom_site_charge
Zn  Zn1       1.0  0.48410  0.52393  0.89825  1.0000 0.9364163808
Zn  Zn2       1.0  0.52440  0.22885  0.80679  1.0000 0.9587902061
Zn  Zn3       1.0  0.51590  0.02393  0.60175  1.0000 0.9364163808
Zn  Zn4       1.0  0.47560  0.72885  0.69321  1.0000 0.9587902061
Zn  Zn5       1.0  0.51590  0.47607  0.10175  1.0000 0.9364163808
Zn  Zn6       1.0  0.47560  0.77115  0.19321  1.0000 0.9587902061
Zn  Zn7       1.0  0.48410  0.97607  0.39825  1.0000 0.9364163808
Zn  Zn8       1.0  0.52440  0.27115  0.30679  1.0000 0.9587902061
H   H1        1.0  0.16460  0.57900  0.92070  1.0000 0.3309752426
H   H2        1.0  0.17710  0.46200  0.93900  1.0000 0.3075187586
H   H3        1.0  0.85500  0.46840  0.88010  1.0000 0.369243399
H   H4        1.0  0.81190  0.57100  0.92180  1.0000 0.346853622
H   H5        1.0  0.87800  0.26590  0.85540  1.0000 0.369243399
H   H6        1.0  0.20350  0.25440  0.78340  1.0000 0.2680368728
H   H7        1.0  0.19830  0.23180  0.85540  1.0000 0.2798519141
H   H8        1.0  0.44190  0.44880  0.55680  1.0000 0.1589388184
H   H9        1.0  0.83540  0.07900  0.57930  1.0000 0.3309752426
H   H10       1.0  0.82290  0.96200  0.56100  1.0000 0.3075187586
H   H11       1.0  0.14500  0.96840  0.61990  1.0000 0.369243399
H   H12       1.0  0.18810  0.07100  0.57820  1.0000 0.346853622
H   H13       1.0  0.12200  0.76590  0.64460  1.0000 0.369243399
H   H14       1.0  0.79650  0.75440  0.71660  1.0000 0.2680368728
H   H15       1.0  0.80170  0.73180  0.64460  1.0000 0.2798519141
H   H16       1.0  0.55810  0.94880  0.94320  1.0000 0.1589388184
H   H17       1.0  0.83540  0.42100  0.07930  1.0000 0.3309752426
H   H18       1.0  0.82290  0.53800  0.06100  1.0000 0.3075187586
H   H19       1.0  0.14500  0.53160  0.11990  1.0000 0.369243399
H   H20       1.0  0.18810  0.42900  0.07820  1.0000 0.346853622
H   H21       1.0  0.12200  0.73410  0.14460  1.0000 0.369243399
H   H22       1.0  0.79650  0.74560  0.21660  1.0000 0.2680368728
H   H23       1.0  0.80170  0.76820  0.14460  1.0000 0.2798519141
H   H24       1.0  0.55810  0.55120  0.44320  1.0000 0.1589388184
H   H25       1.0  0.16460  0.92100  0.42070  1.0000 0.3309752426
H   H26       1.0  0.17710  0.03800  0.43900  1.0000 0.3075187586
H   H27       1.0  0.85500  0.03160  0.38010  1.0000 0.369243399
H   H28       1.0  0.81190  0.92900  0.42180  1.0000 0.346853622
H   H29       1.0  0.87800  0.23410  0.35540  1.0000 0.369243399
H   H30       1.0  0.20350  0.24560  0.28340  1.0000 0.2680368728
H   H31       1.0  0.19830  0.26820  0.35540  1.0000 0.2798519141
H   H32       1.0  0.44190  0.05120  0.05680  1.0000 0.1589388184
C   C1        1.0  0.45900  0.45790  0.73120  1.0000 0.5846180848
C   C2        1.0  0.48100  0.37220  0.66850  1.0000 0.0477335618
C   C3        1.0  0.46600  0.38160  0.58730  1.0000 -0.2089741335
C   C4        1.0  0.49400  0.27000  0.56150  1.0000 0.0357530804
C   C5        1.0  0.50100  0.22020  0.48150  1.0000 0.5876455477
C   C6        1.0  0.54100  0.95790  0.76880  1.0000 0.5846180848
C   C7        1.0  0.51900  0.87220  0.83150  1.0000 0.0477335618
C   C8        1.0  0.53400  0.88160  0.91270  1.0000 -0.2089741335
C   C9        1.0  0.50600  0.77000  0.93850  1.0000 0.0357530804
C   C10       1.0  0.49900  0.72020  0.01850  1.0000 0.5876455477
C   C11       1.0  0.54100  0.54210  0.26880  1.0000 0.5876455477
C   C12       1.0  0.51900  0.62780  0.33150  1.0000 0.0477335618
C   C13       1.0  0.53400  0.61840  0.41270  1.0000 -0.2089741335
C   C14       1.0  0.50600  0.73000  0.43850  1.0000 0.0357530804
C   C15       1.0  0.49900  0.77980  0.51850  1.0000 0.5876455477
C   C16       1.0  0.45900  0.04210  0.23120  1.0000 0.5846180848
C   C17       1.0  0.48100  0.12780  0.16850  1.0000 0.0477335618
C   C18       1.0  0.46600  0.11840  0.08730  1.0000 -0.2089741335
C   C19       1.0  0.49400  0.23000  0.06150  1.0000 0.0357530804
C   C20       1.0  0.50100  0.27980  0.98150  1.0000 0.5876455477
N   N1        1.0  0.50950  0.26170  0.68890  1.0000 -0.1738874943
N   N2        1.0  0.51950  0.19800  0.62290  1.0000 -0.2089741335
N   N3        1.0  0.49050  0.76170  0.81110  1.0000 -0.1738874943
N   N4        1.0  0.48050  0.69800  0.87710  1.0000 -0.2089741335
N   N5        1.0  0.49050  0.73830  0.31110  1.0000 -0.1738874943
N   N6        1.0  0.48050  0.80200  0.37710  1.0000 -0.2089741335
N   N7        1.0  0.50950  0.23830  0.18890  1.0000 -0.1738874943
N   N8        1.0  0.51950  0.30200  0.12290  1.0000 -0.2089741335
O   O1        1.0  0.48510  0.41860  0.80180  1.0000 -0.5768266388
O   O2        1.0  0.41880  0.55850  0.71620  1.0000 -0.4772537716
O   O3        1.0  0.50500  0.28600  0.42420  1.0000 -0.4991157867
O   O4        1.0  0.49810  0.10950  0.47990  1.0000 -0.6007062265
O   O5        1.0  0.20920  0.51320  0.90320  1.0000 -0.6699847498
O   O6        1.0  0.76430  0.51630  0.89190  1.0000 -0.6841426261
O   O7        1.0  0.79660  0.25640  0.81680  1.0000 -0.8759241172
O   O8        1.0  0.25000  0.20330  0.80670  1.0000 -0.6077519127
O   O9        1.0  0.51490  0.91860  0.69820  1.0000 -0.5768266388
O   O10       1.0  0.58120  0.05850  0.78380  1.0000 -0.4772537716
O   O11       1.0  0.49500  0.78600  0.07580  1.0000 -0.4991157867
O   O12       1.0  0.50190  0.60950  0.02010  1.0000 -0.6007062265
O   O13       1.0  0.79080  0.01320  0.59680  1.0000 -0.6699847498
O   O14       1.0  0.23570  0.01630  0.60810  1.0000 -0.6841426261
O   O15       1.0  0.20340  0.75640  0.68320  1.0000 -0.8743696678
O   O16       1.0  0.75000  0.70330  0.69330  1.0000 -0.6077519127
O   O17       1.0  0.51490  0.58140  0.19820  1.0000 -0.5768266388
O   O18       1.0  0.58120  0.44150  0.28380  1.0000 -0.4772537716
O   O19       1.0  0.49500  0.71400  0.57580  1.0000 -0.4991157867
O   O20       1.0  0.50190  0.89050  0.52010  1.0000 -0.6007062265
O   O21       1.0  0.79080  0.48680  0.09680  1.0000 -0.6699847498
O   O22       1.0  0.23570  0.48370  0.10810  1.0000 -0.6841426261
O   O23       1.0  0.20340  0.74360  0.18320  1.0000 -0.8743696678
O   O24       1.0  0.75000  0.79670  0.19330  1.0000 -0.6077519127
O   O25       1.0  0.48510  0.08140  0.30180  1.0000 -0.5768266388
O   O26       1.0  0.41880  0.94150  0.21620  1.0000 -0.4772537716
O   O27       1.0  0.50500  0.21400  0.92420  1.0000 -0.4991157867
O   O28       1.0  0.49810  0.39050  0.97990  1.0000 -0.6007062265
O   O29       1.0  0.20920  0.98680  0.40320  1.0000 -0.6699847498
O   O30       1.0  0.76430  0.98370  0.39190  1.0000 -0.6841426261
O   O31       1.0  0.79660  0.24360  0.31680  1.0000 -0.8743696678
O   O32       1.0  0.25000  0.29670  0.30670  1.0000 -0.6077519127
