# DDEC6 charges by PACMAN v1.1 (https://github.com/mtap-research/PACMAN-charge/)
data_2020[GeCu][sql]2[FSR]2
_chemical_formula_sum              "Cu2 Ge2 H32 C40 S4 N8 F20"
_cell_length_a       13.3858
_cell_length_b       13.3858
_cell_length_c       13.3858
_cell_angle_alpha    136.22
_cell_angle_beta     105.342
_cell_angle_gamma    90.7684

_symmetry_space_group_name_H-M    "P 1"
_symmetry_Int_Tables_number       1

loop_
  _symmetry_equiv_pos_as_xyz
  'x, y, z'

loop_
  _atom_site_type_symbol
  _atom_site_label
  _atom_site_symmetry_multiplicity
  _atom_site_fract_x
  _atom_site_fract_y
  _atom_site_fract_z
  _atom_site_occupancy
  _atom_site_charge
Cu  Cu1       1.0  0.75000  0.00000  0.75000  1.0000 0.6461660505
Cu  Cu2       1.0  0.25000  0.00000  0.25000  1.0000 0.6444040776
Ge  Ge1       1.0  0.00000  0.00000  0.00000  1.0000 0.9439998508
Ge  Ge2       1.0  0.50000  1.00000  0.50000  1.0000 0.9514170528
H   H1        1.0  0.68477  0.26885  0.87098  1.0000 0.08079026
H   H2        1.0  0.75997  0.52832  0.05505  1.0000 0.1339390042
H   H3        1.0  0.05754  0.48195  0.13965  1.0000 0.1339390042
H   H4        1.0  0.97302  0.22057  0.95243  1.0000 0.08079026
H   H5        1.0  0.60213  0.73115  0.41592  1.0000 0.08079026
H   H6        1.0  0.52673  0.47168  0.23165  1.0000 0.1339390042
H   H7        1.0  0.65770  0.51805  0.57559  1.0000 0.1339390042
H   H8        1.0  0.73186  0.77943  0.75245  1.0000 0.08079026
H   H9        1.0  0.81523  0.18621  0.08408  1.0000 0.08079026
H   H10       1.0  0.74003  0.29508  0.26835  1.0000 0.1339390042
H   H11       1.0  0.44246  0.08211  0.92441  1.0000 0.1339390042
H   H12       1.0  0.52698  0.97941  0.74755  1.0000 0.08079026
H   H13       1.0  0.89787  0.81379  0.62902  1.0000 0.08079026
H   H14       1.0  0.97327  0.70492  0.44495  1.0000 0.1339390042
H   H15       1.0  0.84230  0.91789  0.36035  1.0000 0.1339390042
H   H16       1.0  0.76814  0.02059  0.54757  1.0000 0.08079026
H   H17       1.0  0.31523  0.73115  0.12902  1.0000 0.08079026
H   H18       1.0  0.24003  0.47168  0.94495  1.0000 0.1339390042
H   H19       1.0  0.94246  0.51805  0.86035  1.0000 0.1339390042
H   H20       1.0  0.02698  0.77943  0.04757  1.0000 0.08079026
H   H21       1.0  0.39787  0.26885  0.58408  1.0000 0.08079026
H   H22       1.0  0.47327  0.52832  0.76835  1.0000 0.1339390042
H   H23       1.0  0.34230  0.48195  0.42441  1.0000 0.1339390042
H   H24       1.0  0.26814  0.22057  0.24755  1.0000 0.08079026
H   H25       1.0  0.18477  0.81379  0.91592  1.0000 0.08079026
H   H26       1.0  0.25997  0.70492  0.73165  1.0000 0.1339390042
H   H27       1.0  0.55754  0.91789  0.07559  1.0000 0.1339390042
H   H28       1.0  0.47302  0.02059  0.25245  1.0000 0.08079026
H   H29       1.0  0.10213  0.18621  0.37098  1.0000 0.08079026
H   H30       1.0  0.02673  0.29508  0.55505  1.0000 0.1339390042
H   H31       1.0  0.15770  0.08211  0.63965  1.0000 0.1339390042
H   H32       1.0  0.23186  0.97941  0.45243  1.0000 0.08079026
C   C1        1.0  0.76150  0.31230  0.92580  1.0000 0.0710808707
C   C2        1.0  0.80580  0.46710  0.03490  1.0000 -0.1963740851
C   C3        1.0  0.91680  0.53060  0.11340  1.0000 0.0903096988
C   C4        1.0  0.98060  0.44030  0.08510  1.0000 -0.2194612532
C   C5        1.0  0.92900  0.28370  0.97250  1.0000 0.0903096988
C   C6        1.0  0.61350  0.68770  0.44920  1.0000 0.0710808707
C   C7        1.0  0.56780  0.53290  0.33870  1.0000 -0.1963740851
C   C8        1.0  0.58280  0.46940  0.38620  1.0000 0.0903096988
C   C9        1.0  0.64480  0.55970  0.54030  1.0000 -0.2194612532
C   C10       1.0  0.68880  0.71630  0.64530  1.0000 0.0903096988
C   C11       1.0  0.73850  0.16430  0.05080  1.0000 0.0710808707
C   C12       1.0  0.69420  0.22910  0.16130  1.0000 -0.1963740851
C   C13       1.0  0.58320  0.19660  0.11380  1.0000 0.0903096988
C   C14       1.0  0.51940  0.10450  0.95970  1.0000 -0.2194612532
C   C15       1.0  0.57100  0.04350  0.85470  1.0000 0.0903096988
C   C16       1.0  0.88650  0.83570  0.57420  1.0000 0.0710808707
C   C17       1.0  0.93220  0.77090  0.46510  1.0000 -0.1963740851
C   C18       1.0  0.91720  0.80340  0.38660  1.0000 0.0903096988
C   C19       1.0  0.85520  0.89550  0.41490  1.0000 -0.2194612532
C   C20       1.0  0.81120  0.95650  0.52750  1.0000 0.0903096988
C   C21       1.0  0.23850  0.68770  0.07420  1.0000 0.0710808707
C   C22       1.0  0.19420  0.53290  0.96510  1.0000 -0.1963740851
C   C23       1.0  0.08320  0.46940  0.88660  1.0000 0.0903096988
C   C24       1.0  0.01940  0.55970  0.91490  1.0000 -0.2194612532
C   C25       1.0  0.07100  0.71630  0.02750  1.0000 0.0903096988
C   C26       1.0  0.38650  0.31230  0.55080  1.0000 0.0710808707
C   C27       1.0  0.43220  0.46710  0.66130  1.0000 -0.1963740851
C   C28       1.0  0.41720  0.53060  0.61380  1.0000 0.0903096988
C   C29       1.0  0.35520  0.44030  0.45970  1.0000 -0.2194612532
C   C30       1.0  0.31120  0.28370  0.35470  1.0000 0.0903096988
C   C31       1.0  0.26150  0.83570  0.94920  1.0000 0.0710808707
C   C32       1.0  0.30580  0.77090  0.83870  1.0000 -0.1963740851
C   C33       1.0  0.41680  0.80340  0.88620  1.0000 0.0903096988
C   C34       1.0  0.48060  0.89550  0.04030  1.0000 -0.2194612532
C   C35       1.0  0.42900  0.95650  0.14530  1.0000 0.0903096988
C   C36       1.0  0.11350  0.16430  0.42580  1.0000 0.0710808707
C   C37       1.0  0.06780  0.22910  0.53490  1.0000 -0.1963740851
C   C38       1.0  0.08280  0.19660  0.61340  1.0000 0.0903096988
C   C39       1.0  0.14480  0.10450  0.58510  1.0000 -0.2194612532
C   C40       1.0  0.18880  0.04350  0.47250  1.0000 0.0903096988
S   S1        1.0  0.97770  0.72770  0.25000  1.0000 0.0157670097
S   S2        1.0  0.52230  0.27230  0.25000  1.0000 0.0132170621
S   S3        1.0  0.02230  0.27230  0.75000  1.0000 0.0132170621
S   S4        1.0  0.47770  0.72770  0.75000  1.0000 0.0132170621
N   N1        1.0  0.82280  0.22080  0.89420  1.0000 -0.2650125979
N   N2        1.0  0.67340  0.77920  0.60200  1.0000 -0.2650125979
N   N3        1.0  0.67720  0.07140  0.89800  1.0000 -0.2639576106
N   N4        1.0  0.82660  0.92860  0.60580  1.0000 -0.2639576106
N   N5        1.0  0.17720  0.77920  0.10580  1.0000 -0.2639576106
N   N6        1.0  0.32660  0.22080  0.39800  1.0000 -0.2639576106
N   N7        1.0  0.32280  0.92860  0.10200  1.0000 -0.2639576106
N   N8        1.0  0.17340  0.07140  0.39420  1.0000 -0.2639576106
F   F1        1.0  0.88910  1.00000  0.88910  1.0000 -0.493517822
F   F2        1.0  0.61090  0.00000  0.61090  1.0000 -0.493517822
F   F3        1.0  0.11090  0.00000  0.11090  1.0000 -0.493517822
F   F4        1.0  0.38910  0.00000  0.38910  1.0000 -0.493517822
F   F5        1.0  0.93310  0.80370  0.87060  1.0000 -0.0886434422
F   F6        1.0  0.06580  0.94240  0.87660  1.0000 -0.0645408615
F   F7        1.0  0.98430  0.81240  0.82810  1.0000 -0.0761879052
F   F8        1.0  0.09330  0.06430  0.97100  1.0000 -0.0886434422
F   F9        1.0  0.06690  0.19630  0.12940  1.0000 -0.0886434422
F   F10       1.0  0.93420  0.05760  0.12340  1.0000 -0.0645408615
F   F11       1.0  0.01570  0.18760  0.17190  1.0000 -0.0761879052
F   F12       1.0  0.90670  0.93570  0.02900  1.0000 -0.0886434422
F   F13       1.0  0.56690  0.93750  0.37060  1.0000 -0.0886434422
F   F14       1.0  0.43420  0.81080  0.37660  1.0000 -0.0665849339
F   F15       1.0  0.51570  0.84380  0.32810  1.0000 -0.0761879052
F   F16       1.0  0.40670  0.87770  0.47100  1.0000 -0.0886434422
F   F17       1.0  0.43310  0.06250  0.62940  1.0000 -0.0886434422
F   F18       1.0  0.56580  0.18920  0.62340  1.0000 -0.0665849339
F   F19       1.0  0.48430  0.15620  0.67190  1.0000 -0.0761879052
F   F20       1.0  0.59330  0.12230  0.52900  1.0000 -0.0886434422
