# DDEC6 charges by PACMAN v1.1 (https://github.com/mtap-research/PACMAN-charge/)
data_2020[Co][nan]3[FSR]32
_chemical_formula_sum              "Co6 H6 C18 N18 O24"
_cell_length_a       14.4208
_cell_length_b       14.4208
_cell_length_c       14.4208
_cell_angle_alpha    116.873
_cell_angle_beta     116.873
_cell_angle_gamma    116.873

_symmetry_space_group_name_H-M    "P 1"
_symmetry_Int_Tables_number       1

loop_
  _symmetry_equiv_pos_as_xyz
  'x, y, z'

loop_
  _atom_site_type_symbol
  _atom_site_label
  _atom_site_symmetry_multiplicity
  _atom_site_fract_x
  _atom_site_fract_y
  _atom_site_fract_z
  _atom_site_occupancy
  _atom_site_charge
Co  Co1       1.0  1.00000  0.71025  0.28975  1.0000 0.6097367341
Co  Co2       1.0  0.71025  0.28975  0.00000  1.0000 0.6097367341
Co  Co3       1.0  0.28975  0.00000  0.71025  1.0000 0.6097367341
Co  Co4       1.0  0.00000  0.28975  0.71025  1.0000 0.6097367341
Co  Co5       1.0  0.28975  0.71025  0.00000  1.0000 0.6097367341
Co  Co6       1.0  0.71025  0.00000  0.28975  1.0000 0.6097367341
H   H1        1.0  0.17801  0.74758  0.17801  1.0000 0.1297182467
H   H2        1.0  0.74758  0.17801  0.17801  1.0000 0.1297182467
H   H3        1.0  0.17801  0.17801  0.74758  1.0000 0.1297182467
H   H4        1.0  0.25242  0.82199  0.82199  1.0000 0.1297182467
H   H5        1.0  0.82199  0.25242  0.82199  1.0000 0.1297182467
H   H6        1.0  0.82199  0.82199  0.25242  1.0000 0.1297182467
C   C1        1.0  0.35995  0.92783  0.45778  1.0000 0.1297182467
C   C2        1.0  0.92783  0.45778  0.35995  1.0000 0.1297182467
C   C3        1.0  0.45778  0.35995  0.92783  1.0000 0.1297182467
C   C4        1.0  0.07217  0.64005  0.54222  1.0000 0.1297182467
C   C5        1.0  0.54222  0.07217  0.64005  1.0000 0.1297182467
C   C6        1.0  0.64005  0.54222  0.07217  1.0000 0.1297182467
C   C7        1.0  0.64005  0.07217  0.54222  1.0000 0.1297182467
C   C8        1.0  0.07217  0.54222  0.64005  1.0000 0.1297182467
C   C9        1.0  0.54222  0.64005  0.07217  1.0000 0.1297182467
C   C10       1.0  0.92783  0.35995  0.45778  1.0000 0.1297182467
C   C11       1.0  0.45778  0.92783  0.35995  1.0000 0.1297182467
C   C12       1.0  0.35995  0.45778  0.92783  1.0000 0.1297182467
C   C13       1.0  0.31736  0.85639  0.31735  1.0000 -0.1801682229
C   C14       1.0  0.85639  0.31735  0.31735  1.0000 -0.1801682229
C   C15       1.0  0.31735  0.31735  0.85639  1.0000 -0.1801682229
C   C16       1.0  0.14361  0.68264  0.68265  1.0000 -0.1801682229
C   C17       1.0  0.68265  0.14361  0.68265  1.0000 -0.1801682229
C   C18       1.0  0.68265  0.68264  0.14361  1.0000 -0.1801682229
N   N1        1.0  0.25400  0.88567  0.45913  1.0000 -0.1343633971
N   N2        1.0  0.88567  0.45913  0.25400  1.0000 -0.1343633971
N   N3        1.0  0.45913  0.25400  0.88567  1.0000 -0.1343633971
N   N4        1.0  0.11433  0.74600  0.54087  1.0000 -0.1343633971
N   N5        1.0  0.54087  0.11433  0.74600  1.0000 -0.1343633971
N   N6        1.0  0.74600  0.54087  0.11433  1.0000 -0.1343633971
N   N7        1.0  0.74600  0.11433  0.54087  1.0000 -0.1343633971
N   N8        1.0  0.11433  0.54087  0.74600  1.0000 -0.1343633971
N   N9        1.0  0.54087  0.74600  0.11433  1.0000 -0.1343633971
N   N10       1.0  0.88567  0.25400  0.45913  1.0000 -0.1343633971
N   N11       1.0  0.45913  0.88567  0.25400  1.0000 -0.1343633971
N   N12       1.0  0.25400  0.45913  0.88567  1.0000 -0.1343633971
N   N13       1.0  0.36933  0.00000  0.63067  1.0000 0.057385458
N   N14       1.0  1.00000  0.63067  0.36933  1.0000 0.057385458
N   N15       1.0  0.63067  0.36933  0.00000  1.0000 0.057385458
N   N16       1.0  0.63067  0.00000  0.36933  1.0000 0.057385458
N   N17       1.0  0.00000  0.36933  0.63067  1.0000 0.057385458
N   N18       1.0  0.36933  0.63067  0.00000  1.0000 0.057385458
O   O1        1.0  0.07279  0.93967  0.31304  1.0000 -0.122158085
O   O2        1.0  0.93967  0.31304  0.07279  1.0000 -0.122158085
O   O3        1.0  0.31304  0.07279  0.93967  1.0000 -0.122158085
O   O4        1.0  0.06033  0.92721  0.68696  1.0000 -0.122158085
O   O5        1.0  0.68696  0.06033  0.92721  1.0000 -0.122158085
O   O6        1.0  0.92721  0.68696  0.06033  1.0000 -0.122158085
O   O7        1.0  0.92721  0.06033  0.68696  1.0000 -0.122158085
O   O8        1.0  0.06033  0.68696  0.92721  1.0000 -0.122158085
O   O9        1.0  0.68696  0.92721  0.06033  1.0000 -0.122158085
O   O10       1.0  0.93967  0.07279  0.31304  1.0000 -0.122158085
O   O11       1.0  0.31304  0.93967  0.07279  1.0000 -0.122158085
O   O12       1.0  0.07279  0.31304  0.93967  1.0000 -0.122158085
O   O13       1.0  0.00000  0.78678  0.21322  1.0000 0.2388260064
O   O14       1.0  0.78678  0.21322  0.00000  1.0000 0.2476635311
O   O15       1.0  0.21322  0.00000  0.78678  1.0000 0.2388260064
O   O16       1.0  0.00000  0.21322  0.78678  1.0000 0.2388260064
O   O17       1.0  0.21322  0.78678  0.00000  1.0000 0.2388260064
O   O18       1.0  0.78678  0.00000  0.21322  1.0000 0.2476635311
O   O19       1.0  0.09845  0.90155  0.50000  1.0000 -0.6012072927
O   O20       1.0  0.90155  0.50000  0.09845  1.0000 -0.6084678934
O   O21       1.0  0.50000  0.09845  0.90155  1.0000 -0.6084678934
O   O22       1.0  0.90155  0.09845  0.50000  1.0000 -0.6084678934
O   O23       1.0  0.09845  0.50000  0.90155  1.0000 -0.6012072927
O   O24       1.0  0.50000  0.90155  0.09845  1.0000 -0.6012072927
