# DDEC6 charges by PACMAN v1.1 (https://github.com/mtap-research/PACMAN-charge/)
data_2020[Cd][pcu]3[FSR]5
_chemical_formula_sum              "Cd4 H72 C120 S16 N8 O16"
_cell_length_a       10.1851
_cell_length_b       28.1899
_cell_length_c       16.9584
_cell_angle_alpha    90
_cell_angle_beta     118.853
_cell_angle_gamma    90

_symmetry_space_group_name_H-M    "P 1"
_symmetry_Int_Tables_number       1

loop_
  _symmetry_equiv_pos_as_xyz
  'x, y, z'

loop_
  _atom_site_type_symbol
  _atom_site_label
  _atom_site_symmetry_multiplicity
  _atom_site_fract_x
  _atom_site_fract_y
  _atom_site_fract_z
  _atom_site_occupancy
  _atom_site_charge
Cd  Cd1       1.0  0.89261  0.46098  0.04380  1.0000 0.8547027429
Cd  Cd2       1.0  0.10739  0.96098  0.45620  1.0000 0.8547027429
Cd  Cd3       1.0  0.10739  0.53902  0.95620  1.0000 0.8547027429
Cd  Cd4       1.0  0.89261  0.03902  0.54380  1.0000 0.8547027429
H   H1        1.0  0.91276  0.35172  0.26943  1.0000 0.1109535234
H   H2        1.0  0.96505  0.27733  0.33979  1.0000 0.1109535234
H   H3        1.0  0.86273  0.21558  0.10089  1.0000 0.1109535234
H   H4        1.0  0.82176  0.28992  0.03428  1.0000 0.1232770031
H   H5        1.0  0.08966  0.08772  0.26437  1.0000 0.1109535234
H   H6        1.0  0.03461  0.16075  0.19433  1.0000 0.1109535234
H   H7        1.0  0.88474  0.20522  0.36320  1.0000 0.1109535234
H   H8        1.0  0.93359  0.13213  0.43030  1.0000 0.1297891585
H   H9        1.0  0.15206  0.49994  0.23354  1.0000 0.098763371
H   H10       1.0  0.39920  0.48977  0.34104  1.0000 0.1297891585
H   H11       1.0  0.40945  0.37337  0.20442  1.0000 0.1376457383
H   H12       1.0  0.16625  0.38873  0.09823  1.0000 0.1109535234
H   H13       1.0  0.64756  0.36678  0.30066  1.0000 0.1642919352
H   H14       1.0  0.14044  0.53817  0.74383  1.0000 0.1761970689
H   H15       1.0  0.60278  0.52452  0.97015  1.0000 0.1109535234
H   H16       1.0  0.35736  0.53085  0.85832  1.0000 0.1453665887
H   H17       1.0  0.43919  0.42479  0.72657  1.0000 0.1297891585
H   H18       1.0  0.68168  0.42076  0.84632  1.0000 0.1109535234
H   H19       1.0  0.08724  0.85172  0.23057  1.0000 0.1109535234
H   H20       1.0  0.03495  0.77733  0.16021  1.0000 0.1109535234
H   H21       1.0  0.13727  0.71558  0.39911  1.0000 0.1109535234
H   H22       1.0  0.17824  0.78992  0.46572  1.0000 0.1232770031
H   H23       1.0  0.91034  0.58772  0.23563  1.0000 0.1109535234
H   H24       1.0  0.96539  0.66075  0.30567  1.0000 0.1109535234
H   H25       1.0  0.11526  0.70522  0.13680  1.0000 0.1109535234
H   H26       1.0  0.06641  0.63213  0.06970  1.0000 0.1297891585
H   H27       1.0  0.84794  0.99994  0.26646  1.0000 0.098763371
H   H28       1.0  0.60080  0.98977  0.15896  1.0000 0.1297891585
H   H29       1.0  0.59055  0.87337  0.29558  1.0000 0.1376457383
H   H30       1.0  0.83375  0.88873  0.40177  1.0000 0.1109535234
H   H31       1.0  0.35244  0.86678  0.19934  1.0000 0.1642919352
H   H32       1.0  0.85956  0.03817  0.75617  1.0000 0.1761970689
H   H33       1.0  0.39722  0.02452  0.52985  1.0000 0.1109535234
H   H34       1.0  0.64264  0.03085  0.64168  1.0000 0.1453665887
H   H35       1.0  0.56081  0.92479  0.77343  1.0000 0.1297891585
H   H36       1.0  0.31832  0.92076  0.65368  1.0000 0.1109535234
H   H37       1.0  0.08724  0.64828  0.73057  1.0000 0.1109535234
H   H38       1.0  0.03495  0.72267  0.66021  1.0000 0.1109535234
H   H39       1.0  0.13727  0.78442  0.89911  1.0000 0.1109535234
H   H40       1.0  0.17824  0.71008  0.96572  1.0000 0.1232770031
H   H41       1.0  0.91034  0.91228  0.73563  1.0000 0.1109535234
H   H42       1.0  0.96539  0.83925  0.80567  1.0000 0.1109535234
H   H43       1.0  0.11526  0.79478  0.63680  1.0000 0.1109535234
H   H44       1.0  0.06641  0.86787  0.56970  1.0000 0.1297891585
H   H45       1.0  0.84794  0.50006  0.76646  1.0000 0.098763371
H   H46       1.0  0.60080  0.51023  0.65896  1.0000 0.1297891585
H   H47       1.0  0.59055  0.62663  0.79558  1.0000 0.1376457383
H   H48       1.0  0.83375  0.61127  0.90177  1.0000 0.1109535234
H   H49       1.0  0.35244  0.63322  0.69934  1.0000 0.1642919352
H   H50       1.0  0.85956  0.46183  0.25617  1.0000 0.1761970689
H   H51       1.0  0.39722  0.47548  0.02985  1.0000 0.1109535234
H   H52       1.0  0.64264  0.46915  0.14168  1.0000 0.1453665887
H   H53       1.0  0.56081  0.57521  0.27343  1.0000 0.1297891585
H   H54       1.0  0.31832  0.57924  0.15368  1.0000 0.1109535234
H   H55       1.0  0.91276  0.14828  0.76943  1.0000 0.1109535234
H   H56       1.0  0.96505  0.22267  0.83979  1.0000 0.1109535234
H   H57       1.0  0.86273  0.28442  0.60089  1.0000 0.1109535234
H   H58       1.0  0.82176  0.21008  0.53428  1.0000 0.1232770031
H   H59       1.0  0.08966  0.41228  0.76437  1.0000 0.1109535234
H   H60       1.0  0.03461  0.33925  0.69433  1.0000 0.1109535234
H   H61       1.0  0.88474  0.29478  0.86320  1.0000 0.1109535234
H   H62       1.0  0.93359  0.36787  0.93030  1.0000 0.1297891585
H   H63       1.0  0.15206  0.00006  0.73354  1.0000 0.098763371
H   H64       1.0  0.39920  0.01023  0.84104  1.0000 0.1297891585
H   H65       1.0  0.40945  0.12663  0.70442  1.0000 0.1376457383
H   H66       1.0  0.16625  0.11127  0.59823  1.0000 0.1109535234
H   H67       1.0  0.64756  0.13322  0.80066  1.0000 0.1642919352
H   H68       1.0  0.14044  0.96183  0.24383  1.0000 0.1761970689
H   H69       1.0  0.60278  0.97548  0.47015  1.0000 0.1109535234
H   H70       1.0  0.35736  0.96915  0.35832  1.0000 0.1453665887
H   H71       1.0  0.43919  0.07521  0.22657  1.0000 0.1297891585
H   H72       1.0  0.68168  0.07924  0.34632  1.0000 0.1109535234
C   C1        1.0  0.84630  0.37670  0.10470  1.0000 0.5422934015
C   C2        1.0  0.86430  0.32860  0.14620  1.0000 -0.0301909837
C   C3        1.0  0.90470  0.32410  0.23530  1.0000 -0.1115970745
C   C4        1.0  0.93460  0.27960  0.27740  1.0000 -0.1556120719
C   C5        1.0  0.91950  0.23850  0.22740  1.0000 0.0780030819
C   C6        1.0  0.87530  0.24310  0.13610  1.0000 -0.1497953179
C   C7        1.0  0.84970  0.28740  0.09630  1.0000 -0.1041166092
C   C8        1.0  0.05760  0.05520  0.40040  1.0000 0.5463540872
C   C9        1.0  0.02310  0.10270  0.35660  1.0000 -0.0370848383
C   C10       1.0  0.04840  0.11190  0.28490  1.0000 -0.1115970745
C   C11       1.0  0.01520  0.15510  0.24300  1.0000 -0.1497953179
C   C12       1.0  0.95240  0.19130  0.27160  1.0000 0.0780030819
C   C13       1.0  0.92600  0.18120  0.34240  1.0000 -0.1366993989
C   C14       1.0  0.95690  0.13820  0.38330  1.0000 -0.1115970745
C   C15       1.0  0.20640  0.47420  0.22730  1.0000 0.0944977944
C   C16       1.0  0.35320  0.46820  0.29210  1.0000 -0.2117791429
C   C17       1.0  0.43390  0.42980  0.28480  1.0000 0.1297891585
C   C18       1.0  0.35930  0.40010  0.21140  1.0000 -0.1796659659
C   C19       1.0  0.21420  0.40910  0.14890  1.0000 0.0780030819
C   C20       1.0  0.59150  0.42270  0.35090  1.0000 -0.0035674845
C   C21       1.0  0.68230  0.38920  0.34840  1.0000 -0.2292201971
C   C22       1.0  0.85100  0.43850  0.49100  1.0000 -0.1115970745
C   C23       1.0  0.96310  0.45920  0.56390  1.0000 -0.1203151736
C   C24       1.0  0.11260  0.51380  0.70000  1.0000 -0.2117791429
C   C25       1.0  0.21300  0.48190  0.70410  1.0000 -0.009728085
C   C26       1.0  0.56780  0.50360  0.92010  1.0000 0.0652606656
C   C27       1.0  0.42220  0.50830  0.85320  1.0000 -0.1796659659
C   C28       1.0  0.37090  0.47900  0.77680  1.0000 0.1297891585
C   C29       1.0  0.46970  0.44590  0.77600  1.0000 -0.2117791429
C   C30       1.0  0.61460  0.44360  0.84820  1.0000 0.098763371
C   C31       1.0  0.15370  0.87670  0.39530  1.0000 0.5422934015
C   C32       1.0  0.13570  0.82860  0.35380  1.0000 -0.0301909837
C   C33       1.0  0.09530  0.82410  0.26470  1.0000 -0.1115970745
C   C34       1.0  0.06540  0.77960  0.22260  1.0000 -0.1556120719
C   C35       1.0  0.08050  0.73850  0.27260  1.0000 0.0780030819
C   C36       1.0  0.12470  0.74310  0.36390  1.0000 -0.1497953179
C   C37       1.0  0.15030  0.78740  0.40370  1.0000 -0.1041166092
C   C38       1.0  0.94240  0.55520  0.09960  1.0000 0.5463540872
C   C39       1.0  0.97690  0.60270  0.14340  1.0000 -0.0370848383
C   C40       1.0  0.95160  0.61190  0.21510  1.0000 -0.1115970745
C   C41       1.0  0.98480  0.65510  0.25700  1.0000 -0.1497953179
C   C42       1.0  0.04760  0.69130  0.22840  1.0000 0.0780030819
C   C43       1.0  0.07400  0.68120  0.15760  1.0000 -0.1366993989
C   C44       1.0  0.04310  0.63820  0.11670  1.0000 -0.1115970745
C   C45       1.0  0.79360  0.97420  0.27270  1.0000 0.0944977944
C   C46       1.0  0.64680  0.96820  0.20790  1.0000 -0.2117791429
C   C47       1.0  0.56610  0.92980  0.21520  1.0000 0.1297891585
C   C48       1.0  0.64070  0.90010  0.28860  1.0000 -0.1796659659
C   C49       1.0  0.78580  0.90910  0.35110  1.0000 0.0780030819
C   C50       1.0  0.40850  0.92270  0.14910  1.0000 -0.0035674845
C   C51       1.0  0.31770  0.88920  0.15160  1.0000 -0.2292201971
C   C52       1.0  0.14900  0.93850  0.00900  1.0000 -0.1115970745
C   C53       1.0  0.03690  0.95920  0.93610  1.0000 -0.1203151736
C   C54       1.0  0.88740  0.01380  0.80000  1.0000 -0.2117791429
C   C55       1.0  0.78700  0.98190  0.79590  1.0000 -0.009728085
C   C56       1.0  0.43220  0.00360  0.57990  1.0000 0.0652606656
C   C57       1.0  0.57780  0.00830  0.64680  1.0000 -0.1796659659
C   C58       1.0  0.62910  0.97900  0.72320  1.0000 0.1297891585
C   C59       1.0  0.53030  0.94590  0.72400  1.0000 -0.2117791429
C   C60       1.0  0.38540  0.94360  0.65180  1.0000 0.098763371
C   C61       1.0  0.15370  0.62330  0.89530  1.0000 0.5422934015
C   C62       1.0  0.13570  0.67140  0.85380  1.0000 -0.0301909837
C   C63       1.0  0.09530  0.67590  0.76470  1.0000 -0.1115970745
C   C64       1.0  0.06540  0.72040  0.72260  1.0000 -0.1556120719
C   C65       1.0  0.08050  0.76150  0.77260  1.0000 0.0780030819
C   C66       1.0  0.12470  0.75690  0.86390  1.0000 -0.1497953179
C   C67       1.0  0.15030  0.71260  0.90370  1.0000 -0.1041166092
C   C68       1.0  0.94240  0.94480  0.59960  1.0000 0.5463540872
C   C69       1.0  0.97690  0.89730  0.64340  1.0000 -0.0370848383
C   C70       1.0  0.95160  0.88810  0.71510  1.0000 -0.1115970745
C   C71       1.0  0.98480  0.84490  0.75700  1.0000 -0.1497953179
C   C72       1.0  0.04760  0.80870  0.72840  1.0000 0.0780030819
C   C73       1.0  0.07400  0.81880  0.65760  1.0000 -0.1366993989
C   C74       1.0  0.04310  0.86180  0.61670  1.0000 -0.1115970745
C   C75       1.0  0.79360  0.52580  0.77270  1.0000 0.0944977944
C   C76       1.0  0.64680  0.53180  0.70790  1.0000 -0.2117791429
C   C77       1.0  0.56610  0.57020  0.71520  1.0000 0.1297891585
C   C78       1.0  0.64070  0.59990  0.78860  1.0000 -0.1796659659
C   C79       1.0  0.78580  0.59090  0.85110  1.0000 0.0780030819
C   C80       1.0  0.40850  0.57730  0.64910  1.0000 -0.0035674845
C   C81       1.0  0.31770  0.61080  0.65160  1.0000 -0.2292201971
C   C82       1.0  0.14900  0.56150  0.50900  1.0000 -0.1115970745
C   C83       1.0  0.03690  0.54080  0.43610  1.0000 -0.1203151736
C   C84       1.0  0.88740  0.48620  0.30000  1.0000 -0.2117791429
C   C85       1.0  0.78700  0.51810  0.29590  1.0000 -0.009728085
C   C86       1.0  0.43220  0.49640  0.07990  1.0000 0.0652606656
C   C87       1.0  0.57780  0.49170  0.14680  1.0000 -0.1796659659
C   C88       1.0  0.62910  0.52100  0.22320  1.0000 0.1297891585
C   C89       1.0  0.53030  0.55410  0.22400  1.0000 -0.2117791429
C   C90       1.0  0.38540  0.55640  0.15180  1.0000 0.098763371
C   C91       1.0  0.84630  0.12330  0.60470  1.0000 0.5422934015
C   C92       1.0  0.86430  0.17140  0.64620  1.0000 -0.0301909837
C   C93       1.0  0.90470  0.17590  0.73530  1.0000 -0.1115970745
C   C94       1.0  0.93460  0.22040  0.77740  1.0000 -0.1556120719
C   C95       1.0  0.91950  0.26150  0.72740  1.0000 0.0780030819
C   C96       1.0  0.87530  0.25690  0.63610  1.0000 -0.1497953179
C   C97       1.0  0.84970  0.21260  0.59630  1.0000 -0.1041166092
C   C98       1.0  0.05760  0.44480  0.90040  1.0000 0.5463540872
C   C99       1.0  0.02310  0.39730  0.85660  1.0000 -0.0370848383
C   C100      1.0  0.04840  0.38810  0.78490  1.0000 -0.1115970745
C   C101      1.0  0.01520  0.34490  0.74300  1.0000 -0.1497953179
C   C102      1.0  0.95240  0.30870  0.77160  1.0000 0.0780030819
C   C103      1.0  0.92600  0.31880  0.84240  1.0000 -0.1366993989
C   C104      1.0  0.95690  0.36180  0.88330  1.0000 -0.1115970745
C   C105      1.0  0.20640  0.02580  0.72730  1.0000 0.0944977944
C   C106      1.0  0.35320  0.03180  0.79210  1.0000 -0.2117791429
C   C107      1.0  0.43390  0.07020  0.78480  1.0000 0.1297891585
C   C108      1.0  0.35930  0.09990  0.71140  1.0000 -0.1796659659
C   C109      1.0  0.21420  0.09090  0.64890  1.0000 0.0780030819
C   C110      1.0  0.59150  0.07730  0.85090  1.0000 -0.0035674845
C   C111      1.0  0.68230  0.11080  0.84840  1.0000 -0.2292201971
C   C112      1.0  0.85100  0.06150  0.99100  1.0000 -0.1115970745
C   C113      1.0  0.96310  0.04080  0.06390  1.0000 -0.1203151736
C   C114      1.0  0.11260  0.98620  0.20000  1.0000 -0.2117791429
C   C115      1.0  0.21300  0.01810  0.20410  1.0000 -0.009728085
C   C116      1.0  0.56780  0.99640  0.42010  1.0000 0.0652606656
C   C117      1.0  0.42220  0.99170  0.35320  1.0000 -0.1796659659
C   C118      1.0  0.37090  0.02100  0.27680  1.0000 0.1297891585
C   C119      1.0  0.46970  0.05410  0.27600  1.0000 -0.2117791429
C   C120      1.0  0.61460  0.05640  0.34820  1.0000 0.098763371
S   S1        1.0  0.66800  0.46256  0.44291  1.0000 0.024376372
S   S2        1.0  0.86747  0.38808  0.43627  1.0000 0.1297891585
S   S3        1.0  0.93136  0.50950  0.61305  1.0000 0.1297891585
S   S4        1.0  0.14821  0.43841  0.61772  1.0000 0.0464848132
S   S5        1.0  0.33200  0.96256  0.05709  1.0000 0.024376372
S   S6        1.0  0.13253  0.88808  0.06373  1.0000 0.1297891585
S   S7        1.0  0.06864  0.00950  0.88695  1.0000 0.1297891585
S   S8        1.0  0.85179  0.93841  0.88228  1.0000 0.0464848132
S   S9        1.0  0.33200  0.53744  0.55709  1.0000 0.024376372
S   S10       1.0  0.13253  0.61192  0.56373  1.0000 0.1297891585
S   S11       1.0  0.06864  0.49050  0.38695  1.0000 0.1297891585
S   S12       1.0  0.85179  0.56159  0.38228  1.0000 0.0464848132
S   S13       1.0  0.66800  0.03744  0.94291  1.0000 0.024376372
S   S14       1.0  0.86747  0.11192  0.93627  1.0000 0.1297891585
S   S15       1.0  0.93136  0.99050  0.11305  1.0000 0.1297891585
S   S16       1.0  0.14821  0.06159  0.11772  1.0000 0.0464848132
N   N1        1.0  0.13600  0.44594  0.15630  1.0000 -0.2292201971
N   N2        1.0  0.66310  0.47157  0.91900  1.0000 -0.2292201971
N   N3        1.0  0.86400  0.94594  0.34370  1.0000 -0.2292201971
N   N4        1.0  0.33690  0.97157  0.58100  1.0000 -0.2292201971
N   N5        1.0  0.86400  0.55406  0.84370  1.0000 -0.2292201971
N   N6        1.0  0.33690  0.52843  0.08100  1.0000 -0.2292201971
N   N7        1.0  0.13600  0.05406  0.65630  1.0000 -0.2292201971
N   N8        1.0  0.66310  0.02843  0.41900  1.0000 -0.2292201971
O   O1        1.0  0.83270  0.41228  0.14350  1.0000 -0.5518298427
O   O2        1.0  0.85220  0.37940  0.03200  1.0000 -0.5558260361
O   O3        1.0  0.13660  0.02651  0.38330  1.0000 -0.542631803
O   O4        1.0  0.00730  0.04317  0.45290  1.0000 -0.5834788065
O   O5        1.0  0.16730  0.91228  0.35650  1.0000 -0.5518298427
O   O6        1.0  0.14780  0.87940  0.46800  1.0000 -0.5558260361
O   O7        1.0  0.86340  0.52651  0.11670  1.0000 -0.542631803
O   O8        1.0  0.99270  0.54317  0.04710  1.0000 -0.5834788065
O   O9        1.0  0.16730  0.58772  0.85650  1.0000 -0.5518298427
O   O10       1.0  0.14780  0.62060  0.96800  1.0000 -0.5558260361
O   O11       1.0  0.86340  0.97349  0.61670  1.0000 -0.542631803
O   O12       1.0  0.99270  0.95683  0.54710  1.0000 -0.5834788065
O   O13       1.0  0.83270  0.08772  0.64350  1.0000 -0.5518298427
O   O14       1.0  0.85220  0.12060  0.53200  1.0000 -0.5558260361
O   O15       1.0  0.13660  0.47349  0.88330  1.0000 -0.542631803
O   O16       1.0  0.00730  0.45683  0.95290  1.0000 -0.5834788065
