# DDEC6 charges by PACMAN v1.1 (https://github.com/mtap-research/PACMAN-charge/)
data_2020[Cd][hms]3[FSR]1
_chemical_formula_sum              "Cd4 H84 C104 N20 O20"
_cell_length_a       13.4652
_cell_length_b       14.0339
_cell_length_c       16.5819
_cell_angle_alpha    90
_cell_angle_beta     90
_cell_angle_gamma    90

_symmetry_space_group_name_H-M    "P 1"
_symmetry_Int_Tables_number       1

loop_
  _symmetry_equiv_pos_as_xyz
  'x, y, z'

loop_
  _atom_site_type_symbol
  _atom_site_label
  _atom_site_symmetry_multiplicity
  _atom_site_fract_x
  _atom_site_fract_y
  _atom_site_fract_z
  _atom_site_occupancy
  _atom_site_charge
Cd  Cd1       1.0  0.45963  0.62053  0.10329  1.0000 0.7908926791
Cd  Cd2       1.0  0.04037  0.37947  0.60329  1.0000 0.7908926791
Cd  Cd3       1.0  0.54037  0.12053  0.39671  1.0000 0.7908926791
Cd  Cd4       1.0  0.95963  0.87947  0.89671  1.0000 0.7908926791
H   H1        1.0  0.45441  0.61592  0.79053  1.0000 0.299071986
H   H2        1.0  0.40338  0.46846  0.70297  1.0000 0.2718420213
H   H3        1.0  0.49869  0.38261  0.61331  1.0000 0.1119015415
H   H4        1.0  0.65722  0.37153  0.55774  1.0000 0.1187168495
H   H5        1.0  0.55875  0.97066  0.03385  1.0000 0.1319215305
H   H6        1.0  0.48515  0.28269  0.96024  1.0000 0.1319215305
H   H7        1.0  0.47854  0.44707  0.97233  1.0000 0.1010051
H   H8        1.0  0.54920  0.80576  0.02598  1.0000 0.1010051
H   H9        1.0  0.43844  0.11596  0.18265  1.0000 0.1397942191
H   H10       1.0  0.50235  0.12518  0.02297  1.0000 0.1119015415
H   H11       1.0  0.34781  0.96307  0.20810  1.0000 0.1397942191
H   H12       1.0  0.26873  0.59015  0.74582  1.0000 0.1319215305
H   H13       1.0  0.19370  0.55601  0.81480  1.0000 0.1397942191
H   H14       1.0  0.26845  0.57298  0.96993  1.0000 0.1397942191
H   H15       1.0  0.61025  0.31726  0.83404  1.0000 0.1187168495
H   H16       1.0  0.77095  0.31915  0.77950  1.0000 0.1119015415
H   H17       1.0  0.26934  0.40380  0.81800  1.0000 0.1010051
H   H18       1.0  0.46275  0.42895  0.20879  1.0000 0.1010051
H   H19       1.0  0.34460  0.79782  0.19513  1.0000 0.1119015415
H   H20       1.0  0.46839  0.26401  0.20452  1.0000 0.1319215305
H   H21       1.0  0.53873  0.65864  0.91261  1.0000 0.1187168495
H   H22       1.0  0.04559  0.38408  0.29053  1.0000 0.299071986
H   H23       1.0  0.09662  0.53154  0.20297  1.0000 0.2718420213
H   H24       1.0  0.00131  0.61739  0.11331  1.0000 0.1119015415
H   H25       1.0  0.84278  0.62847  0.05774  1.0000 0.1187168495
H   H26       1.0  0.94125  0.02934  0.53385  1.0000 0.1319215305
H   H27       1.0  0.01485  0.71731  0.46024  1.0000 0.1319215305
H   H28       1.0  0.02146  0.55293  0.47233  1.0000 0.1010051
H   H29       1.0  0.95080  0.19424  0.52598  1.0000 0.1010051
H   H30       1.0  0.06156  0.88404  0.68265  1.0000 0.1397942191
H   H31       1.0  0.99765  0.87482  0.52297  1.0000 0.1119015415
H   H32       1.0  0.15219  0.03693  0.70810  1.0000 0.1397942191
H   H33       1.0  0.23127  0.40985  0.24582  1.0000 0.1319215305
H   H34       1.0  0.30630  0.44399  0.31480  1.0000 0.1397942191
H   H35       1.0  0.23155  0.42702  0.46993  1.0000 0.1397942191
H   H36       1.0  0.88975  0.68274  0.33404  1.0000 0.1187168495
H   H37       1.0  0.72905  0.68085  0.27950  1.0000 0.1119015415
H   H38       1.0  0.23066  0.59620  0.31800  1.0000 0.1010051
H   H39       1.0  0.03725  0.57105  0.70879  1.0000 0.1010051
H   H40       1.0  0.15540  0.20218  0.69513  1.0000 0.1119015415
H   H41       1.0  0.03161  0.73599  0.70452  1.0000 0.1319215305
H   H42       1.0  0.96127  0.34136  0.41261  1.0000 0.1187168495
H   H43       1.0  0.54559  0.11592  0.70947  1.0000 0.299071986
H   H44       1.0  0.59662  0.96846  0.79703  1.0000 0.2718420213
H   H45       1.0  0.50131  0.88261  0.88669  1.0000 0.1119015415
H   H46       1.0  0.34278  0.87153  0.94226  1.0000 0.1187168495
H   H47       1.0  0.44125  0.47066  0.46615  1.0000 0.1319215305
H   H48       1.0  0.51485  0.78269  0.53976  1.0000 0.1319215305
H   H49       1.0  0.52146  0.94707  0.52767  1.0000 0.1010051
H   H50       1.0  0.45080  0.30576  0.47402  1.0000 0.1010051
H   H51       1.0  0.56156  0.61596  0.31735  1.0000 0.1397942191
H   H52       1.0  0.49765  0.62518  0.47703  1.0000 0.1119015415
H   H53       1.0  0.65219  0.46307  0.29190  1.0000 0.1397942191
H   H54       1.0  0.73127  0.09015  0.75418  1.0000 0.1319215305
H   H55       1.0  0.80630  0.05601  0.68520  1.0000 0.1397942191
H   H56       1.0  0.73155  0.07298  0.53007  1.0000 0.1397942191
H   H57       1.0  0.38975  0.81726  0.66596  1.0000 0.1187168495
H   H58       1.0  0.22905  0.81915  0.72050  1.0000 0.1119015415
H   H59       1.0  0.73066  0.90380  0.68200  1.0000 0.1010051
H   H60       1.0  0.53725  0.92895  0.29121  1.0000 0.1010051
H   H61       1.0  0.65540  0.29782  0.30487  1.0000 0.1119015415
H   H62       1.0  0.53161  0.76401  0.29548  1.0000 0.1319215305
H   H63       1.0  0.46127  0.15864  0.58739  1.0000 0.1187168495
H   H64       1.0  0.95441  0.88408  0.20947  1.0000 0.299071986
H   H65       1.0  0.90338  0.03154  0.29703  1.0000 0.2718420213
H   H66       1.0  0.99869  0.11739  0.38669  1.0000 0.1119015415
H   H67       1.0  0.15722  0.12847  0.44226  1.0000 0.1187168495
H   H68       1.0  0.05875  0.52934  0.96615  1.0000 0.1319215305
H   H69       1.0  0.98515  0.21731  0.03976  1.0000 0.1319215305
H   H70       1.0  0.97854  0.05293  0.02767  1.0000 0.1010051
H   H71       1.0  0.04920  0.69424  0.97402  1.0000 0.1010051
H   H72       1.0  0.93844  0.38404  0.81735  1.0000 0.1397942191
H   H73       1.0  0.00235  0.37482  0.97703  1.0000 0.1119015415
H   H74       1.0  0.84781  0.53693  0.79190  1.0000 0.1397942191
H   H75       1.0  0.76873  0.90985  0.25418  1.0000 0.1319215305
H   H76       1.0  0.69370  0.94399  0.18520  1.0000 0.1397942191
H   H77       1.0  0.76845  0.92702  0.03007  1.0000 0.1397942191
H   H78       1.0  0.11025  0.18274  0.16596  1.0000 0.1187168495
H   H79       1.0  0.27095  0.18085  0.22050  1.0000 0.1119015415
H   H80       1.0  0.76934  0.09620  0.18200  1.0000 0.1010051
H   H81       1.0  0.96275  0.07105  0.79121  1.0000 0.1010051
H   H82       1.0  0.84460  0.70218  0.80487  1.0000 0.1119015415
H   H83       1.0  0.96839  0.23599  0.79548  1.0000 0.1319215305
H   H84       1.0  0.03873  0.84136  0.08739  1.0000 0.1187168495
C   C1        1.0  0.72990  0.34890  0.66420  1.0000 -0.0109636564
C   C2        1.0  0.55390  0.36890  0.64700  1.0000 -0.150338432
C   C3        1.0  0.43860  0.35900  0.76690  1.0000 0.4591339564
C   C4        1.0  0.64820  0.36430  0.61420  1.0000 -0.0963116029
C   C5        1.0  0.45390  0.98630  0.12230  1.0000 0.1627413815
C   C6        1.0  0.51410  0.93690  0.06780  1.0000 -0.2082636917
C   C7        1.0  0.53920  0.35350  0.72900  1.0000 -0.0366050026
C   C8        1.0  0.83360  0.35570  0.63140  1.0000 0.5442442184
C   C9        1.0  0.48080  0.31100  0.01220  1.0000 -0.1925483535
C   C10       1.0  0.47690  0.40930  0.01990  1.0000 0.089144212
C   C11       1.0  0.20030  0.41690  0.70600  1.0000 0.5307645684
C   C12       1.0  0.33380  0.58280  0.85730  1.0000 0.1715041956
C   C13       1.0  0.50810  0.83820  0.06360  1.0000 0.0631153023
C   C14       1.0  0.45600  0.09020  0.13160  1.0000 -0.1185954252
C   C15       1.0  0.48120  0.15110  0.07300  1.0000 -0.150338432
C   C16       1.0  0.39010  0.93260  0.17020  1.0000 -0.203083765
C   C17       1.0  0.26230  0.54910  0.79410  1.0000 -0.3151691968
C   C18       1.0  0.32570  0.58910  0.93940  1.0000 -0.1185954252
C   C19       1.0  0.47830  0.25400  0.08080  1.0000 0.1715041956
C   C20       1.0  0.62010  0.33170  0.77860  1.0000 -0.1380965376
C   C21       1.0  0.71540  0.33140  0.74580  1.0000 -0.1185954252
C   C22       1.0  0.27930  0.44470  0.76930  1.0000 0.02173162
C   C23       1.0  0.46760  0.39840  0.15780  1.0000 0.0730831528
C   C24       1.0  0.38880  0.83340  0.16220  1.0000 0.089144212
C   C25       1.0  0.47100  0.29990  0.15600  1.0000 -0.1925483535
C   C26       1.0  0.47250  0.63570  0.90880  1.0000 0.1451590879
C   C27       1.0  0.77010  0.65110  0.16420  1.0000 -0.0109636564
C   C28       1.0  0.94610  0.63110  0.14700  1.0000 -0.150338432
C   C29       1.0  0.06140  0.64100  0.26690  1.0000 0.4591339564
C   C30       1.0  0.85180  0.63570  0.11420  1.0000 -0.0963116029
C   C31       1.0  0.04610  0.01370  0.62230  1.0000 0.1627413815
C   C32       1.0  0.98590  0.06310  0.56780  1.0000 -0.2082636917
C   C33       1.0  0.96080  0.64650  0.22900  1.0000 -0.0366050026
C   C34       1.0  0.66640  0.64430  0.13140  1.0000 0.5442442184
C   C35       1.0  0.01920  0.68900  0.51220  1.0000 -0.1925483535
C   C36       1.0  0.02310  0.59070  0.51990  1.0000 0.089144212
C   C37       1.0  0.29970  0.58310  0.20600  1.0000 0.5307645684
C   C38       1.0  0.16620  0.41720  0.35730  1.0000 0.1715041956
C   C39       1.0  0.99190  0.16180  0.56360  1.0000 0.0631153023
C   C40       1.0  0.04400  0.90980  0.63160  1.0000 -0.1185954252
C   C41       1.0  0.01880  0.84890  0.57300  1.0000 -0.150338432
C   C42       1.0  0.10990  0.06740  0.67020  1.0000 -0.203083765
C   C43       1.0  0.23770  0.45090  0.29410  1.0000 -0.3151691968
C   C44       1.0  0.17430  0.41090  0.43940  1.0000 -0.1185954252
C   C45       1.0  0.02170  0.74600  0.58080  1.0000 0.1715041956
C   C46       1.0  0.87990  0.66830  0.27860  1.0000 -0.1380965376
C   C47       1.0  0.78460  0.66860  0.24580  1.0000 -0.1185954252
C   C48       1.0  0.22070  0.55530  0.26930  1.0000 0.02173162
C   C49       1.0  0.03240  0.60160  0.65780  1.0000 0.0730831528
C   C50       1.0  0.11120  0.16660  0.66220  1.0000 0.089144212
C   C51       1.0  0.02900  0.70010  0.65600  1.0000 -0.1925483535
C   C52       1.0  0.02750  0.36430  0.40880  1.0000 0.1451590879
C   C53       1.0  0.27010  0.84890  0.83580  1.0000 -0.0109636564
C   C54       1.0  0.44610  0.86890  0.85300  1.0000 -0.150338432
C   C55       1.0  0.56140  0.85900  0.73310  1.0000 0.4591339564
C   C56       1.0  0.35180  0.86430  0.88580  1.0000 -0.0963116029
C   C57       1.0  0.54610  0.48630  0.37770  1.0000 0.1627413815
C   C58       1.0  0.48590  0.43690  0.43220  1.0000 -0.2082636917
C   C59       1.0  0.46080  0.85350  0.77100  1.0000 -0.0366050026
C   C60       1.0  0.16640  0.85570  0.86860  1.0000 0.5442442184
C   C61       1.0  0.51920  0.81100  0.48780  1.0000 -0.1925483535
C   C62       1.0  0.52310  0.90930  0.48010  1.0000 0.089144212
C   C63       1.0  0.79970  0.91690  0.79400  1.0000 0.5307645684
C   C64       1.0  0.66620  0.08280  0.64270  1.0000 0.1715041956
C   C65       1.0  0.49190  0.33820  0.43640  1.0000 0.0631153023
C   C66       1.0  0.54400  0.59020  0.36840  1.0000 -0.1185954252
C   C67       1.0  0.51880  0.65110  0.42700  1.0000 -0.150338432
C   C68       1.0  0.60990  0.43260  0.32980  1.0000 -0.203083765
C   C69       1.0  0.73770  0.04910  0.70590  1.0000 -0.3151691968
C   C70       1.0  0.67430  0.08910  0.56060  1.0000 -0.1185954252
C   C71       1.0  0.52170  0.75400  0.41920  1.0000 0.1715041956
C   C72       1.0  0.37990  0.83170  0.72140  1.0000 -0.1380965376
C   C73       1.0  0.28460  0.83140  0.75420  1.0000 -0.1185954252
C   C74       1.0  0.72070  0.94470  0.73070  1.0000 0.02173162
C   C75       1.0  0.53240  0.89840  0.34220  1.0000 0.0730831528
C   C76       1.0  0.61120  0.33340  0.33780  1.0000 0.089144212
C   C77       1.0  0.52900  0.79990  0.34400  1.0000 -0.1925483535
C   C78       1.0  0.52750  0.13570  0.59120  1.0000 0.1451590879
C   C79       1.0  0.22990  0.15110  0.33580  1.0000 -0.0109636564
C   C80       1.0  0.05390  0.13110  0.35300  1.0000 -0.150338432
C   C81       1.0  0.93860  0.14100  0.23310  1.0000 0.4591339564
C   C82       1.0  0.14820  0.13570  0.38580  1.0000 -0.0963116029
C   C83       1.0  0.95390  0.51370  0.87770  1.0000 0.1627413815
C   C84       1.0  0.01410  0.56310  0.93220  1.0000 -0.2082636917
C   C85       1.0  0.03920  0.14650  0.27100  1.0000 -0.0366050026
C   C86       1.0  0.33360  0.14430  0.36860  1.0000 0.5442442184
C   C87       1.0  0.98080  0.18900  0.98780  1.0000 -0.1925483535
C   C88       1.0  0.97690  0.09070  0.98010  1.0000 0.089144212
C   C89       1.0  0.70030  0.08310  0.29400  1.0000 0.5307645684
C   C90       1.0  0.83380  0.91720  0.14270  1.0000 0.1715041956
C   C91       1.0  0.00810  0.66180  0.93640  1.0000 0.0631153023
C   C92       1.0  0.95600  0.40980  0.86840  1.0000 -0.1185954252
C   C93       1.0  0.98120  0.34890  0.92700  1.0000 -0.150338432
C   C94       1.0  0.89010  0.56740  0.82980  1.0000 -0.203083765
C   C95       1.0  0.76230  0.95090  0.20590  1.0000 -0.3151691968
C   C96       1.0  0.82570  0.91090  0.06060  1.0000 -0.1185954252
C   C97       1.0  0.97830  0.24600  0.91920  1.0000 0.1715041956
C   C98       1.0  0.12010  0.16830  0.22140  1.0000 -0.1380965376
C   C99       1.0  0.21540  0.16860  0.25420  1.0000 -0.1185954252
C   C100      1.0  0.77930  0.05530  0.23070  1.0000 0.02173162
C   C101      1.0  0.96760  0.10160  0.84220  1.0000 0.0730831528
C   C102      1.0  0.88880  0.66667  0.83780  1.0000 0.089144212
C   C103      1.0  0.97100  0.20010  0.84400  1.0000 -0.1925483535
C   C104      1.0  0.97250  0.86430  0.09120  1.0000 0.1451590879
N   N1        1.0  0.42800  0.61260  0.83900  1.0000 -0.2399017701
N   N2        1.0  0.41440  0.62290  0.97070  1.0000 -0.2823783869
N   N3        1.0  0.47090  0.45360  0.09120  1.0000 -0.2343709099
N   N4        1.0  0.44680  0.78640  0.11050  1.0000 -0.2399017701
N   N5        1.0  0.37990  0.42960  0.74000  1.0000 -0.3750655169
N   N6        1.0  0.07200  0.38740  0.33900  1.0000 -0.2399017701
N   N7        1.0  0.08560  0.37710  0.47070  1.0000 -0.2823783869
N   N8        1.0  0.02910  0.54640  0.59120  1.0000 -0.2343709099
N   N9        1.0  0.05320  0.21360  0.61050  1.0000 -0.2399017701
N   N10       1.0  0.12010  0.57040  0.24000  1.0000 -0.3750655169
N   N11       1.0  0.57200  0.11260  0.66100  1.0000 -0.2399017701
N   N12       1.0  0.58560  0.12290  0.52930  1.0000 -0.2823783869
N   N13       1.0  0.52910  0.95360  0.40880  1.0000 -0.2343709099
N   N14       1.0  0.55320  0.28640  0.38950  1.0000 -0.2399017701
N   N15       1.0  0.62010  0.92960  0.76000  1.0000 -0.3732597941
N   N16       1.0  0.92800  0.88740  0.16100  1.0000 -0.2399017701
N   N17       1.0  0.91440  0.87710  0.02930  1.0000 -0.2823783869
N   N18       1.0  0.97090  0.04640  0.90880  1.0000 -0.2343709099
N   N19       1.0  0.94680  0.71360  0.88950  1.0000 -0.2399017701
N   N20       1.0  0.87990  0.07040  0.26000  1.0000 -0.3732597941
O   O1        1.0  0.22330  0.41950  0.63240  1.0000 -0.5653399343
O   O2        1.0  0.41340  0.30360  0.82160  1.0000 -0.5086706991
O   O3        1.0  0.90260  0.36780  0.68250  1.0000 -0.5550903792
O   O4        1.0  0.84870  0.35140  0.55670  1.0000 -0.5861083979
O   O5        1.0  0.11620  0.39480  0.73130  1.0000 -0.5417387003
O   O6        1.0  0.27670  0.58050  0.13240  1.0000 -0.5653399343
O   O7        1.0  0.08660  0.69640  0.32160  1.0000 -0.5086706991
O   O8        1.0  0.59740  0.63220  0.18250  1.0000 -0.5550903792
O   O9        1.0  0.65130  0.64860  0.05670  1.0000 -0.5861083979
O   O10       1.0  0.38380  0.60520  0.23130  1.0000 -0.5417387003
O   O11       1.0  0.77670  0.91950  0.86760  1.0000 -0.5653399343
O   O12       1.0  0.58660  0.80360  0.67840  1.0000 -0.5086706991
O   O13       1.0  0.09740  0.86780  0.81750  1.0000 -0.5550903792
O   O14       1.0  0.15130  0.85140  0.94330  1.0000 -0.5861083979
O   O15       1.0  0.88380  0.89480  0.76870  1.0000 -0.5417387003
O   O16       1.0  0.72330  0.08050  0.36760  1.0000 -0.5653399343
O   O17       1.0  0.91340  0.19640  0.17840  1.0000 -0.5086706991
O   O18       1.0  0.40260  0.13220  0.31750  1.0000 -0.5550903792
O   O19       1.0  0.34870  0.14860  0.44330  1.0000 -0.5861083979
O   O20       1.0  0.61620  0.10520  0.26870  1.0000 -0.5417387003
