# DDEC6 charges by PACMAN v1.1 (https://github.com/mtap-research/PACMAN-charge/)
data_2020[Eu][nan]3[FSR]7
_chemical_formula_sum              "Eu4 H4 C20 N12 O24"
_cell_length_a       8.8998
_cell_length_b       10.0323
_cell_length_c       12.7834
_cell_angle_alpha    90
_cell_angle_beta     90
_cell_angle_gamma    90

_symmetry_space_group_name_H-M    "P 1"
_symmetry_Int_Tables_number       1

loop_
  _symmetry_equiv_pos_as_xyz
  'x, y, z'

loop_
  _atom_site_type_symbol
  _atom_site_label
  _atom_site_symmetry_multiplicity
  _atom_site_fract_x
  _atom_site_fract_y
  _atom_site_fract_z
  _atom_site_occupancy
  _atom_site_charge
Eu  Eu1       1.0  0.76285  0.63183  0.69733  1.0000 2.0222911546
Eu  Eu2       1.0  0.26285  0.36817  0.30267  1.0000 2.0222911546
Eu  Eu3       1.0  0.76285  0.86817  0.19733  1.0000 2.0222911546
Eu  Eu4       1.0  0.26285  0.13183  0.80267  1.0000 2.0222911546
H   H1        1.0  0.63050  0.95330  0.77960  1.0000 0.1219706247
H   H2        1.0  0.13050  0.04670  0.22040  1.0000 0.1219706247
H   H3        1.0  0.63050  0.54670  0.27960  1.0000 0.1219706247
H   H4        1.0  0.13050  0.45330  0.72040  1.0000 0.1219706247
C   C1        1.0  0.51490  0.38510  0.74010  1.0000 0.6566677475
C   C2        1.0  0.54750  0.90310  0.75450  1.0000 0.5909973094
C   C3        1.0  0.29100  0.24370  0.54290  1.0000 0.6566677475
C   C4        1.0  0.49070  0.40940  0.62740  1.0000 -0.0172342025
C   C5        1.0  0.39860  0.35760  0.55000  1.0000 0.0258813794
C   C6        1.0  0.01490  0.61490  0.25990  1.0000 0.6566677475
C   C7        1.0  0.04750  0.09690  0.24550  1.0000 0.5909973094
C   C8        1.0  0.79100  0.75630  0.45710  1.0000 0.6566677475
C   C9        1.0  0.99070  0.59060  0.37260  1.0000 -0.0172342025
C   C10       1.0  0.89860  0.64240  0.45000  1.0000 0.0258813794
C   C11       1.0  0.51490  0.11490  0.24010  1.0000 0.6566677475
C   C12       1.0  0.54750  0.59690  0.25450  1.0000 0.5909973094
C   C13       1.0  0.29100  0.25630  0.04290  1.0000 0.6566677475
C   C14       1.0  0.49070  0.09060  0.12740  1.0000 -0.0172342025
C   C15       1.0  0.39860  0.14240  0.05000  1.0000 0.0258813794
C   C16       1.0  0.01490  0.88510  0.75990  1.0000 0.6566677475
C   C17       1.0  0.04750  0.40310  0.74550  1.0000 0.5909973094
C   C18       1.0  0.79100  0.74370  0.95710  1.0000 0.6566677475
C   C19       1.0  0.99070  0.90940  0.87260  1.0000 -0.0172342025
C   C20       1.0  0.89860  0.85760  0.95000  1.0000 0.0258813794
N   N1        1.0  0.52980  0.52130  0.48320  1.0000 0.0258813794
N   N2        1.0  0.56980  0.51110  0.58140  1.0000 -0.29391691
N   N3        1.0  0.42340  0.42870  0.46130  1.0000 -0.3456371567
N   N4        1.0  0.02980  0.47870  0.51680  1.0000 0.0258813794
N   N5        1.0  0.06980  0.48890  0.41860  1.0000 -0.29391691
N   N6        1.0  0.92340  0.57130  0.53870  1.0000 -0.3456371567
N   N7        1.0  0.52980  0.97870  0.98320  1.0000 0.0258813794
N   N8        1.0  0.56980  0.98890  0.08140  1.0000 -0.29391691
N   N9        1.0  0.42340  0.07130  0.96130  1.0000 -0.3456371567
N   N10       1.0  0.02980  0.02130  0.01680  1.0000 0.0258813794
N   N11       1.0  0.06980  0.01110  0.91860  1.0000 -0.29391691
N   N12       1.0  0.92340  0.92870  0.03870  1.0000 -0.3456371567
O   O1        1.0  0.57390  0.78410  0.73210  1.0000 -0.5628208211
O   O2        1.0  0.42650  0.96390  0.74820  1.0000 -0.5526749184
O   O3        1.0  0.27310  0.16580  0.61900  1.0000 -0.5958926966
O   O4        1.0  0.22390  0.23100  0.45720  1.0000 -0.5856906613
O   O5        1.0  0.45090  0.29700  0.78750  1.0000 -0.571197789
O   O6        1.0  0.60560  0.46630  0.78430  1.0000 -0.571197789
O   O7        1.0  0.07390  0.21590  0.26790  1.0000 -0.5628208211
O   O8        1.0  0.92650  0.03610  0.25180  1.0000 -0.5526749184
O   O9        1.0  0.77310  0.83420  0.38100  1.0000 -0.5958926966
O   O10       1.0  0.72390  0.76900  0.54280  1.0000 -0.5856906613
O   O11       1.0  0.95090  0.70300  0.21250  1.0000 -0.5766569863
O   O12       1.0  0.10560  0.53370  0.21570  1.0000 -0.571197789
O   O13       1.0  0.57390  0.71590  0.23210  1.0000 -0.5628208211
O   O14       1.0  0.42650  0.53610  0.24820  1.0000 -0.5526749184
O   O15       1.0  0.27310  0.33420  0.11900  1.0000 -0.5958926966
O   O16       1.0  0.22390  0.26900  0.95720  1.0000 -0.5856906613
O   O17       1.0  0.45090  0.20300  0.28750  1.0000 -0.5766569863
O   O18       1.0  0.60560  0.03370  0.28430  1.0000 -0.571197789
O   O19       1.0  0.07390  0.28410  0.76790  1.0000 -0.5628208211
O   O20       1.0  0.92650  0.46390  0.75180  1.0000 -0.5526749184
O   O21       1.0  0.77310  0.66580  0.88100  1.0000 -0.5958926966
O   O22       1.0  0.72390  0.73100  0.04280  1.0000 -0.5856906613
O   O23       1.0  0.95090  0.79700  0.71250  1.0000 -0.5766569863
O   O24       1.0  0.10560  0.96630  0.71570  1.0000 -0.571197789
