# DDEC6 charges by PACMAN v1.1 (https://github.com/mtap-research/PACMAN-charge/)
data_2020[Zn][nan]3[FSR]60
_chemical_formula_sum              "Zn6 H48 C60 S8 N12 O32"
_cell_length_a       13.4097
_cell_length_b       13.4097
_cell_length_c       20.7266
_cell_angle_alpha    86.2283
_cell_angle_beta     93.7717
_cell_angle_gamma    50.1695

_symmetry_space_group_name_H-M    "P 1"
_symmetry_Int_Tables_number       1

loop_
  _symmetry_equiv_pos_as_xyz
  'x, y, z'

loop_
  _atom_site_type_symbol
  _atom_site_label
  _atom_site_symmetry_multiplicity
  _atom_site_fract_x
  _atom_site_fract_y
  _atom_site_fract_z
  _atom_site_occupancy
  _atom_site_charge
Zn  Zn1       1.0  0.34991  0.57863  0.93854  1.0000 0.9248883399
Zn  Zn2       1.0  0.57863  0.34991  0.56146  1.0000 0.9267533394
Zn  Zn3       1.0  0.65009  0.42137  0.06146  1.0000 0.9248883399
Zn  Zn4       1.0  0.42137  0.65009  0.43854  1.0000 0.9267533394
Zn  Zn5       1.0  0.00000  0.50000  0.00000  1.0000 0.7634011778
Zn  Zn6       1.0  0.50000  0.00000  0.50000  1.0000 0.7634011778
H   H1        1.0  0.37380  0.75780  0.62780  1.0000 0.1583746477
H   H2        1.0  0.51000  0.78180  0.82400  1.0000 0.1475275438
H   H3        1.0  0.33120  0.69940  0.70780  1.0000 0.1583746477
H   H4        1.0  0.47200  0.70300  0.91180  1.0000 0.1288828021
H   H5        1.0  0.53870  0.96410  0.65170  1.0000 0.1288828021
H   H6        1.0  0.30670  0.61570  0.79870  1.0000 0.1444672468
H   H7        1.0  0.40280  0.84480  0.53980  1.0000 0.1288828021
H   H8        1.0  0.51100  0.88300  0.74260  1.0000 0.1475275438
H   H9        1.0  0.12940  0.21100  0.00380  1.0000 0.1288828021
H   H10       1.0  0.32920  0.00660  0.00680  1.0000 0.1475275438
H   H11       1.0  0.48910  0.17490  0.99200  1.0000 0.1475275438
H   H12       1.0  0.28430  0.37430  0.98720  1.0000 0.1288828021
H   H13       1.0  0.75780  0.37380  0.87220  1.0000 0.1583746477
H   H14       1.0  0.78180  0.51000  0.67600  1.0000 0.1475275438
H   H15       1.0  0.69940  0.33120  0.79220  1.0000 0.1583746477
H   H16       1.0  0.70300  0.47200  0.58820  1.0000 0.1288828021
H   H17       1.0  0.96410  0.53870  0.84830  1.0000 0.1288828021
H   H18       1.0  0.61570  0.30670  0.70130  1.0000 0.1444672468
H   H19       1.0  0.84480  0.40280  0.96020  1.0000 0.1288828021
H   H20       1.0  0.88300  0.51100  0.75740  1.0000 0.1475275438
H   H21       1.0  0.21100  0.12940  0.49620  1.0000 0.1288828021
H   H22       1.0  0.00660  0.32920  0.49320  1.0000 0.1475275438
H   H23       1.0  0.17490  0.48910  0.50800  1.0000 0.1475275438
H   H24       1.0  0.37430  0.28430  0.51280  1.0000 0.1288828021
H   H25       1.0  0.62620  0.24220  0.37220  1.0000 0.1583746477
H   H26       1.0  0.49000  0.21820  0.17600  1.0000 0.1475275438
H   H27       1.0  0.66880  0.30060  0.29220  1.0000 0.1583746477
H   H28       1.0  0.52800  0.29700  0.08820  1.0000 0.1288828021
H   H29       1.0  0.46130  0.03590  0.34830  1.0000 0.1288828021
H   H30       1.0  0.69330  0.38430  0.20130  1.0000 0.1444672468
H   H31       1.0  0.59720  0.15520  0.46020  1.0000 0.1288828021
H   H32       1.0  0.48900  0.11700  0.25740  1.0000 0.1475275438
H   H33       1.0  0.87060  0.78900  0.99620  1.0000 0.1288828021
H   H34       1.0  0.67080  0.99340  0.99320  1.0000 0.1475275438
H   H35       1.0  0.51090  0.82510  0.00800  1.0000 0.1475275438
H   H36       1.0  0.71570  0.62570  0.01280  1.0000 0.1288828021
H   H37       1.0  0.24220  0.62620  0.12780  1.0000 0.1583746477
H   H38       1.0  0.21820  0.49000  0.32400  1.0000 0.1475275438
H   H39       1.0  0.30060  0.66880  0.20780  1.0000 0.1583746477
H   H40       1.0  0.29700  0.52800  0.41180  1.0000 0.1288828021
H   H41       1.0  0.03590  0.46130  0.15170  1.0000 0.1288828021
H   H42       1.0  0.38430  0.69330  0.29870  1.0000 0.1475275438
H   H43       1.0  0.15520  0.59720  0.03980  1.0000 0.1288828021
H   H44       1.0  0.11700  0.48900  0.24260  1.0000 0.1475275438
H   H45       1.0  0.78900  0.87060  0.50380  1.0000 0.1288828021
H   H46       1.0  0.99340  0.67080  0.50680  1.0000 0.1475275438
H   H47       1.0  0.82510  0.51090  0.49200  1.0000 0.1475275438
H   H48       1.0  0.62570  0.71570  0.48720  1.0000 0.1288828021
C   C1        1.0  0.42284  0.75324  0.75470  1.0000 0.1099058595
C   C2        1.0  0.40810  0.79910  0.63430  1.0000 -0.1514555467
C   C3        1.0  0.44140  0.80780  0.69630  1.0000 0.1099058595
C   C4        1.0  0.46560  0.75060  0.81710  1.0000 -0.1893858751
C   C5        1.0  0.36170  0.70130  0.74890  1.0000 -0.1514555467
C   C6        1.0  0.44330  0.70210  0.86990  1.0000 0.0994545064
C   C7        1.0  0.50480  0.92200  0.64640  1.0000 0.0994545064
C   C8        1.0  0.34610  0.65230  0.80410  1.0000 0.1099058595
C   C9        1.0  0.42600  0.85220  0.58140  1.0000 0.0923947068
C   C10       1.0  0.48910  0.87250  0.70160  1.0000 -0.1829739538
C   C11       1.0  0.20288  0.20368  0.00130  1.0000 0.0994545064
C   C12       1.0  0.32312  0.07992  0.00310  1.0000 -0.1606726227
C   C13       1.0  0.41730  0.17930  0.99400  1.0000 -0.1694516269
C   C14       1.0  0.29366  0.29906  0.99190  1.0000 0.0994545064
C   C15       1.0  0.43438  0.06538  0.99920  1.0000 0.1099058595
C   C16       1.0  0.75324  0.42284  0.74530  1.0000 0.1099058595
C   C17       1.0  0.79910  0.40810  0.86570  1.0000 -0.1514555467
C   C18       1.0  0.80780  0.44140  0.80370  1.0000 0.1099058595
C   C19       1.0  0.75060  0.46560  0.68290  1.0000 -0.1893858751
C   C20       1.0  0.70130  0.36170  0.75110  1.0000 -0.1514555467
C   C21       1.0  0.70210  0.44330  0.63010  1.0000 0.0994545064
C   C22       1.0  0.92200  0.50480  0.85360  1.0000 0.0994545064
C   C23       1.0  0.65230  0.34610  0.69590  1.0000 0.1099058595
C   C24       1.0  0.85220  0.42600  0.91860  1.0000 0.0923947068
C   C25       1.0  0.87250  0.48910  0.79840  1.0000 -0.1829739538
C   C26       1.0  0.20368  0.20288  0.49870  1.0000 0.0994545064
C   C27       1.0  0.07992  0.32312  0.49690  1.0000 -0.1606726227
C   C28       1.0  0.17930  0.41730  0.50600  1.0000 -0.1694516269
C   C29       1.0  0.29906  0.29366  0.50810  1.0000 0.0994545064
C   C30       1.0  0.06538  0.43438  0.50080  1.0000 0.1099058595
C   C31       1.0  0.57716  0.24676  0.24530  1.0000 0.1099058595
C   C32       1.0  0.59190  0.20090  0.36570  1.0000 -0.1514555467
C   C33       1.0  0.55860  0.19220  0.30370  1.0000 0.1099058595
C   C34       1.0  0.53440  0.24940  0.18290  1.0000 -0.1893858751
C   C35       1.0  0.63830  0.29870  0.25110  1.0000 -0.1514555467
C   C36       1.0  0.55670  0.29790  0.13010  1.0000 0.0994545064
C   C37       1.0  0.49520  0.07800  0.35360  1.0000 0.0994545064
C   C38       1.0  0.65390  0.34770  0.19590  1.0000 0.1099058595
C   C39       1.0  0.57400  0.14780  0.41860  1.0000 0.0923947068
C   C40       1.0  0.51090  0.12750  0.29840  1.0000 -0.1829739538
C   C41       1.0  0.79712  0.79632  0.99870  1.0000 0.0994545064
C   C42       1.0  0.67688  0.92008  0.99690  1.0000 -0.1606726227
C   C43       1.0  0.58270  0.82070  0.00600  1.0000 -0.1694516269
C   C44       1.0  0.70634  0.70094  0.00810  1.0000 0.0994545064
C   C45       1.0  0.56562  0.93462  0.00080  1.0000 0.1099058595
C   C46       1.0  0.24676  0.57716  0.25470  1.0000 0.1099058595
C   C47       1.0  0.20090  0.59190  0.13430  1.0000 -0.1514555467
C   C48       1.0  0.19220  0.55860  0.19630  1.0000 0.1099058595
C   C49       1.0  0.24940  0.53440  0.31710  1.0000 -0.1893858751
C   C50       1.0  0.29870  0.63830  0.24890  1.0000 -0.1514555467
C   C51       1.0  0.29790  0.55670  0.36990  1.0000 0.0994545064
C   C52       1.0  0.07800  0.49520  0.14640  1.0000 0.0994545064
C   C53       1.0  0.34770  0.65390  0.30410  1.0000 0.1099058595
C   C54       1.0  0.14780  0.57400  0.08140  1.0000 0.0923947068
C   C55       1.0  0.12750  0.51090  0.20160  1.0000 -0.1829739538
C   C56       1.0  0.79632  0.79712  0.50130  1.0000 0.0994545064
C   C57       1.0  0.92008  0.67688  0.50310  1.0000 -0.1606726227
C   C58       1.0  0.82070  0.58270  0.49400  1.0000 -0.1694516269
C   C59       1.0  0.70094  0.70634  0.49190  1.0000 0.0994545064
C   C60       1.0  0.93462  0.56562  0.49920  1.0000 0.1099058595
S   S1        1.0  0.62097  0.30061  0.95453  1.0000 1.3951446089
S   S2        1.0  0.07776  0.65806  0.89625  1.0000 1.4159713062
S   S3        1.0  0.30061  0.62097  0.54547  1.0000 1.3951446089
S   S4        1.0  0.65806  0.07776  0.60375  1.0000 1.4159713062
S   S5        1.0  0.37903  0.69939  0.04547  1.0000 1.3951446089
S   S6        1.0  0.92224  0.34194  0.10375  1.0000 1.4159713062
S   S7        1.0  0.69939  0.37903  0.45453  1.0000 1.3951446089
S   S8        1.0  0.34194  0.92224  0.39625  1.0000 1.4159713062
N   N1        1.0  0.47407  0.91287  0.58615  1.0000 -0.2017805417
N   N2        1.0  0.38302  0.65422  0.86355  1.0000 -0.2119997656
N   N3        1.0  0.18686  0.31286  0.99627  1.0000 -0.2017805417
N   N4        1.0  0.91287  0.47407  0.91385  1.0000 -0.2017805417
N   N5        1.0  0.65422  0.38302  0.63645  1.0000 -0.2119997656
N   N6        1.0  0.31286  0.18686  0.50373  1.0000 -0.2017805417
N   N7        1.0  0.52593  0.08713  0.41385  1.0000 -0.2017805417
N   N8        1.0  0.61698  0.34578  0.13645  1.0000 -0.2119997656
N   N9        1.0  0.81314  0.68714  0.00373  1.0000 -0.2017805417
N   N10       1.0  0.08713  0.52593  0.08615  1.0000 -0.2017805417
N   N11       1.0  0.34578  0.61698  0.36355  1.0000 -0.2119997656
N   N12       1.0  0.68714  0.81314  0.49627  1.0000 -0.2017805417
O   O1        1.0  0.48864  0.39544  0.97592  1.0000 -0.6927118627
O   O2        1.0  0.67400  0.16900  0.97800  1.0000 -0.5969113437
O   O3        1.0  0.70599  0.32399  0.98750  1.0000 -0.6432765899
O   O4        1.0  0.61186  0.32586  0.88500  1.0000 -0.6320967851
O   O5        1.0  0.04646  0.59126  0.93707  1.0000 -0.6673051593
O   O6        1.0  0.22305  0.56745  0.90050  1.0000 -0.6555919377
O   O7        1.0  0.02965  0.77945  0.91990  1.0000 -0.6185652119
O   O8        1.0  0.02320  0.67980  0.82894  1.0000 -0.6185652119
O   O9        1.0  0.39544  0.48864  0.52408  1.0000 -0.6927118627
O   O10       1.0  0.16900  0.67400  0.52200  1.0000 -0.5969113437
O   O11       1.0  0.32399  0.70599  0.51250  1.0000 -0.6432765899
O   O12       1.0  0.32586  0.61186  0.61500  1.0000 -0.6320967851
O   O13       1.0  0.59126  0.04646  0.56293  1.0000 -0.6673051593
O   O14       1.0  0.56745  0.22305  0.59950  1.0000 -0.6542575287
O   O15       1.0  0.77945  0.02965  0.58010  1.0000 -0.6185652119
O   O16       1.0  0.67980  0.02320  0.67106  1.0000 -0.6185652119
O   O17       1.0  0.51136  0.60456  0.02408  1.0000 -0.6927118627
O   O18       1.0  0.32600  0.83100  0.02200  1.0000 -0.5969113437
O   O19       1.0  0.29401  0.67601  0.01250  1.0000 -0.6432765899
O   O20       1.0  0.38814  0.67414  0.11500  1.0000 -0.6320967851
O   O21       1.0  0.95354  0.40874  0.06293  1.0000 -0.6673051593
O   O22       1.0  0.77695  0.43255  0.09950  1.0000 -0.6542575287
O   O23       1.0  0.97035  0.22055  0.08010  1.0000 -0.6185652119
O   O24       1.0  0.97680  0.32020  0.17106  1.0000 -0.6185652119
O   O25       1.0  0.60456  0.51136  0.47592  1.0000 -0.6927118627
O   O26       1.0  0.83100  0.32600  0.47800  1.0000 -0.5969113437
O   O27       1.0  0.67601  0.29401  0.48750  1.0000 -0.6432765899
O   O28       1.0  0.67414  0.38814  0.38500  1.0000 -0.6320967851
O   O29       1.0  0.40874  0.95354  0.43707  1.0000 -0.6673051593
O   O30       1.0  0.43255  0.77695  0.40050  1.0000 -0.6542575287
O   O31       1.0  0.22055  0.97035  0.41990  1.0000 -0.6185652119
O   O32       1.0  0.32020  0.97680  0.32894  1.0000 -0.6185652119
