# DDEC6 charges by PACMAN v1.1 (https://github.com/mtap-research/PACMAN-charge/)
data_2020[Mg][nan]3[FSR]6
_chemical_formula_sum              "Mg3 H12 C21 O15"
_cell_length_a       8.8671
_cell_length_b       8.8671
_cell_length_c       10.7719
_cell_angle_alpha    90
_cell_angle_beta     90
_cell_angle_gamma    120

_symmetry_space_group_name_H-M    "P 1"
_symmetry_Int_Tables_number       1

loop_
  _symmetry_equiv_pos_as_xyz
  'x, y, z'

loop_
  _atom_site_type_symbol
  _atom_site_label
  _atom_site_symmetry_multiplicity
  _atom_site_fract_x
  _atom_site_fract_y
  _atom_site_fract_z
  _atom_site_occupancy
  _atom_site_charge
Mg  Mg1       1.0  0.00000  0.96886  0.16667  1.0000 1.3310392331
Mg  Mg2       1.0  0.03114  0.03114  0.50000  1.0000 1.3310392331
Mg  Mg3       1.0  0.96886  0.00000  0.83333  1.0000 1.3310392331
H   H1        1.0  0.78900  0.65300  0.27100  1.0000 0.3928410243
H   H2        1.0  0.48800  0.39200  0.16900  1.0000 0.1482567122
H   H3        1.0  0.34700  0.13600  0.60433  1.0000 0.3928410243
H   H4        1.0  0.60800  0.09600  0.50233  1.0000 0.1482567122
H   H5        1.0  0.86400  0.21100  0.93767  1.0000 0.3928410243
H   H6        1.0  0.90400  0.51200  0.83567  1.0000 0.1482567122
H   H7        1.0  0.65300  0.78900  0.72900  1.0000 0.3928410243
H   H8        1.0  0.39200  0.48800  0.83100  1.0000 0.1482567122
H   H9        1.0  0.13600  0.34700  0.39567  1.0000 0.3928410243
H   H10       1.0  0.09600  0.60800  0.49767  1.0000 0.1482567122
H   H11       1.0  0.21100  0.86400  0.06233  1.0000 0.3928410243
H   H12       1.0  0.51200  0.90400  0.16433  1.0000 0.1482567122
C   C1        1.0  0.52546  0.47461  0.10543  1.0000 -0.2418490568
C   C2        1.0  0.67733  0.63824  0.10667  1.0000 0.1845388046
C   C3        1.0  0.52539  0.05085  0.43876  1.0000 -0.2418490568
C   C4        1.0  0.36176  0.03909  0.44000  1.0000 0.1845388046
C   C5        1.0  0.94915  0.47454  0.77210  1.0000 -0.2418490568
C   C6        1.0  0.96091  0.32267  0.77334  1.0000 0.1852015337
C   C7        1.0  0.47461  0.52546  0.89457  1.0000 -0.2418490568
C   C8        1.0  0.63824  0.67733  0.89333  1.0000 0.1852015337
C   C9        1.0  0.05085  0.52539  0.56124  1.0000 -0.2418490568
C   C10       1.0  0.03909  0.36176  0.56000  1.0000 0.1852015337
C   C11       1.0  0.47454  0.94915  0.22790  1.0000 -0.2418490568
C   C12       1.0  0.32267  0.96091  0.22666  1.0000 0.1845388046
C   C13       1.0  0.73883  0.73883  0.00000  1.0000 0.1299331219
C   C14       1.0  0.26007  0.26007  0.00000  1.0000 0.6167359582
C   C15       1.0  0.42618  0.42618  0.00000  1.0000 -0.0240239545
C   C16       1.0  0.26117  0.00000  0.33333  1.0000 0.1299331219
C   C17       1.0  0.73993  0.00000  0.33333  1.0000 0.6167359582
C   C18       1.0  0.57382  0.00000  0.33333  1.0000 -0.0240239545
C   C19       1.0  0.00000  0.26117  0.66667  1.0000 0.1299331219
C   C20       1.0  0.00000  0.73993  0.66667  1.0000 0.6167359582
C   C21       1.0  0.00000  0.57382  0.66667  1.0000 -0.0240239545
O   O1        1.0  0.80255  0.69788  0.20053  1.0000 -0.4983865687
O   O2        1.0  0.17144  0.21125  0.09924  1.0000 -0.6416294941
O   O3        1.0  0.30212  0.10467  0.53386  1.0000 -0.4983865687
O   O4        1.0  0.78875  0.96019  0.43257  1.0000 -0.6416294941
O   O5        1.0  0.89533  0.19745  0.86720  1.0000 -0.4983865687
O   O6        1.0  0.03981  0.82856  0.76591  1.0000 -0.6416294941
O   O7        1.0  0.69788  0.80255  0.79947  1.0000 -0.4983865687
O   O8        1.0  0.21125  0.17144  0.90076  1.0000 -0.6416294941
O   O9        1.0  0.10467  0.30212  0.46614  1.0000 -0.4983865687
O   O10       1.0  0.96019  0.78875  0.56743  1.0000 -0.6416294941
O   O11       1.0  0.19745  0.89533  0.13280  1.0000 -0.4983865687
O   O12       1.0  0.82856  0.03981  0.23409  1.0000 -0.6416294941
O   O13       1.0  0.88916  0.88916  0.00000  1.0000 -0.7418899307
O   O14       1.0  0.11084  0.00000  0.33333  1.0000 -0.7418899307
O   O15       1.0  0.00000  0.11084  0.66667  1.0000 -0.7418899307
