# DDEC6 charges by PACMAN v1.1 (https://github.com/mtap-research/PACMAN-charge/)
data_2020[Zn][lvt]3[FSR]1
_chemical_formula_sum              "Zn4 H56 C64 N8 O16"
_cell_length_a       21.7875
_cell_length_b       19.4624
_cell_length_c       11.4234
_cell_angle_alpha    85.5393
_cell_angle_beta     62.9458
_cell_angle_gamma    31.5149

_symmetry_space_group_name_H-M    "P 1"
_symmetry_Int_Tables_number       1

loop_
  _symmetry_equiv_pos_as_xyz
  'x, y, z'

loop_
  _atom_site_type_symbol
  _atom_site_label
  _atom_site_symmetry_multiplicity
  _atom_site_fract_x
  _atom_site_fract_y
  _atom_site_fract_z
  _atom_site_occupancy
  _atom_site_charge
Zn  Zn1       1.0  0.92277  0.86911  0.32041  1.0000 0.7289235288
Zn  Zn2       1.0  0.32041  0.88771  0.92277  1.0000 0.7289235288
Zn  Zn3       1.0  0.36229  0.92959  0.38089  1.0000 0.7289235288
Zn  Zn4       1.0  0.38089  0.32723  0.36229  1.0000 0.7289235288
H   H1        1.0  0.56278  0.37078  0.38622  1.0000 0.1279297764
H   H2        1.0  0.56148  0.37908  0.52292  1.0000 0.113206386
H   H3        1.0  0.28722  0.59302  0.68438  1.0000 0.1208333219
H   H4        1.0  0.38308  0.44068  0.67632  1.0000 0.1208333219
H   H5        1.0  0.10469  0.57209  0.18811  1.0000 0.1208333219
H   H6        1.0  0.19083  0.40823  0.00917  1.0000 0.1487425597
H   H7        1.0  0.01942  0.68322  0.85678  1.0000 0.1487425597
H   H8        1.0  0.93667  0.84107  0.04173  1.0000 0.113206386
H   H9        1.0  0.13209  0.46529  0.73971  1.0000 0.1208333219
H   H10       1.0  0.23980  0.28700  0.85400  1.0000 0.1208333219
H   H11       1.0  0.38371  0.04671  0.71629  1.0000 0.1408981415
H   H12       1.0  0.42920  0.91380  0.57180  1.0000 0.1208333219
H   H13       1.0  0.17094  0.24254  0.50006  1.0000 0.1208333219
H   H14       1.0  0.11619  0.38659  0.64461  1.0000 0.1408981415
H   H15       1.0  0.38622  0.68022  0.56278  1.0000 0.1279297764
H   H16       1.0  0.52292  0.53652  0.56148  1.0000 0.113206386
H   H17       1.0  0.68438  0.43538  0.28722  1.0000 0.1208333219
H   H18       1.0  0.67632  0.49992  0.38308  1.0000 0.1208333219
H   H19       1.0  0.18811  0.13511  0.10469  1.0000 0.1208333219
H   H20       1.0  0.00917  0.39177  0.19083  1.0000 0.1487425597
H   H21       1.0  0.85678  0.44058  0.01942  1.0000 0.1487425597
H   H22       1.0  0.04173  0.18053  0.93667  1.0000 0.113206386
H   H23       1.0  0.73971  0.66291  0.13209  1.0000 0.1208333219
H   H24       1.0  0.85400  0.61920  0.23980  1.0000 0.1208333219
H   H25       1.0  0.71629  0.85329  0.38371  1.0000 0.1408981415
H   H26       1.0  0.57180  0.08520  0.42920  1.0000 0.1208333219
H   H27       1.0  0.50006  0.08646  0.17094  1.0000 0.1208333219
H   H28       1.0  0.64461  0.85261  0.11619  1.0000 0.1408981415
H   H29       1.0  0.56978  0.86378  0.87922  1.0000 0.1279297764
H   H30       1.0  0.71348  0.72708  0.87092  1.0000 0.113206386
H   H31       1.0  0.81462  0.56562  0.65698  1.0000 0.1208333219
H   H32       1.0  0.75008  0.57368  0.80932  1.0000 0.1208333219
H   H33       1.0  0.11489  0.06189  0.67791  1.0000 0.1208333219
H   H34       1.0  0.85823  0.24083  0.84177  1.0000 0.1487425597
H   H35       1.0  0.80942  0.39322  0.56678  1.0000 0.1487425597
H   H36       1.0  0.06947  0.20827  0.40893  1.0000 0.113206386
H   H37       1.0  0.58709  0.51029  0.78471  1.0000 0.1208333219
H   H38       1.0  0.63080  0.39600  0.96300  1.0000 0.1208333219
H   H39       1.0  0.39671  0.53371  0.20329  1.0000 0.1408981415
H   H40       1.0  0.16480  0.67820  0.33620  1.0000 0.1208333219
H   H41       1.0  0.16354  0.74994  0.00746  1.0000 0.1208333219
H   H42       1.0  0.39739  0.60539  0.86341  1.0000 0.1408981415
H   H43       1.0  0.87922  0.68722  0.56978  1.0000 0.1279297764
H   H44       1.0  0.87092  0.68852  0.71348  1.0000 0.113206386
H   H45       1.0  0.65698  0.96278  0.81462  1.0000 0.1208333219
H   H46       1.0  0.80932  0.86692  0.75008  1.0000 0.1208333219
H   H47       1.0  0.67791  0.14531  0.11489  1.0000 0.1208333219
H   H48       1.0  0.84177  0.05917  0.85823  1.0000 0.1487425597
H   H49       1.0  0.56678  0.23058  0.80942  1.0000 0.1487425597
H   H50       1.0  0.40893  0.31333  0.06947  1.0000 0.113206386
H   H51       1.0  0.78471  0.11791  0.58709  1.0000 0.1208333219
H   H52       1.0  0.96300  0.01020  0.63080  1.0000 0.1208333219
H   H53       1.0  0.20329  0.86629  0.39671  1.0000 0.1408981415
H   H54       1.0  0.33620  0.82080  0.16480  1.0000 0.1208333219
H   H55       1.0  0.00746  0.07906  0.16354  1.0000 0.1208333219
H   H56       1.0  0.86341  0.13381  0.39739  1.0000 0.1408981415
C   C1        1.0  0.71127  0.16127  0.36553  1.0000 0.6214199359
C   C2        1.0  0.55649  0.35089  0.46691  1.0000 -0.3046250945
C   C3        1.0  0.38285  0.47245  0.60655  1.0000 -0.2911596006
C   C4        1.0  0.35452  0.45812  0.51848  1.0000 0.6015062029
C   C5        1.0  0.08492  0.59652  0.12228  1.0000 0.0800948963
C   C6        1.0  0.13713  0.49733  0.01527  1.0000 -0.1801213181
C   C7        1.0  0.10880  0.53160  0.91520  1.0000 0.1595410867
C   C8        1.0  0.03562  0.66002  0.92518  1.0000 -0.1801213181
C   C9        1.0  0.98640  0.75440  0.03660  1.0000 0.0800948963
C   C10       1.0  0.15059  0.43859  0.80601  1.0000 -0.1298322237
C   C11       1.0  0.21246  0.31986  0.79514  1.0000 -0.1503344631
C   C12       1.0  0.24193  0.23553  0.70027  1.0000 0.1595410867
C   C13       1.0  0.33845  0.08945  0.67435  1.0000 -0.1912122412
C   C14       1.0  0.36587  0.00987  0.58673  1.0000 0.0915804351
C   C15       1.0  0.21357  0.20357  0.54463  1.0000 0.0800948963
C   C16       1.0  0.18004  0.29084  0.63156  1.0000 -0.1912122412
C   C17       1.0  0.36553  0.76193  0.71127  1.0000 0.6214199359
C   C18       1.0  0.46691  0.62571  0.55649  1.0000 -0.3046250945
C   C19       1.0  0.60655  0.53815  0.38285  1.0000 -0.2911596006
C   C20       1.0  0.51848  0.66888  0.35452  1.0000 0.6015062029
C   C21       1.0  0.12228  0.19628  0.08492  1.0000 0.0800948963
C   C22       1.0  0.01527  0.35027  0.13713  1.0000 -0.1801213181
C   C23       1.0  0.91520  0.44440  0.10880  1.0000 0.1595410867
C   C24       1.0  0.92518  0.37918  0.03562  1.0000 -0.1801213181
C   C25       1.0  0.03660  0.22260  0.98640  1.0000 0.0800948963
C   C26       1.0  0.80601  0.60481  0.15059  1.0000 -0.1298322237
C   C27       1.0  0.79514  0.67254  0.21246  1.0000 -0.1503344631
C   C28       1.0  0.70027  0.82227  0.24193  1.0000 0.1595410867
C   C29       1.0  0.67435  0.89775  0.33845  1.0000 -0.1912122412
C   C30       1.0  0.58673  0.03753  0.36587  1.0000 0.0915804351
C   C31       1.0  0.54463  0.03823  0.21357  1.0000 0.0800948963
C   C32       1.0  0.63156  0.89756  0.18004  1.0000 -0.1912122412
C   C33       1.0  0.48807  0.88447  0.08873  1.0000 0.6214199359
C   C34       1.0  0.62429  0.78309  0.89911  1.0000 -0.3050797885
C   C35       1.0  0.71185  0.64345  0.77755  1.0000 -0.2911596006
C   C36       1.0  0.58112  0.73152  0.79188  1.0000 0.6015062029
C   C37       1.0  0.05372  0.12772  0.65348  1.0000 0.0800948963
C   C38       1.0  0.89973  0.23473  0.75267  1.0000 -0.1801213181
C   C39       1.0  0.80560  0.33480  0.71840  1.0000 0.1595410867
C   C40       1.0  0.87082  0.32482  0.58998  1.0000 -0.1801213181
C   C41       1.0  0.02740  0.21340  0.49560  1.0000 0.0800948963
C   C42       1.0  0.64519  0.44399  0.81141  1.0000 -0.1298322237
C   C43       1.0  0.57746  0.45486  0.93014  1.0000 -0.1503344631
C   C44       1.0  0.42773  0.54973  0.01447  1.0000 0.1595410867
C   C45       1.0  0.35225  0.57565  0.16055  1.0000 -0.1912122412
C   C46       1.0  0.21247  0.66327  0.24013  1.0000 0.0915804351
C   C47       1.0  0.21177  0.70537  0.04643  1.0000 0.0800948963
C   C48       1.0  0.35244  0.61844  0.95916  1.0000 -0.1912122412
C   C49       1.0  0.08873  0.53873  0.48807  1.0000 0.6214199359
C   C50       1.0  0.89911  0.69351  0.62429  1.0000 -0.3050797885
C   C51       1.0  0.77755  0.86715  0.71185  1.0000 -0.2911596006
C   C52       1.0  0.79188  0.89548  0.58112  1.0000 0.6015062029
C   C53       1.0  0.65348  0.16508  0.05372  1.0000 0.0800948963
C   C54       1.0  0.75267  0.11287  0.89973  1.0000 -0.1801213181
C   C55       1.0  0.71840  0.14120  0.80560  1.0000 0.1595410867
C   C56       1.0  0.58998  0.21438  0.87082  1.0000 -0.1801213181
C   C57       1.0  0.49560  0.26360  0.02740  1.0000 0.0800948963
C   C58       1.0  0.81141  0.09941  0.64519  1.0000 -0.1298322237
C   C59       1.0  0.93014  0.03754  0.57746  1.0000 -0.1503344631
C   C60       1.0  0.01447  0.00807  0.42773  1.0000 0.1595410867
C   C61       1.0  0.16055  0.91155  0.35225  1.0000 -0.1912122412
C   C62       1.0  0.24013  0.88413  0.21247  1.0000 0.0915804351
C   C63       1.0  0.04643  0.03643  0.21177  1.0000 0.0800948963
C   C64       1.0  0.95916  0.06996  0.35244  1.0000 -0.1912122412
N   N1        1.0  0.00730  0.72624  0.13796  1.0000 -0.2369693821
N   N2        1.0  0.30520  0.06460  0.52160  1.0000 -0.2474958753
N   N3        1.0  0.13796  0.12850  0.00730  1.0000 -0.2369693821
N   N4        1.0  0.52160  0.10860  0.30520  1.0000 -0.2474958753
N   N5        1.0  0.12150  0.11204  0.52376  1.0000 -0.2369693821
N   N6        1.0  0.14140  0.72840  0.18540  1.0000 -0.2474958753
N   N7        1.0  0.52376  0.24270  0.12150  1.0000 -0.2369693821
N   N8        1.0  0.18540  0.94480  0.14140  1.0000 -0.2474958753
O   O1        1.0  0.72215  0.11445  0.45415  1.0000 -0.5572707957
O   O2        1.0  0.82557  0.05457  0.20043  1.0000 -0.6161080902
O   O3        1.0  0.42810  0.33136  0.46824  1.0000 -0.5482933825
O   O4        1.0  0.27167  0.55847  0.49593  1.0000 -0.5572707957
O   O5        1.0  0.45415  0.70925  0.72215  1.0000 -0.5572707957
O   O6        1.0  0.20043  0.91943  0.82557  1.0000 -0.6161080902
O   O7        1.0  0.46824  0.77230  0.42810  1.0000 -0.5482933825
O   O8        1.0  0.49593  0.67393  0.27167  1.0000 -0.5572707957
O   O9        1.0  0.54075  0.79585  0.13555  1.0000 -0.5572707957
O   O10       1.0  0.33057  0.04957  0.19543  1.0000 -0.6161080902
O   O11       1.0  0.47770  0.78176  0.91864  1.0000 -0.5482933825
O   O12       1.0  0.57607  0.75407  0.69153  1.0000 -0.5572707957
O   O13       1.0  0.13555  0.52785  0.54075  1.0000 -0.5572707957
O   O14       1.0  0.19543  0.42443  0.33057  1.0000 -0.6161080902
O   O15       1.0  0.91864  0.82190  0.47770  1.0000 -0.5482933825
O   O16       1.0  0.69153  0.97833  0.57607  1.0000 -0.5572707957
