# DDEC6 charges by PACMAN v1.1 (https://github.com/mtap-research/PACMAN-charge/)
data_2020[Cu][dia]3[FSR]1
_chemical_formula_sum              "Cu2 H70 C50 N20"
_cell_length_a       12.5057
_cell_length_b       13.5852
_cell_length_c       14.0934
_cell_angle_alpha    94.1477
_cell_angle_beta     91.832
_cell_angle_gamma    113.773

_symmetry_space_group_name_H-M    "P 1"
_symmetry_Int_Tables_number       1

loop_
  _symmetry_equiv_pos_as_xyz
  'x, y, z'

loop_
  _atom_site_type_symbol
  _atom_site_label
  _atom_site_symmetry_multiplicity
  _atom_site_fract_x
  _atom_site_fract_y
  _atom_site_fract_z
  _atom_site_occupancy
  _atom_site_charge
Cu  Cu1       1.0  0.37214  0.86080  0.70284  1.0000 0.3933901331
Cu  Cu2       1.0  0.62786  0.13920  0.29716  1.0000 0.3933901331
H   H1        1.0  0.27404  0.04035  0.66272  1.0000 0.0991808245
H   H2        1.0  0.27354  0.80885  0.47899  1.0000 0.1104449931
H   H3        1.0  0.66369  0.91751  0.75225  1.0000 0.1104449931
H   H4        1.0  0.18084  0.91024  0.39677  1.0000 0.118456961
H   H5        1.0  0.32331  0.62817  0.60259  1.0000 0.1104449931
H   H6        1.0  0.80754  0.28527  0.16153  1.0000 0.0991808245
H   H7        1.0  0.55779  0.77037  0.41950  1.0000 0.1104449931
H   H8        1.0  0.03714  0.99773  0.40665  1.0000 0.090639943
H   H9        1.0  0.01646  0.09494  0.45639  1.0000 0.0991808245
H   H10       1.0  0.55631  0.90783  0.54120  1.0000 0.1104449931
H   H11       1.0  0.51617  0.12159  0.74189  1.0000 0.0991808245
H   H12       1.0  0.81566  0.09818  0.80156  1.0000 0.1104449931
H   H13       1.0  0.44639  0.98073  0.91059  1.0000 0.118456961
H   H14       1.0  0.51090  0.30076  0.22103  1.0000 0.118456961
H   H15       1.0  0.83932  0.52252  0.06414  1.0000 0.0991808245
H   H16       1.0  0.89737  0.43964  0.06506  1.0000 0.0991808245
H   H17       1.0  0.68597  0.30066  0.78549  1.0000 0.0991808245
H   H18       1.0  0.81139  0.30177  0.77857  1.0000 0.0991808245
H   H19       1.0  0.72053  0.42817  0.92936  1.0000 0.0991808245
H   H20       1.0  0.85170  0.45821  0.90825  1.0000 0.090639943
H   H21       1.0  0.82501  0.27777  0.93753  1.0000 0.0823170236
H   H22       1.0  0.69132  0.24954  0.94704  1.0000 0.0991808245
H   H23       1.0  0.14217  0.89283  0.77098  1.0000 0.0991808245
H   H24       1.0  0.21571  0.13563  0.46420  1.0000 0.0991808245
H   H25       1.0  0.17276  0.12994  0.56784  1.0000 0.0991808245
H   H26       1.0  0.60308  0.43530  0.10802  1.0000 0.118456961
H   H27       1.0  0.38390  0.56185  0.37208  1.0000 0.0991808245
H   H28       1.0  0.32581  0.50373  0.46090  1.0000 0.0991808245
H   H29       1.0  0.00830  0.86096  0.91212  1.0000 0.0991808245
H   H30       1.0  0.06955  0.87438  0.01410  1.0000 0.0991808245
H   H31       1.0  0.30947  0.98926  0.02581  1.0000 0.118456961
H   H32       1.0  0.47355  0.44976  0.40569  1.0000 0.0991808245
H   H33       1.0  0.56659  0.56812  0.43287  1.0000 0.090639943
H   H34       1.0  0.06141  0.04542  0.91967  1.0000 0.0991808245
H   H35       1.0  0.12252  0.05877  0.02169  1.0000 0.0991808245
H   H36       1.0  0.72596  0.95965  0.33728  1.0000 0.0991808245
H   H37       1.0  0.72646  0.19115  0.52101  1.0000 0.1104449931
H   H38       1.0  0.33631  0.08249  0.24775  1.0000 0.1104449931
H   H39       1.0  0.81916  0.08976  0.60323  1.0000 0.118456961
H   H40       1.0  0.67669  0.37183  0.39741  1.0000 0.1104449931
H   H41       1.0  0.19246  0.71473  0.83847  1.0000 0.0991808245
H   H42       1.0  0.44221  0.22963  0.58050  1.0000 0.1104449931
H   H43       1.0  0.96286  0.00227  0.59335  1.0000 0.090639943
H   H44       1.0  0.98354  0.90506  0.54361  1.0000 0.0991808245
H   H45       1.0  0.44369  0.09217  0.45880  1.0000 0.1104449931
H   H46       1.0  0.48383  0.87841  0.25811  1.0000 0.0991808245
H   H47       1.0  0.18434  0.90182  0.19844  1.0000 0.1104449931
H   H48       1.0  0.55361  0.01927  0.08941  1.0000 0.118456961
H   H49       1.0  0.48910  0.69924  0.77897  1.0000 0.118456961
H   H50       1.0  0.16068  0.47748  0.93586  1.0000 0.0991808245
H   H51       1.0  0.10263  0.56036  0.93494  1.0000 0.0991808245
H   H52       1.0  0.31403  0.69934  0.21451  1.0000 0.0991808245
H   H53       1.0  0.18861  0.69823  0.22143  1.0000 0.0991808245
H   H54       1.0  0.27947  0.57183  0.07064  1.0000 0.0991808245
H   H55       1.0  0.14830  0.54179  0.09175  1.0000 0.090639943
H   H56       1.0  0.17499  0.72223  0.06247  1.0000 0.0823170236
H   H57       1.0  0.30868  0.75046  0.05296  1.0000 0.0991808245
H   H58       1.0  0.85783  0.10717  0.22902  1.0000 0.0991808245
H   H59       1.0  0.78429  0.86437  0.53580  1.0000 0.0991808245
H   H60       1.0  0.82724  0.87006  0.43216  1.0000 0.0991808245
H   H61       1.0  0.39692  0.56470  0.89198  1.0000 0.118456961
H   H62       1.0  0.61610  0.43815  0.62792  1.0000 0.0991808245
H   H63       1.0  0.67419  0.49627  0.53910  1.0000 0.0991808245
H   H64       1.0  0.99170  0.13904  0.08788  1.0000 0.0991808245
H   H65       1.0  0.93045  0.12562  0.98590  1.0000 0.0991808245
H   H66       1.0  0.69053  0.01074  0.97419  1.0000 0.118456961
H   H67       1.0  0.52645  0.55024  0.59431  1.0000 0.0991808245
H   H68       1.0  0.43341  0.43188  0.56713  1.0000 0.090639943
H   H69       1.0  0.93859  0.95458  0.08033  1.0000 0.0991808245
H   H70       1.0  0.87748  0.94123  0.97831  1.0000 0.0991808245
C   C1        1.0  0.26300  0.99530  0.60710  1.0000 0.0068373415
C   C2        1.0  0.26230  0.86830  0.50590  1.0000 -0.0516160941
C   C3        1.0  0.65270  0.98140  0.75630  1.0000 -0.0605335804
C   C4        1.0  0.21090  0.92400  0.45990  1.0000 -0.1348581919
C   C5        1.0  0.38120  0.68080  0.57230  1.0000 0.0300362522
C   C6        1.0  0.74480  0.30540  0.16250  1.0000 0.0432374319
C   C7        1.0  0.51060  0.75870  0.47080  1.0000 -0.1606434891
C   C8        1.0  0.04150  0.03760  0.46760  1.0000 -0.2089755097
C   C9        1.0  0.50940  0.83430  0.53850  1.0000 -0.0516160941
C   C10       1.0  0.57130  0.09270  0.75060  1.0000 0.0201360612
C   C11       1.0  0.73750  0.08140  0.78390  1.0000 -0.1792722949
C   C12       1.0  0.36710  0.96270  0.89710  1.0000 -0.0605335804
C   C13       1.0  0.58220  0.31410  0.19480  1.0000 -0.0663746046
C   C14       1.0  0.82470  0.44700  0.05060  1.0000 -0.1486499319
C   C15       1.0  0.73790  0.26910  0.80840  1.0000 -0.1390310442
C   C16       1.0  0.78870  0.41400  0.94510  1.0000 -0.2089755097
C   C17       1.0  0.76020  0.29440  0.91620  1.0000 -0.2441099742
C   C18       1.0  0.20070  0.91280  0.81990  1.0000 0.0300362522
C   C19       1.0  0.16740  0.08740  0.50810  1.0000 -0.1486499319
C   C20       1.0  0.63290  0.38910  0.13250  1.0000 -0.1390310442
C   C21       1.0  0.39790  0.55560  0.43900  1.0000 -0.1390310442
C   C22       1.0  0.07240  0.90930  0.95600  1.0000 -0.1606434891
C   C23       1.0  0.29210  0.96630  0.96120  1.0000 -0.1390310442
C   C24       1.0  0.49290  0.51380  0.44960  1.0000 -0.2235251525
C   C25       1.0  0.05850  0.01050  0.97780  1.0000 -0.2089755097
C   C26       1.0  0.73700  0.00470  0.39290  1.0000 0.0068373415
C   C27       1.0  0.73770  0.13170  0.49410  1.0000 -0.0516160941
C   C28       1.0  0.34730  0.01860  0.24370  1.0000 -0.0605335804
C   C29       1.0  0.78910  0.07600  0.54010  1.0000 -0.1348581919
C   C30       1.0  0.61880  0.31920  0.42770  1.0000 0.0300362522
C   C31       1.0  0.25520  0.69460  0.83750  1.0000 0.0432374319
C   C32       1.0  0.48940  0.24130  0.52920  1.0000 -0.1606434891
C   C33       1.0  0.95850  0.96240  0.53240  1.0000 -0.2089755097
C   C34       1.0  0.49060  0.16570  0.46150  1.0000 -0.0516160941
C   C35       1.0  0.42870  0.90730  0.24940  1.0000 0.0201360612
C   C36       1.0  0.26250  0.91860  0.21610  1.0000 -0.1792722949
C   C37       1.0  0.63290  0.03730  0.10290  1.0000 -0.0663746046
C   C38       1.0  0.41780  0.68590  0.80520  1.0000 -0.0663746046
C   C39       1.0  0.17530  0.55300  0.94940  1.0000 -0.1486499319
C   C40       1.0  0.26210  0.73090  0.19160  1.0000 -0.1390310442
C   C41       1.0  0.21130  0.58600  0.05490  1.0000 -0.2089755097
C   C42       1.0  0.23980  0.70560  0.08380  1.0000 -0.2441099742
C   C43       1.0  0.79930  0.08720  0.18010  1.0000 0.0300362522
C   C44       1.0  0.83260  0.91260  0.49190  1.0000 -0.1486499319
C   C45       1.0  0.36710  0.61090  0.86750  1.0000 -0.1390310442
C   C46       1.0  0.60210  0.44440  0.56100  1.0000 -0.1390310442
C   C47       1.0  0.92760  0.09070  0.04400  1.0000 -0.1606434891
C   C48       1.0  0.70790  0.03370  0.03880  1.0000 -0.1390310442
C   C49       1.0  0.50710  0.48620  0.55040  1.0000 -0.2235251525
C   C50       1.0  0.94150  0.98950  0.02220  1.0000 -0.2024332592
N   N1        1.0  0.42830  0.78560  0.60220  1.0000 -0.270613552
N   N2        1.0  0.30970  0.92840  0.80790  1.0000 -0.270613552
N   N3        1.0  0.68530  0.15200  0.78050  1.0000 0.0300362522
N   N4        1.0  0.29530  0.91340  0.59873  1.0000 -0.2766378084
N   N5        1.0  0.54860  0.98900  0.73540  1.0000 -0.3034229437
N   N6        1.0  0.65290  0.26130  0.21270  1.0000 -0.270613552
N   N7        1.0  0.21220  0.00470  0.52480  1.0000 0.0300362522
N   N8        1.0  0.42810  0.66130  0.49300  1.0000 0.0300362522
N   N9        1.0  0.73650  0.38280  0.11300  1.0000 0.0300362522
N   N10       1.0  0.18520  0.92970  0.91300  1.0000 0.0300362522
N   N11       1.0  0.57170  0.21440  0.39780  1.0000 -0.270613552
N   N12       1.0  0.69030  0.07160  0.19210  1.0000 -0.270613552
N   N13       1.0  0.31470  0.84800  0.21950  1.0000 0.0300362522
N   N14       1.0  0.70470  0.08660  0.40127  1.0000 -0.2766378084
N   N15       1.0  0.45140  0.01100  0.26460  1.0000 -0.3054928044
N   N16       1.0  0.34710  0.73870  0.78730  1.0000 -0.270613552
N   N17       1.0  0.78780  0.99530  0.47520  1.0000 0.0300362522
N   N18       1.0  0.57190  0.33870  0.50700  1.0000 0.0300362522
N   N19       1.0  0.26350  0.61720  0.88700  1.0000 0.0300362522
N   N20       1.0  0.81480  0.07030  0.08700  1.0000 0.0300362522
