# DDEC6 charges by PACMAN v1.1 (https://github.com/mtap-research/PACMAN-charge/)
data_2020[Mn][pcu]3[FSR]2
_chemical_formula_sum              "Mn4 H80 C104 S4 N8 O28"
_cell_length_a       18.1068
_cell_length_b       18.1068
_cell_length_c       13.259
_cell_angle_alpha    85.6989
_cell_angle_beta     94.3011
_cell_angle_gamma    76.6791

_symmetry_space_group_name_H-M    "P 1"
_symmetry_Int_Tables_number       1

loop_
  _symmetry_equiv_pos_as_xyz
  'x, y, z'

loop_
  _atom_site_type_symbol
  _atom_site_label
  _atom_site_symmetry_multiplicity
  _atom_site_fract_x
  _atom_site_fract_y
  _atom_site_fract_z
  _atom_site_occupancy
  _atom_site_charge
Mn  Mn1       1.0  0.96467  0.57191  0.33947  1.0000 0.8889608101
Mn  Mn2       1.0  0.57191  0.96467  0.16053  1.0000 0.8889608101
Mn  Mn3       1.0  0.03533  0.42809  0.66053  1.0000 0.8889608101
Mn  Mn4       1.0  0.42809  0.03533  0.83947  1.0000 0.8889608101
H   H1        1.0  0.15360  0.61400  0.70290  1.0000 0.126861021
H   H2        1.0  0.05130  0.69390  0.42330  1.0000 0.1196436685
H   H3        1.0  0.09170  0.80550  0.43210  1.0000 0.1196436685
H   H4        1.0  0.14580  0.91600  0.46560  1.0000 0.1196436685
H   H5        1.0  0.29370  0.87570  0.77880  1.0000 0.126861021
H   H6        1.0  0.20690  0.00750  0.51850  1.0000 0.1103974879
H   H7        1.0  0.14310  0.52230  0.30590  1.0000 0.1196436685
H   H8        1.0  0.97410  0.46550  0.16020  1.0000 0.1011408788
H   H9        1.0  0.22920  0.44600  0.21950  1.0000 0.1394828276
H   H10       1.0  0.05620  0.39180  0.06240  1.0000 0.1481550352
H   H11       1.0  0.19860  0.37180  0.00240  1.0000 0.126861021
H   H12       1.0  0.25870  0.35430  0.09800  1.0000 0.1103974879
H   H13       1.0  0.14330  0.27270  0.06530  1.0000 0.126861021
H   H14       1.0  0.20270  0.25550  0.16150  1.0000 0.1103974879
H   H15       1.0  0.32100  0.16160  0.15430  1.0000 0.126861021
H   H16       1.0  0.19600  0.24880  0.89510  1.0000 0.1481550352
H   H17       1.0  0.40280  0.08220  0.06520  1.0000 0.1011408788
H   H18       1.0  0.28130  0.16550  0.81250  1.0000 0.1011408788
H   H19       1.0  0.85300  0.60700  0.27400  1.0000 0.3399465398
H   H20       1.0  0.85220  0.55820  0.18900  1.0000 0.3858859928
H   H21       1.0  0.61400  0.15360  0.79710  1.0000 0.126861021
H   H22       1.0  0.69390  0.05130  0.07670  1.0000 0.1103974879
H   H23       1.0  0.80550  0.09170  0.06790  1.0000 0.1196436685
H   H24       1.0  0.91600  0.14580  0.03440  1.0000 0.1196436685
H   H25       1.0  0.87570  0.29370  0.72120  1.0000 0.126861021
H   H26       1.0  0.00750  0.20690  0.98150  1.0000 0.1103974879
H   H27       1.0  0.52230  0.14310  0.19410  1.0000 0.1196436685
H   H28       1.0  0.46550  0.97410  0.33980  1.0000 0.1011408788
H   H29       1.0  0.44600  0.22920  0.28050  1.0000 0.1394828276
H   H30       1.0  0.39180  0.05620  0.43760  1.0000 0.1481550352
H   H31       1.0  0.37180  0.19860  0.49760  1.0000 0.126861021
H   H32       1.0  0.35430  0.25870  0.40200  1.0000 0.1103974879
H   H33       1.0  0.27270  0.14330  0.43470  1.0000 0.126861021
H   H34       1.0  0.25550  0.20270  0.33850  1.0000 0.1103974879
H   H35       1.0  0.16160  0.32100  0.34570  1.0000 0.126861021
H   H36       1.0  0.24880  0.19600  0.60490  1.0000 0.1481550352
H   H37       1.0  0.08220  0.40280  0.43480  1.0000 0.1011408788
H   H38       1.0  0.16550  0.28130  0.68750  1.0000 0.1011408788
H   H39       1.0  0.60700  0.85300  0.22600  1.0000 0.3399465398
H   H40       1.0  0.55820  0.85220  0.31100  1.0000 0.3858859928
H   H41       1.0  0.84640  0.38600  0.29710  1.0000 0.126861021
H   H42       1.0  0.94870  0.30610  0.57670  1.0000 0.1103974879
H   H43       1.0  0.90830  0.19450  0.56790  1.0000 0.1196436685
H   H44       1.0  0.85420  0.08400  0.53440  1.0000 0.1196436685
H   H45       1.0  0.70630  0.12430  0.22120  1.0000 0.126861021
H   H46       1.0  0.79310  0.99250  0.48150  1.0000 0.1103974879
H   H47       1.0  0.85690  0.47770  0.69410  1.0000 0.1196436685
H   H48       1.0  0.02590  0.53450  0.83980  1.0000 0.1011408788
H   H49       1.0  0.77080  0.55400  0.78050  1.0000 0.1394828276
H   H50       1.0  0.94380  0.60820  0.93760  1.0000 0.1481550352
H   H51       1.0  0.80140  0.62820  0.99760  1.0000 0.126861021
H   H52       1.0  0.74130  0.64570  0.90200  1.0000 0.1103974879
H   H53       1.0  0.85670  0.72730  0.93470  1.0000 0.126861021
H   H54       1.0  0.79730  0.74450  0.83850  1.0000 0.1103974879
H   H55       1.0  0.67900  0.83840  0.84570  1.0000 0.126861021
H   H56       1.0  0.80400  0.75120  0.10490  1.0000 0.1481550352
H   H57       1.0  0.59720  0.91780  0.93480  1.0000 0.1011408788
H   H58       1.0  0.71870  0.83450  0.18750  1.0000 0.1011408788
H   H59       1.0  0.14700  0.39300  0.72600  1.0000 0.3399465398
H   H60       1.0  0.14780  0.44180  0.81100  1.0000 0.3858859928
H   H61       1.0  0.38600  0.84640  0.20290  1.0000 0.126861021
H   H62       1.0  0.30610  0.94870  0.92330  1.0000 0.1196436685
H   H63       1.0  0.19450  0.90830  0.93210  1.0000 0.1196436685
H   H64       1.0  0.08400  0.85420  0.96560  1.0000 0.1196436685
H   H65       1.0  0.12430  0.70630  0.27880  1.0000 0.126861021
H   H66       1.0  0.99250  0.79310  0.01850  1.0000 0.1103974879
H   H67       1.0  0.47770  0.85690  0.80590  1.0000 0.1196436685
H   H68       1.0  0.53450  0.02590  0.66020  1.0000 0.1011408788
H   H69       1.0  0.55400  0.77080  0.71950  1.0000 0.1394828276
H   H70       1.0  0.60820  0.94380  0.56240  1.0000 0.1481550352
H   H71       1.0  0.62820  0.80140  0.50240  1.0000 0.126861021
H   H72       1.0  0.64570  0.74130  0.59800  1.0000 0.1103974879
H   H73       1.0  0.72730  0.85670  0.56530  1.0000 0.126861021
H   H74       1.0  0.74450  0.79730  0.66150  1.0000 0.1103974879
H   H75       1.0  0.83840  0.67900  0.65430  1.0000 0.126861021
H   H76       1.0  0.75120  0.80400  0.39510  1.0000 0.1481550352
H   H77       1.0  0.91780  0.59720  0.56520  1.0000 0.1011408788
H   H78       1.0  0.83450  0.71870  0.31250  1.0000 0.1011408788
H   H79       1.0  0.39300  0.14700  0.77400  1.0000 0.3399465398
H   H80       1.0  0.44180  0.14780  0.68900  1.0000 0.3858859928
C   C1        1.0  0.07415  0.56955  0.54870  1.0000 0.5732226388
C   C2        1.0  0.09954  0.64214  0.55920  1.0000 -0.0252457543
C   C3        1.0  0.14197  0.65157  0.64840  1.0000 -0.110902152
C   C4        1.0  0.08080  0.70020  0.48110  1.0000 -0.0987918752
C   C5        1.0  0.16614  0.71874  0.65210  1.0000 -0.0987918752
C   C6        1.0  0.10452  0.76752  0.48590  1.0000 -0.110902152
C   C7        1.0  0.14767  0.77687  0.57270  1.0000 0.0494537171
C   C8        1.0  0.18109  0.84269  0.59190  1.0000 0.0494537171
C   C9        1.0  0.22499  0.83159  0.68430  1.0000 -0.0987918752
C   C10       1.0  0.17482  0.90822  0.52810  1.0000 -0.0987918752
C   C11       1.0  0.26472  0.88392  0.71630  1.0000 -0.1212906896
C   C12       1.0  0.21268  0.96208  0.55920  1.0000 -0.110902152
C   C13       1.0  0.25942  0.94942  0.65080  1.0000 -0.0066125945
C   C14       1.0  0.30465  0.00685  0.67750  1.0000 0.5554585473
C   C15       1.0  0.12504  0.49444  0.25760  1.0000 0.0877546982
C   C16       1.0  0.02610  0.46210  0.17190  1.0000 0.0808120788
C   C17       1.0  0.17741  0.44921  0.20530  1.0000 -0.2184323823
C   C18       1.0  0.07560  0.41660  0.11340  1.0000 -0.2073879524
C   C19       1.0  0.15245  0.40825  0.13080  1.0000 0.1560558693
C   C20       1.0  0.20668  0.35428  0.07430  1.0000 -0.2311053074
C   C21       1.0  0.19531  0.27251  0.08950  1.0000 -0.2362979038
C   C22       1.0  0.24940  0.21740  0.03440  1.0000 0.1682835237
C   C23       1.0  0.31198  0.16438  0.08400  1.0000 -0.2073879524
C   C24       1.0  0.23810  0.21590  0.93200  1.0000 -0.1890762917
C   C25       1.0  0.36067  0.11607  0.03000  1.0000 0.0877546982
C   C26       1.0  0.28990  0.16490  0.88270  1.0000 0.0749184207
C   C27       1.0  0.56955  0.07415  0.95130  1.0000 0.5732226388
C   C28       1.0  0.64214  0.09954  0.94080  1.0000 -0.0246202743
C   C29       1.0  0.65157  0.14197  0.85160  1.0000 -0.110902152
C   C30       1.0  0.70020  0.08080  0.01890  1.0000 -0.0987918752
C   C31       1.0  0.71874  0.16614  0.84790  1.0000 -0.0987918752
C   C32       1.0  0.76752  0.10452  0.01410  1.0000 -0.110902152
C   C33       1.0  0.77687  0.14767  0.92730  1.0000 0.0553112121
C   C34       1.0  0.84269  0.18109  0.90810  1.0000 0.0494537171
C   C35       1.0  0.83159  0.22499  0.81570  1.0000 -0.0987918752
C   C36       1.0  0.90822  0.17482  0.97190  1.0000 -0.0987918752
C   C37       1.0  0.88392  0.26472  0.78370  1.0000 -0.1212906896
C   C38       1.0  0.96208  0.21268  0.94080  1.0000 -0.110902152
C   C39       1.0  0.94942  0.25942  0.84920  1.0000 -0.0066125945
C   C40       1.0  0.00685  0.30465  0.82250  1.0000 0.5554585473
C   C41       1.0  0.49444  0.12504  0.24240  1.0000 0.0877546982
C   C42       1.0  0.46210  0.02610  0.32810  1.0000 0.0808120788
C   C43       1.0  0.44921  0.17741  0.29470  1.0000 -0.2184323823
C   C44       1.0  0.41660  0.07560  0.38660  1.0000 -0.2073879524
C   C45       1.0  0.40825  0.15245  0.36920  1.0000 0.1560558693
C   C46       1.0  0.35428  0.20668  0.42570  1.0000 -0.2311053074
C   C47       1.0  0.27251  0.19531  0.41050  1.0000 -0.2362979038
C   C48       1.0  0.21740  0.24940  0.46560  1.0000 0.1682835237
C   C49       1.0  0.16438  0.31198  0.41600  1.0000 -0.2184323823
C   C50       1.0  0.21590  0.23810  0.56800  1.0000 -0.1890762917
C   C51       1.0  0.11607  0.36067  0.47000  1.0000 0.0877546982
C   C52       1.0  0.16490  0.28990  0.61730  1.0000 0.0808120788
C   C53       1.0  0.92585  0.43045  0.45130  1.0000 0.5732226388
C   C54       1.0  0.90046  0.35786  0.44080  1.0000 -0.0246202743
C   C55       1.0  0.85803  0.34843  0.35160  1.0000 -0.110902152
C   C56       1.0  0.91920  0.29980  0.51890  1.0000 -0.0987918752
C   C57       1.0  0.83386  0.28126  0.34790  1.0000 -0.0987918752
C   C58       1.0  0.89548  0.23248  0.51410  1.0000 -0.110902152
C   C59       1.0  0.85233  0.22313  0.42730  1.0000 0.0553112121
C   C60       1.0  0.81891  0.15731  0.40810  1.0000 0.0494537171
C   C61       1.0  0.77501  0.16841  0.31570  1.0000 -0.0987918752
C   C62       1.0  0.82518  0.09178  0.47190  1.0000 -0.0987918752
C   C63       1.0  0.73528  0.11608  0.28370  1.0000 -0.1212906896
C   C64       1.0  0.78732  0.03792  0.44080  1.0000 -0.110902152
C   C65       1.0  0.74058  0.05058  0.34920  1.0000 -0.0066125945
C   C66       1.0  0.69535  0.99315  0.32250  1.0000 0.5554585473
C   C67       1.0  0.87496  0.50556  0.74240  1.0000 0.0877546982
C   C68       1.0  0.97390  0.53790  0.82810  1.0000 0.0808120788
C   C69       1.0  0.82259  0.55079  0.79470  1.0000 -0.2184323823
C   C70       1.0  0.92440  0.58340  0.88660  1.0000 -0.2073879524
C   C71       1.0  0.84755  0.59175  0.86920  1.0000 0.1560558693
C   C72       1.0  0.79332  0.64572  0.92570  1.0000 -0.2311053074
C   C73       1.0  0.80469  0.72749  0.91050  1.0000 -0.2362979038
C   C74       1.0  0.75060  0.78260  0.96560  1.0000 0.1682835237
C   C75       1.0  0.68802  0.83562  0.91600  1.0000 -0.2184323823
C   C76       1.0  0.76190  0.78410  0.06800  1.0000 -0.1890762917
C   C77       1.0  0.63933  0.88393  0.97000  1.0000 0.0877546982
C   C78       1.0  0.71010  0.83510  0.11730  1.0000 0.0749184207
C   C79       1.0  0.43045  0.92585  0.04870  1.0000 0.5732226388
C   C80       1.0  0.35786  0.90046  0.05920  1.0000 -0.0246202743
C   C81       1.0  0.34843  0.85803  0.14840  1.0000 -0.110902152
C   C82       1.0  0.29980  0.91920  0.98110  1.0000 -0.0987918752
C   C83       1.0  0.28126  0.83386  0.15210  1.0000 -0.0987918752
C   C84       1.0  0.23248  0.89548  0.98590  1.0000 -0.110902152
C   C85       1.0  0.22313  0.85233  0.07270  1.0000 0.0494537171
C   C86       1.0  0.15731  0.81891  0.09190  1.0000 0.0494537171
C   C87       1.0  0.16841  0.77501  0.18430  1.0000 -0.0987918752
C   C88       1.0  0.09178  0.82518  0.02810  1.0000 -0.0987918752
C   C89       1.0  0.11608  0.73528  0.21630  1.0000 -0.1212906896
C   C90       1.0  0.03792  0.78732  0.05920  1.0000 -0.110902152
C   C91       1.0  0.05058  0.74058  0.15080  1.0000 -0.0066125945
C   C92       1.0  0.99315  0.69535  0.17750  1.0000 0.5554585473
C   C93       1.0  0.50556  0.87496  0.75760  1.0000 0.0877546982
C   C94       1.0  0.53790  0.97390  0.67190  1.0000 0.0808120788
C   C95       1.0  0.55079  0.82259  0.70530  1.0000 -0.2184323823
C   C96       1.0  0.58340  0.92440  0.61340  1.0000 -0.2073879524
C   C97       1.0  0.59175  0.84755  0.63080  1.0000 0.1560558693
C   C98       1.0  0.64572  0.79332  0.57430  1.0000 -0.2311053074
C   C99       1.0  0.72749  0.80469  0.58950  1.0000 -0.2362979038
C   C100      1.0  0.78260  0.75060  0.53440  1.0000 0.1682835237
C   C101      1.0  0.83562  0.68802  0.58400  1.0000 -0.2184323823
C   C102      1.0  0.78410  0.76190  0.43200  1.0000 -0.1890762917
C   C103      1.0  0.88393  0.63933  0.53000  1.0000 0.0877546982
C   C104      1.0  0.83510  0.71010  0.38270  1.0000 0.0749184207
S   S1        1.0  0.22456  0.74298  0.75082  1.0000 0.9781960563
S   S2        1.0  0.74298  0.22456  0.74918  1.0000 0.9781960563
S   S3        1.0  0.77544  0.25702  0.24918  1.0000 0.9781960563
S   S4        1.0  0.25702  0.77544  0.25082  1.0000 0.9781960563
N   N1        1.0  0.05028  0.50108  0.24400  1.0000 -0.2362979038
N   N2        1.0  0.35017  0.11577  0.92940  1.0000 -0.2494893505
N   N3        1.0  0.50108  0.05028  0.25600  1.0000 -0.2362979038
N   N4        1.0  0.11577  0.35017  0.57060  1.0000 -0.2494893505
N   N5        1.0  0.94972  0.49892  0.75600  1.0000 -0.2362979038
N   N6        1.0  0.64983  0.88423  0.07060  1.0000 -0.2494893505
N   N7        1.0  0.49892  0.94972  0.74400  1.0000 -0.2362979038
N   N8        1.0  0.88423  0.64983  0.42940  1.0000 -0.2494893505
O   O1        1.0  0.05319  0.55595  0.46112  1.0000 -0.5709712713
O   O2        1.0  0.07691  0.52711  0.62920  1.0000 -0.5870986565
O   O3        1.0  0.29843  0.69323  0.76150  1.0000 -0.5035477041
O   O4        1.0  0.18606  0.75466  0.84020  1.0000 -0.5132383986
O   O5        1.0  0.31410  0.05290  0.60830  1.0000 -0.5647169932
O   O6        1.0  0.33038  0.00204  0.76987  1.0000 -0.5709712713
O   O7        1.0  0.87386  0.59786  0.21100  1.0000 -0.6843676104
O   O8        1.0  0.55595  0.05319  0.03888  1.0000 -0.5709712713
O   O9        1.0  0.52711  0.07691  0.87080  1.0000 -0.5870986565
O   O10       1.0  0.69323  0.29843  0.73850  1.0000 -0.5035477041
O   O11       1.0  0.75466  0.18606  0.65980  1.0000 -0.5132383986
O   O12       1.0  0.05290  0.31410  0.89170  1.0000 -0.5647169932
O   O13       1.0  0.00204  0.33038  0.73013  1.0000 -0.5709712713
O   O14       1.0  0.59786  0.87386  0.28900  1.0000 -0.6843676104
O   O15       1.0  0.94681  0.44405  0.53888  1.0000 -0.5709712713
O   O16       1.0  0.92309  0.47289  0.37080  1.0000 -0.5870986565
O   O17       1.0  0.70157  0.30677  0.23850  1.0000 -0.5035477041
O   O18       1.0  0.81394  0.24534  0.15980  1.0000 -0.5132383986
O   O19       1.0  0.68590  0.94710  0.39170  1.0000 -0.5647169932
O   O20       1.0  0.66962  0.99796  0.23013  1.0000 -0.5709712713
O   O21       1.0  0.12614  0.40214  0.78900  1.0000 -0.6843676104
O   O22       1.0  0.44405  0.94681  0.96112  1.0000 -0.5709712713
O   O23       1.0  0.47289  0.92309  0.12920  1.0000 -0.5870986565
O   O24       1.0  0.30677  0.70157  0.26150  1.0000 -0.5035477041
O   O25       1.0  0.24534  0.81394  0.34020  1.0000 -0.5132383986
O   O26       1.0  0.94710  0.68590  0.10830  1.0000 -0.5647169932
O   O27       1.0  0.99796  0.66962  0.26987  1.0000 -0.5709712713
O   O28       1.0  0.40214  0.12614  0.71100  1.0000 -0.6843676104
