# DDEC6 charges by PACMAN v1.1 (https://github.com/mtap-research/PACMAN-charge/)
data_2020[Cu][nan]2[FSR]5
_chemical_formula_sum              "Cu4 H68 C88 I4 N12 O4"
_cell_length_a       13.7316
_cell_length_b       13.7316
_cell_length_c       18.0322
_cell_angle_alpha    68.9477
_cell_angle_beta     111.052
_cell_angle_gamma    127.789

_symmetry_space_group_name_H-M    "P 1"
_symmetry_Int_Tables_number       1

loop_
  _symmetry_equiv_pos_as_xyz
  'x, y, z'

loop_
  _atom_site_type_symbol
  _atom_site_label
  _atom_site_symmetry_multiplicity
  _atom_site_fract_x
  _atom_site_fract_y
  _atom_site_fract_z
  _atom_site_occupancy
  _atom_site_charge
Cu  Cu1       1.0  0.44888  0.44992  0.43732  1.0000 0.1833834529
Cu  Cu2       1.0  0.44992  0.44888  0.06268  1.0000 0.1833834529
Cu  Cu3       1.0  0.55112  0.55008  0.56268  1.0000 0.1833834529
Cu  Cu4       1.0  0.55008  0.55112  0.93732  1.0000 0.1833834529
H   H1        1.0  0.18937  0.85529  0.39481  1.0000 0.1192709972
H   H2        1.0  0.21337  0.57265  0.55409  1.0000 0.1192709972
H   H3        1.0  0.46909  0.07993  0.58888  1.0000 0.1289517723
H   H4        1.0  0.55823  0.78659  0.84137  1.0000 0.1012266072
H   H5        1.0  0.47747  0.85887  0.71637  1.0000 0.1289517723
H   H6        1.0  0.52561  0.28213  0.56148  1.0000 0.1085861653
H   H7        1.0  0.11925  0.47803  0.45369  1.0000 0.1085861653
H   H8        1.0  0.39960  0.46374  0.78459  1.0000 0.1012266072
H   H9        1.0  0.32280  0.52820  0.65456  1.0000 0.1192709972
H   H10       1.0  0.26204  0.04546  0.36508  1.0000 0.1192709972
H   H11       1.0  0.32554  0.25122  0.34466  1.0000 0.1012266072
H   H12       1.0  0.97018  0.35088  0.35558  1.0000 0.1192709972
H   H13       1.0  0.01349  0.71803  0.34099  1.0000 0.1085861653
H   H14       1.0  0.87577  0.60121  0.24134  1.0000 0.1373973034
H   H15       1.0  0.79025  0.23549  0.29240  1.0000 0.1192709972
H   H16       1.0  0.73059  0.23621  0.19807  1.0000 0.1192709972
H   H17       1.0  0.87793  0.29559  0.22836  1.0000 0.1192709972
H   H18       1.0  0.85529  0.18937  0.10519  1.0000 0.1192709972
H   H19       1.0  0.57265  0.21337  0.94591  1.0000 0.1192709972
H   H20       1.0  0.07993  0.46909  0.91112  1.0000 0.1289517723
H   H21       1.0  0.78659  0.55823  0.65863  1.0000 0.1012266072
H   H22       1.0  0.85887  0.47747  0.78363  1.0000 0.1289517723
H   H23       1.0  0.28213  0.52561  0.93852  1.0000 0.1085861653
H   H24       1.0  0.47803  0.11925  0.04631  1.0000 0.1085861653
H   H25       1.0  0.46374  0.39960  0.71541  1.0000 0.1012266072
H   H26       1.0  0.52820  0.32280  0.84544  1.0000 0.1289517723
H   H27       1.0  0.04546  0.26204  0.13492  1.0000 0.1192709972
H   H28       1.0  0.25122  0.32554  0.15534  1.0000 0.1012266072
H   H29       1.0  0.35088  0.97018  0.14442  1.0000 0.1192709972
H   H30       1.0  0.71803  0.01349  0.15901  1.0000 0.1085861653
H   H31       1.0  0.60121  0.87577  0.25866  1.0000 0.1373973034
H   H32       1.0  0.23549  0.79025  0.20760  1.0000 0.1192709972
H   H33       1.0  0.23621  0.73059  0.30193  1.0000 0.1192709972
H   H34       1.0  0.29559  0.87793  0.27164  1.0000 0.1192709972
H   H35       1.0  0.81063  0.14471  0.60519  1.0000 0.1192709972
H   H36       1.0  0.78663  0.42735  0.44591  1.0000 0.1192709972
H   H37       1.0  0.53091  0.92007  0.41112  1.0000 0.1289517723
H   H38       1.0  0.44177  0.21341  0.15863  1.0000 0.1012266072
H   H39       1.0  0.52253  0.14113  0.28363  1.0000 0.1289517723
H   H40       1.0  0.47439  0.71787  0.43852  1.0000 0.1085861653
H   H41       1.0  0.88075  0.52197  0.54631  1.0000 0.1085861653
H   H42       1.0  0.60040  0.53626  0.21541  1.0000 0.1012266072
H   H43       1.0  0.67720  0.47180  0.34544  1.0000 0.1289517723
H   H44       1.0  0.73796  0.95454  0.63492  1.0000 0.1192709972
H   H45       1.0  0.67446  0.74878  0.65534  1.0000 0.1012266072
H   H46       1.0  0.02982  0.64912  0.64442  1.0000 0.1192709972
H   H47       1.0  0.98651  0.28197  0.65901  1.0000 0.1085861653
H   H48       1.0  0.12423  0.39879  0.75866  1.0000 0.1373973034
H   H49       1.0  0.20975  0.76451  0.70760  1.0000 0.1192709972
H   H50       1.0  0.26941  0.76379  0.80193  1.0000 0.1192709972
H   H51       1.0  0.12207  0.70441  0.77164  1.0000 0.1192709972
H   H52       1.0  0.14471  0.81063  0.89481  1.0000 0.1192709972
H   H53       1.0  0.42735  0.78663  0.05409  1.0000 0.1192709972
H   H54       1.0  0.92007  0.53091  0.08888  1.0000 0.1289517723
H   H55       1.0  0.21341  0.44177  0.34137  1.0000 0.1012266072
H   H56       1.0  0.14113  0.52253  0.21637  1.0000 0.1289517723
H   H57       1.0  0.71787  0.47439  0.06148  1.0000 0.1085861653
H   H58       1.0  0.52197  0.88075  0.95369  1.0000 0.1085861653
H   H59       1.0  0.53626  0.60040  0.28459  1.0000 0.1012266072
H   H60       1.0  0.47180  0.67720  0.15456  1.0000 0.1289517723
H   H61       1.0  0.95454  0.73796  0.86508  1.0000 0.1192709972
H   H62       1.0  0.74878  0.67446  0.84466  1.0000 0.1012266072
H   H63       1.0  0.64912  0.02982  0.85558  1.0000 0.1192709972
H   H64       1.0  0.28197  0.98651  0.84099  1.0000 0.1085861653
H   H65       1.0  0.39879  0.12423  0.74134  1.0000 0.1373973034
H   H66       1.0  0.76451  0.20975  0.79240  1.0000 0.1192709972
H   H67       1.0  0.76379  0.26941  0.69807  1.0000 0.1192709972
H   H68       1.0  0.70441  0.12207  0.72836  1.0000 0.1192709972
C   C1        1.0  0.32920  0.74220  0.58950  1.0000 0.2009741768
C   C2        1.0  0.31320  0.90200  0.50060  1.0000 0.2150782265
C   C3        1.0  0.38660  0.70020  0.67030  1.0000 0.0938134111
C   C4        1.0  0.18200  0.69900  0.46420  1.0000 0.1192709972
C   C5        1.0  0.22290  0.82310  0.44560  1.0000 -0.2394529905
C   C6        1.0  0.23770  0.65750  0.53870  1.0000 -0.219400347
C   C7        1.0  0.43520  0.11120  0.53780  1.0000 -0.1720115103
C   C8        1.0  0.08510  0.61510  0.40530  1.0000 0.0349059954
C   C9        1.0  0.50740  0.73260  0.80300  1.0000 0.0727737091
C   C10       1.0  0.46040  0.77700  0.72850  1.0000 -0.1794638542
C   C11       1.0  0.46830  0.23230  0.52110  1.0000 0.0619694316
C   C12       1.0  0.07000  0.50360  0.41060  1.0000 -0.1281604551
C   C13       1.0  0.41660  0.54580  0.76960  1.0000 0.0619694316
C   C14       1.0  0.35460  0.03460  0.48250  1.0000 0.0829321809
C   C15       1.0  0.36840  0.58240  0.69260  1.0000 -0.1794638542
C   C16       1.0  0.31490  0.09130  0.40780  1.0000 -0.2052275248
C   C17       1.0  0.35310  0.21470  0.39620  1.0000 0.0619694316
C   C18       1.0  0.98120  0.42780  0.35180  1.0000 -0.2260841288
C   C19       1.0  0.00810  0.64470  0.34330  1.0000 -0.1401190356
C   C20       1.0  0.91140  0.46560  0.28960  1.0000 0.2252743945
C   C21       1.0  0.92410  0.57470  0.28460  1.0000 -0.199391932
C   C22       1.0  0.80480  0.28320  0.23760  1.0000 -0.2394529905
C   C23       1.0  0.74220  0.32920  0.91050  1.0000 0.2009741768
C   C24       1.0  0.90200  0.31320  0.99940  1.0000 0.2150782265
C   C25       1.0  0.70020  0.38660  0.82970  1.0000 0.0938134111
C   C26       1.0  0.69900  0.18200  0.03580  1.0000 0.1192709972
C   C27       1.0  0.82310  0.22290  0.05440  1.0000 -0.2394529905
C   C28       1.0  0.65750  0.23770  0.96130  1.0000 -0.219400347
C   C29       1.0  0.11120  0.43520  0.96220  1.0000 -0.1720115103
C   C30       1.0  0.61510  0.08510  0.09470  1.0000 0.0349059954
C   C31       1.0  0.73260  0.50740  0.69700  1.0000 0.0727737091
C   C32       1.0  0.77700  0.46040  0.77150  1.0000 -0.1794638542
C   C33       1.0  0.23230  0.46830  0.97890  1.0000 0.0619694316
C   C34       1.0  0.50360  0.07000  0.08940  1.0000 -0.1281604551
C   C35       1.0  0.54580  0.41660  0.73040  1.0000 0.0619694316
C   C36       1.0  0.03460  0.35460  0.01750  1.0000 0.0829321809
C   C37       1.0  0.58240  0.36840  0.80740  1.0000 -0.1794638542
C   C38       1.0  0.09130  0.31490  0.09220  1.0000 -0.2052275248
C   C39       1.0  0.21470  0.35310  0.10380  1.0000 0.0619694316
C   C40       1.0  0.42780  0.98120  0.14820  1.0000 -0.2260841288
C   C41       1.0  0.64470  0.00810  0.15670  1.0000 -0.1401190356
C   C42       1.0  0.46560  0.91140  0.21040  1.0000 0.2252743945
C   C43       1.0  0.57470  0.92410  0.21540  1.0000 -0.199391932
C   C44       1.0  0.28320  0.80480  0.26240  1.0000 -0.2394529905
C   C45       1.0  0.67080  0.25780  0.41050  1.0000 0.2009741768
C   C46       1.0  0.68680  0.09800  0.49940  1.0000 0.2150782265
C   C47       1.0  0.61340  0.29980  0.32970  1.0000 0.0938134111
C   C48       1.0  0.81800  0.30100  0.53580  1.0000 0.1192709972
C   C49       1.0  0.77710  0.17690  0.55440  1.0000 -0.2394529905
C   C50       1.0  0.76230  0.34250  0.46130  1.0000 -0.219400347
C   C51       1.0  0.56480  0.88880  0.46220  1.0000 -0.1720115103
C   C52       1.0  0.91490  0.38490  0.59470  1.0000 0.0349059954
C   C53       1.0  0.49260  0.26740  0.19700  1.0000 0.0727737091
C   C54       1.0  0.53960  0.22300  0.27150  1.0000 -0.1794638542
C   C55       1.0  0.53170  0.76770  0.47890  1.0000 0.0619694316
C   C56       1.0  0.93000  0.49640  0.58940  1.0000 -0.1281604551
C   C57       1.0  0.58340  0.45420  0.23040  1.0000 0.0619694316
C   C58       1.0  0.64540  0.96540  0.51750  1.0000 0.0829321809
C   C59       1.0  0.63160  0.41760  0.30740  1.0000 -0.1794638542
C   C60       1.0  0.68510  0.90870  0.59220  1.0000 -0.2052275248
C   C61       1.0  0.64690  0.78530  0.60380  1.0000 0.0619694316
C   C62       1.0  0.01880  0.57220  0.64820  1.0000 -0.2260841288
C   C63       1.0  0.99190  0.35530  0.65670  1.0000 -0.1401190356
C   C64       1.0  0.08860  0.53440  0.71040  1.0000 0.2252743945
C   C65       1.0  0.07590  0.42530  0.71540  1.0000 -0.199391932
C   C66       1.0  0.19520  0.71680  0.76240  1.0000 -0.2394529905
C   C67       1.0  0.25780  0.67080  0.08950  1.0000 0.2009741768
C   C68       1.0  0.09800  0.68680  0.00060  1.0000 0.2150782265
C   C69       1.0  0.29980  0.61340  0.17030  1.0000 0.0938134111
C   C70       1.0  0.30100  0.81800  0.96420  1.0000 0.1192709972
C   C71       1.0  0.17690  0.77710  0.94560  1.0000 -0.2394529905
C   C72       1.0  0.34250  0.76230  0.03870  1.0000 -0.219400347
C   C73       1.0  0.88880  0.56480  0.03780  1.0000 -0.1720115103
C   C74       1.0  0.38490  0.91490  0.90530  1.0000 0.035481143
C   C75       1.0  0.26740  0.49260  0.30300  1.0000 0.0727737091
C   C76       1.0  0.22300  0.53960  0.22850  1.0000 -0.1794638542
C   C77       1.0  0.76770  0.53170  0.02110  1.0000 0.0619694316
C   C78       1.0  0.49640  0.93000  0.91060  1.0000 -0.1281604551
C   C79       1.0  0.45420  0.58340  0.26960  1.0000 0.0619694316
C   C80       1.0  0.96540  0.64540  0.98250  1.0000 0.0829321809
C   C81       1.0  0.41760  0.63160  0.19260  1.0000 -0.1794638542
C   C82       1.0  0.90870  0.68510  0.90780  1.0000 -0.2052275248
C   C83       1.0  0.78530  0.64690  0.89620  1.0000 0.0619694316
C   C84       1.0  0.57220  0.01880  0.85180  1.0000 -0.2260841288
C   C85       1.0  0.35530  0.99190  0.84330  1.0000 -0.1401190356
C   C86       1.0  0.53440  0.08860  0.78960  1.0000 0.2252743945
C   C87       1.0  0.42530  0.07590  0.78460  1.0000 -0.199391932
C   C88       1.0  0.71680  0.19520  0.73760  1.0000 -0.2394529905
I   I1        1.0  0.30243  0.38495  0.53546  1.0000 -0.4483046092
I   I2        1.0  0.38495  0.30243  0.96454  1.0000 -0.4483046092
I   I3        1.0  0.69757  0.61505  0.46454  1.0000 -0.4483046092
I   I4        1.0  0.61505  0.69757  0.03546  1.0000 -0.4483046092
N   N1        1.0  0.36570  0.86190  0.57170  1.0000 -0.3208728514
N   N2        1.0  0.42520  0.28420  0.45230  1.0000 -0.1720115103
N   N3        1.0  0.48670  0.61930  0.82540  1.0000 -0.1794638542
N   N4        1.0  0.86190  0.36570  0.92830  1.0000 -0.3208728514
N   N5        1.0  0.28420  0.42520  0.04770  1.0000 -0.1720115103
N   N6        1.0  0.61930  0.48670  0.67460  1.0000 -0.1794638542
N   N7        1.0  0.63430  0.13810  0.42830  1.0000 -0.3208728514
N   N8        1.0  0.57480  0.71580  0.54770  1.0000 -0.1720115103
N   N9        1.0  0.51330  0.38070  0.17460  1.0000 -0.1794638542
N   N10       1.0  0.13810  0.63430  0.07170  1.0000 -0.3208728514
N   N11       1.0  0.71580  0.57480  0.95230  1.0000 -0.1720115103
N   N12       1.0  0.38070  0.51330  0.32540  1.0000 -0.1794638542
O   O1        1.0  0.82560  0.40000  0.22880  1.0000 -0.1517449028
O   O2        1.0  0.40000  0.82560  0.27120  1.0000 -0.1517449028
O   O3        1.0  0.17440  0.60000  0.77120  1.0000 -0.1517449028
O   O4        1.0  0.60000  0.17440  0.72880  1.0000 -0.1517449028
