# DDEC6 charges by PACMAN v1.1 (https://github.com/mtap-research/PACMAN-charge/)
data_2020[Zn][sql]2[FSR]17
_chemical_formula_sum              "Zn4 H36 C64 N12 O16"
_cell_length_a       7.627
_cell_length_b       19.3178
_cell_length_c       13.0331
_cell_angle_alpha    90
_cell_angle_beta     117.866
_cell_angle_gamma    90

_symmetry_space_group_name_H-M    "P 1"
_symmetry_Int_Tables_number       1

loop_
  _symmetry_equiv_pos_as_xyz
  'x, y, z'

loop_
  _atom_site_type_symbol
  _atom_site_label
  _atom_site_symmetry_multiplicity
  _atom_site_fract_x
  _atom_site_fract_y
  _atom_site_fract_z
  _atom_site_occupancy
  _atom_site_charge
Zn  Zn1       1.0  0.98674  0.40768  0.48506  1.0000 0.7913657716
Zn  Zn2       1.0  0.01326  0.90768  0.01494  1.0000 0.7913657716
Zn  Zn3       1.0  0.01326  0.59232  0.51494  1.0000 0.7913657716
Zn  Zn4       1.0  0.98674  0.09232  0.98506  1.0000 0.7913657716
H   H1        1.0  0.67360  0.21100  0.55160  1.0000 0.1233804888
H   H2        1.0  0.69990  0.32500  0.50550  1.0000 0.1233804888
H   H3        1.0  0.82640  0.38130  0.82860  1.0000 0.1233804888
H   H4        1.0  0.79820  0.26930  0.87370  1.0000 0.1259149603
H   H5        1.0  0.71190  0.77730  0.60500  1.0000 0.1233804888
H   H6        1.0  0.72000  0.66710  0.53940  1.0000 0.1233804888
H   H7        1.0  0.83550  0.59050  0.85040  1.0000 0.1233804888
H   H8        1.0  0.83550  0.70160  0.91630  1.0000 0.1233804888
H   H9        1.0  0.70290  0.48830  0.73760  1.0000 0.3172854102
H   H10       1.0  0.32640  0.71100  0.94840  1.0000 0.1233804888
H   H11       1.0  0.30010  0.82500  0.99450  1.0000 0.1233804888
H   H12       1.0  0.17360  0.88130  0.67140  1.0000 0.1259149603
H   H13       1.0  0.20180  0.76930  0.62630  1.0000 0.1259149603
H   H14       1.0  0.28810  0.27730  0.89500  1.0000 0.1233804888
H   H15       1.0  0.28000  0.16710  0.96060  1.0000 0.1233804888
H   H16       1.0  0.16450  0.09050  0.64960  1.0000 0.1233804888
H   H17       1.0  0.16450  0.20160  0.58370  1.0000 0.1233804888
H   H18       1.0  0.29710  0.98830  0.76240  1.0000 0.3172854102
H   H19       1.0  0.32640  0.78900  0.44840  1.0000 0.1233804888
H   H20       1.0  0.30010  0.67500  0.49450  1.0000 0.1233804888
H   H21       1.0  0.17360  0.61870  0.17140  1.0000 0.1259149603
H   H22       1.0  0.20180  0.73070  0.12630  1.0000 0.1259149603
H   H23       1.0  0.28810  0.22270  0.39500  1.0000 0.1233804888
H   H24       1.0  0.28000  0.33290  0.46060  1.0000 0.1233804888
H   H25       1.0  0.16450  0.40950  0.14960  1.0000 0.1233804888
H   H26       1.0  0.16450  0.29840  0.08370  1.0000 0.1233804888
H   H27       1.0  0.29710  0.51170  0.26240  1.0000 0.3172854102
H   H28       1.0  0.67360  0.28900  0.05160  1.0000 0.1233804888
H   H29       1.0  0.69990  0.17500  0.00550  1.0000 0.1233804888
H   H30       1.0  0.82640  0.11870  0.32860  1.0000 0.1233804888
H   H31       1.0  0.79820  0.23070  0.37370  1.0000 0.1259149603
H   H32       1.0  0.71190  0.72270  0.10500  1.0000 0.1233804888
H   H33       1.0  0.72000  0.83290  0.03940  1.0000 0.1233804888
H   H34       1.0  0.83550  0.90950  0.35040  1.0000 0.1233804888
H   H35       1.0  0.83550  0.79840  0.41630  1.0000 0.1233804888
H   H36       1.0  0.70290  0.01170  0.23760  1.0000 0.3172854102
C   C1        1.0  0.73630  0.22790  0.71810  1.0000 -0.0146582722
C   C2        1.0  0.70520  0.24540  0.60750  1.0000 -0.0958240562
C   C3        1.0  0.72070  0.31370  0.57970  1.0000 -0.1213903957
C   C4        1.0  0.76730  0.36480  0.66250  1.0000 0.0112321298
C   C5        1.0  0.79600  0.34700  0.77280  1.0000 -0.1256369919
C   C6        1.0  0.77990  0.28020  0.79990  1.0000 -0.0834041693
C   C7        1.0  0.72930  0.15310  0.74830  1.0000 0.5621141187
C   C8        1.0  0.79250  0.43840  0.63800  1.0000 0.3100985765
C   C9        1.0  0.77820  0.75070  0.76810  1.0000 -0.0175335837
C   C10       1.0  0.74030  0.73980  0.65510  1.0000 -0.0876335584
C   C11       1.0  0.74430  0.67380  0.61560  1.0000 -0.1213903957
C   C12       1.0  0.78410  0.61760  0.68840  1.0000 0.0112321298
C   C13       1.0  0.81440  0.62810  0.80140  1.0000 -0.1213903957
C   C14       1.0  0.81290  0.69470  0.84050  1.0000 -0.0876335584
C   C15       1.0  0.79340  0.82320  0.81290  1.0000 0.5621141187
C   C16       1.0  0.80000  0.54710  0.65070  1.0000 0.3100985765
C   C17       1.0  0.26370  0.72790  0.78190  1.0000 -0.0146582722
C   C18       1.0  0.29480  0.74540  0.89250  1.0000 -0.0958240562
C   C19       1.0  0.27930  0.81370  0.92030  1.0000 -0.1213903957
C   C20       1.0  0.23270  0.86480  0.83750  1.0000 0.0112321298
C   C21       1.0  0.20400  0.84700  0.72720  1.0000 -0.1256369919
C   C22       1.0  0.22010  0.78020  0.70010  1.0000 -0.0834041693
C   C23       1.0  0.27070  0.65310  0.75170  1.0000 0.5621141187
C   C24       1.0  0.20750  0.93840  0.86200  1.0000 0.3100985765
C   C25       1.0  0.22180  0.25070  0.73190  1.0000 -0.0175335837
C   C26       1.0  0.25970  0.23980  0.84490  1.0000 -0.0876335584
C   C27       1.0  0.25570  0.17380  0.88440  1.0000 -0.1213903957
C   C28       1.0  0.21590  0.11760  0.81160  1.0000 0.0112321298
C   C29       1.0  0.18560  0.12810  0.69860  1.0000 -0.1213903957
C   C30       1.0  0.18710  0.19470  0.65950  1.0000 -0.0876335584
C   C31       1.0  0.20660  0.32320  0.68710  1.0000 0.5621141187
C   C32       1.0  0.20000  0.04710  0.84930  1.0000 0.3100985765
C   C33       1.0  0.26370  0.77210  0.28190  1.0000 -0.0146582722
C   C34       1.0  0.29480  0.75460  0.39250  1.0000 -0.0958240562
C   C35       1.0  0.27930  0.68630  0.42030  1.0000 -0.1213903957
C   C36       1.0  0.23270  0.63520  0.33750  1.0000 0.0112321298
C   C37       1.0  0.20400  0.65300  0.22720  1.0000 -0.1256369919
C   C38       1.0  0.22010  0.71980  0.20010  1.0000 -0.0834041693
C   C39       1.0  0.27070  0.84690  0.25170  1.0000 0.5621141187
C   C40       1.0  0.20750  0.56160  0.36200  1.0000 0.3100985765
C   C41       1.0  0.22180  0.24930  0.23190  1.0000 -0.0175335837
C   C42       1.0  0.25970  0.26020  0.34490  1.0000 -0.0876335584
C   C43       1.0  0.25570  0.32620  0.38440  1.0000 -0.1213903957
C   C44       1.0  0.21590  0.38240  0.31160  1.0000 0.0112321298
C   C45       1.0  0.18560  0.37190  0.19860  1.0000 -0.1213903957
C   C46       1.0  0.18710  0.30530  0.15950  1.0000 -0.0876335584
C   C47       1.0  0.20660  0.17680  0.18710  1.0000 0.5621141187
C   C48       1.0  0.20000  0.45290  0.34930  1.0000 0.3100985765
C   C49       1.0  0.73630  0.27210  0.21810  1.0000 -0.0146582722
C   C50       1.0  0.70520  0.25460  0.10750  1.0000 -0.0958240562
C   C51       1.0  0.72070  0.18630  0.07970  1.0000 -0.1213903957
C   C52       1.0  0.76730  0.13520  0.16250  1.0000 0.0112321298
C   C53       1.0  0.79600  0.15300  0.27280  1.0000 -0.1256369919
C   C54       1.0  0.77990  0.21980  0.29990  1.0000 -0.0834041693
C   C55       1.0  0.72930  0.34690  0.24830  1.0000 0.5621141187
C   C56       1.0  0.79250  0.06160  0.13800  1.0000 0.3100985765
C   C57       1.0  0.77820  0.74930  0.26810  1.0000 -0.0175335837
C   C58       1.0  0.74030  0.76020  0.15510  1.0000 -0.0876335584
C   C59       1.0  0.74430  0.82620  0.11560  1.0000 -0.1213903957
C   C60       1.0  0.78410  0.88240  0.18840  1.0000 0.0112321298
C   C61       1.0  0.81440  0.87190  0.30140  1.0000 -0.1213903957
C   C62       1.0  0.81290  0.80530  0.34050  1.0000 -0.0876335584
C   C63       1.0  0.79340  0.67680  0.31290  1.0000 0.5621141187
C   C64       1.0  0.80000  0.95290  0.15070  1.0000 0.3100985765
N   N1        1.0  0.75090  0.49060  0.68970  1.0000 -0.2761315413
N   N2        1.0  0.86370  0.46010  0.56800  1.0000 -0.254734805
N   N3        1.0  0.86910  0.53220  0.57610  1.0000 -0.2663023778
N   N4        1.0  0.24910  0.99060  0.81030  1.0000 -0.2761315413
N   N5        1.0  0.13630  0.96010  0.93200  1.0000 -0.2562812873
N   N6        1.0  0.13090  0.03220  0.92390  1.0000 -0.2663023778
N   N7        1.0  0.24910  0.50940  0.31030  1.0000 -0.2761315413
N   N8        1.0  0.13630  0.53990  0.43200  1.0000 -0.254734805
N   N9        1.0  0.13090  0.46780  0.42390  1.0000 -0.2663023778
N   N10       1.0  0.75090  0.00940  0.18970  1.0000 -0.2761315413
N   N11       1.0  0.86370  0.03990  0.06800  1.0000 -0.254734805
N   N12       1.0  0.86910  0.96780  0.07610  1.0000 -0.2663023778
O   O1        1.0  0.67880  0.10900  0.67200  1.0000 -0.5246266433
O   O2        1.0  0.77510  0.14020  0.85350  1.0000 -0.5716078587
O   O3        1.0  0.86600  0.82900  0.92210  1.0000 -0.5585081735
O   O4        1.0  0.74400  0.87250  0.74460  1.0000 -0.5375930526
O   O5        1.0  0.32120  0.60900  0.82800  1.0000 -0.5246266433
O   O6        1.0  0.22490  0.64020  0.64650  1.0000 -0.5716078587
O   O7        1.0  0.13400  0.32900  0.57790  1.0000 -0.5585081735
O   O8        1.0  0.25600  0.37250  0.75540  1.0000 -0.5375930526
O   O9        1.0  0.32120  0.89100  0.32800  1.0000 -0.5246266433
O   O10       1.0  0.22490  0.85980  0.14650  1.0000 -0.5716078587
O   O11       1.0  0.13400  0.17100  0.07790  1.0000 -0.5585081735
O   O12       1.0  0.25600  0.12750  0.25540  1.0000 -0.5375930526
O   O13       1.0  0.67880  0.39100  0.17200  1.0000 -0.5246266433
O   O14       1.0  0.77510  0.35980  0.35350  1.0000 -0.5716078587
O   O15       1.0  0.86600  0.67100  0.42210  1.0000 -0.5585081735
O   O16       1.0  0.74400  0.62750  0.24460  1.0000 -0.5375930526
