# DDEC6 charges by PACMAN v1.1 (https://github.com/mtap-research/PACMAN-charge/)
data_2020[Zn][nan]3[FSR]66
_chemical_formula_sum              "Zn16 H96 C108 N56 O40"
_cell_length_a       13.7343
_cell_length_b       26.6952
_cell_length_c       18.742
_cell_angle_alpha    90
_cell_angle_beta     132.855
_cell_angle_gamma    90

_symmetry_space_group_name_H-M    "P 1"
_symmetry_Int_Tables_number       1

loop_
  _symmetry_equiv_pos_as_xyz
  'x, y, z'

loop_
  _atom_site_type_symbol
  _atom_site_label
  _atom_site_symmetry_multiplicity
  _atom_site_fract_x
  _atom_site_fract_y
  _atom_site_fract_z
  _atom_site_occupancy
  _atom_site_charge
Zn  Zn1       1.0  0.60652  0.45530  0.78194  1.0000 0.7050667992
Zn  Zn2       1.0  0.39387  0.54975  0.75541  1.0000 0.6618598989
Zn  Zn3       1.0  0.91708  0.56534  0.17429  1.0000 0.6988105169
Zn  Zn4       1.0  0.12934  0.47006  0.35937  1.0000 0.6768840542
Zn  Zn5       1.0  0.39348  0.95530  0.71806  1.0000 0.7050667992
Zn  Zn6       1.0  0.60613  0.04975  0.74459  1.0000 0.6618598989
Zn  Zn7       1.0  0.08292  0.06534  0.32571  1.0000 0.6988105169
Zn  Zn8       1.0  0.87066  0.97006  0.14063  1.0000 0.6768840542
Zn  Zn9       1.0  0.39348  0.54470  0.21806  1.0000 0.7050667992
Zn  Zn10      1.0  0.60613  0.45025  0.24459  1.0000 0.6618598989
Zn  Zn11      1.0  0.08292  0.43466  0.82571  1.0000 0.6988105169
Zn  Zn12      1.0  0.87066  0.52994  0.64063  1.0000 0.6768840542
Zn  Zn13      1.0  0.60652  0.04470  0.28194  1.0000 0.7050667992
Zn  Zn14      1.0  0.39387  0.95025  0.25541  1.0000 0.6618598989
Zn  Zn15      1.0  0.91708  0.93466  0.67429  1.0000 0.6988105169
Zn  Zn16      1.0  0.12934  0.02994  0.85937  1.0000 0.6768840542
H   H1        1.0  0.38790  0.40560  0.73910  1.0000 0.4026528141
H   H2        1.0  0.38670  0.45600  0.76970  1.0000 0.3461800805
H   H3        1.0  0.22460  0.61670  0.30900  1.0000 0.2882232657
H   H4        1.0  0.24210  0.62370  0.50910  1.0000 0.2781404918
H   H5        1.0  0.49710  0.29160  0.64610  1.0000 0.1185653033
H   H6        1.0  0.51260  0.20590  0.65740  1.0000 0.1185653033
H   H7        1.0  0.85150  0.21710  0.93390  1.0000 0.1185653033
H   H8        1.0  0.83120  0.30260  0.92520  1.0000 0.1270830038
H   H9        1.0  0.68050  0.71260  0.10380  1.0000 0.1185653033
H   H10       1.0  0.64930  0.79710  0.09360  1.0000 0.1109345952
H   H11       1.0  0.96470  0.81670  0.12790  1.0000 0.1185653033
H   H12       1.0  0.99700  0.73250  0.13730  1.0000 0.1185653033
H   H13       1.0  0.18070  0.54310  0.52080  1.0000 0.1109345952
H   H14       1.0  0.42310  0.44850  0.55480  1.0000 0.1185653033
H   H15       1.0  0.61270  0.58370  0.97460  1.0000 0.1185653033
H   H16       1.0  0.85280  0.48990  0.00740  1.0000 0.1185653033
H   H17       1.0  0.67030  0.52960  0.15110  1.0000 0.1109345952
H   H18       1.0  0.90780  0.43500  0.35740  1.0000 0.1270830038
H   H19       1.0  0.09610  0.56860  0.12290  1.0000 0.1185653033
H   H20       1.0  0.33280  0.47320  0.32970  1.0000 0.1185653033
H   H21       1.0  0.41810  0.65520  0.43900  1.0000 0.1109345952
H   H22       1.0  0.30870  0.69740  0.38460  1.0000 0.1109345952
H   H23       1.0  0.34540  0.70430  0.51990  1.0000 0.1185653033
H   H24       1.0  0.42500  0.65310  0.56170  1.0000 0.1185653033
H   H25       1.0  0.61210  0.90560  0.76090  1.0000 0.4026528141
H   H26       1.0  0.61330  0.95600  0.73030  1.0000 0.3461800805
H   H27       1.0  0.77540  0.11670  0.19100  1.0000 0.2882232657
H   H28       1.0  0.75790  0.12370  0.99090  1.0000 0.2781404918
H   H29       1.0  0.50290  0.79160  0.85390  1.0000 0.1185653033
H   H30       1.0  0.48740  0.70590  0.84260  1.0000 0.1185653033
H   H31       1.0  0.14850  0.71710  0.56610  1.0000 0.1185653033
H   H32       1.0  0.16880  0.80260  0.57480  1.0000 0.1270830038
H   H33       1.0  0.31950  0.21260  0.39620  1.0000 0.1185653033
H   H34       1.0  0.35070  0.29710  0.40640  1.0000 0.1109345952
H   H35       1.0  0.03530  0.31670  0.37210  1.0000 0.1185653033
H   H36       1.0  0.00300  0.23250  0.36270  1.0000 0.1185653033
H   H37       1.0  0.81930  0.04310  0.97920  1.0000 0.1109345952
H   H38       1.0  0.57690  0.94850  0.94520  1.0000 0.1185653033
H   H39       1.0  0.38730  0.08370  0.52540  1.0000 0.1185653033
H   H40       1.0  0.14720  0.98990  0.49260  1.0000 0.1185653033
H   H41       1.0  0.32970  0.02960  0.34890  1.0000 0.1109345952
H   H42       1.0  0.09220  0.93500  0.14260  1.0000 0.1270830038
H   H43       1.0  0.90390  0.06860  0.37710  1.0000 0.1185653033
H   H44       1.0  0.66720  0.97320  0.17030  1.0000 0.1185653033
H   H45       1.0  0.58190  0.15520  0.06100  1.0000 0.1109345952
H   H46       1.0  0.69130  0.19740  0.11540  1.0000 0.1109345952
H   H47       1.0  0.65460  0.20430  0.98010  1.0000 0.1185653033
H   H48       1.0  0.57500  0.15310  0.93830  1.0000 0.1185653033
H   H49       1.0  0.61210  0.59440  0.26090  1.0000 0.4026528141
H   H50       1.0  0.61330  0.54400  0.23030  1.0000 0.3461800805
H   H51       1.0  0.77540  0.38330  0.69100  1.0000 0.2882232657
H   H52       1.0  0.75790  0.37630  0.49090  1.0000 0.2781404918
H   H53       1.0  0.50290  0.70840  0.35390  1.0000 0.1185653033
H   H54       1.0  0.48740  0.79410  0.34260  1.0000 0.1185653033
H   H55       1.0  0.14850  0.78290  0.06610  1.0000 0.1185653033
H   H56       1.0  0.16880  0.69740  0.07480  1.0000 0.1270830038
H   H57       1.0  0.31950  0.28740  0.89620  1.0000 0.1185653033
H   H58       1.0  0.35070  0.20290  0.90640  1.0000 0.1109345952
H   H59       1.0  0.03530  0.18330  0.87210  1.0000 0.1185653033
H   H60       1.0  0.00300  0.26750  0.86270  1.0000 0.1185653033
H   H61       1.0  0.81930  0.45690  0.47920  1.0000 0.1109345952
H   H62       1.0  0.57690  0.55150  0.44520  1.0000 0.1185653033
H   H63       1.0  0.38730  0.41630  0.02540  1.0000 0.1185653033
H   H64       1.0  0.14720  0.51010  0.99260  1.0000 0.1185653033
H   H65       1.0  0.32970  0.47040  0.84890  1.0000 0.1109345952
H   H66       1.0  0.09220  0.56500  0.64260  1.0000 0.1270830038
H   H67       1.0  0.90390  0.43140  0.87710  1.0000 0.1185653033
H   H68       1.0  0.66720  0.52680  0.67030  1.0000 0.1185653033
H   H69       1.0  0.58190  0.34480  0.56100  1.0000 0.1109345952
H   H70       1.0  0.69130  0.30260  0.61540  1.0000 0.1109345952
H   H71       1.0  0.65460  0.29570  0.48010  1.0000 0.1185653033
H   H72       1.0  0.57500  0.34690  0.43830  1.0000 0.1185653033
H   H73       1.0  0.38790  0.09440  0.23910  1.0000 0.4026528141
H   H74       1.0  0.38670  0.04400  0.26970  1.0000 0.3461800805
H   H75       1.0  0.22460  0.88330  0.80900  1.0000 0.2882232657
H   H76       1.0  0.24210  0.87630  0.00910  1.0000 0.2781404918
H   H77       1.0  0.49710  0.20840  0.14610  1.0000 0.1185653033
H   H78       1.0  0.51260  0.29410  0.15740  1.0000 0.1185653033
H   H79       1.0  0.85150  0.28290  0.43390  1.0000 0.1185653033
H   H80       1.0  0.83120  0.19740  0.42520  1.0000 0.1270830038
H   H81       1.0  0.68050  0.78740  0.60380  1.0000 0.1185653033
H   H82       1.0  0.64930  0.70290  0.59360  1.0000 0.1109345952
H   H83       1.0  0.96470  0.68330  0.62790  1.0000 0.1185653033
H   H84       1.0  0.99700  0.76750  0.63730  1.0000 0.1185653033
H   H85       1.0  0.18070  0.95690  0.02080  1.0000 0.1109345952
H   H86       1.0  0.42310  0.05150  0.05480  1.0000 0.1185653033
H   H87       1.0  0.61270  0.91630  0.47460  1.0000 0.1185653033
H   H88       1.0  0.85280  0.01010  0.50740  1.0000 0.1185653033
H   H89       1.0  0.67030  0.97040  0.65110  1.0000 0.1109345952
H   H90       1.0  0.90780  0.06500  0.85740  1.0000 0.1270830038
H   H91       1.0  0.09610  0.93140  0.62290  1.0000 0.1185653033
H   H92       1.0  0.33280  0.02680  0.82970  1.0000 0.1185653033
H   H93       1.0  0.41810  0.84480  0.93900  1.0000 0.1109345952
H   H94       1.0  0.30870  0.80260  0.88460  1.0000 0.1109345952
H   H95       1.0  0.34540  0.79570  0.01990  1.0000 0.1185653033
H   H96       1.0  0.42500  0.84690  0.06170  1.0000 0.1185653033
C   C1        1.0  0.63940  0.36230  0.77700  1.0000 0.5281832805
C   C2        1.0  0.66090  0.30550  0.78620  1.0000 -0.0082076236
C   C3        1.0  0.56720  0.27650  0.70510  1.0000 -0.1186587009
C   C4        1.0  0.57770  0.22530  0.71160  1.0000 -0.1101226562
C   C5        1.0  0.68360  0.20220  0.79760  1.0000 -0.0273878039
C   C6        1.0  0.77800  0.23200  0.87590  1.0000 -0.1101226562
C   C7        1.0  0.76660  0.28320  0.87080  1.0000 -0.1101226562
C   C8        1.0  0.69230  0.14620  0.80460  1.0000 0.5474758139
C   C9        1.0  0.87210  0.65740  0.13810  1.0000 0.5383026293
C   C10       1.0  0.84360  0.71300  0.12420  1.0000 -0.0082076236
C   C11       1.0  0.73970  0.73360  0.10980  1.0000 -0.1101226562
C   C12       1.0  0.72120  0.78420  0.10420  1.0000 -0.1186587009
C   C13       1.0  0.80710  0.81590  0.11420  1.0000 -0.0163364624
C   C14       1.0  0.90790  0.79540  0.12450  1.0000 -0.1003944771
C   C15       1.0  0.92750  0.74520  0.12980  1.0000 -0.1101226562
C   C16       1.0  0.78990  0.87260  0.11420  1.0000 0.5554118445
C   C17       1.0  0.25510  0.52350  0.54820  1.0000 0.1421366586
C   C18       1.0  0.38700  0.47250  0.56720  1.0000 0.159995744
C   C19       1.0  0.64760  0.55870  0.96300  1.0000 0.159995744
C   C20       1.0  0.77650  0.50800  0.98040  1.0000 0.159995744
C   C21       1.0  0.74550  0.51090  0.19950  1.0000 0.1421366586
C   C22       1.0  0.87420  0.46000  0.31120  1.0000 0.159995744
C   C23       1.0  0.13330  0.54610  0.17360  1.0000 0.1270830038
C   C24       1.0  0.26100  0.49430  0.28560  1.0000 0.148045226
C   C25       1.0  0.16900  0.61890  0.38030  1.0000 0.5858869246
C   C26       1.0  0.33400  0.66540  0.41770  1.0000 -0.0700358236
C   C27       1.0  0.34580  0.66970  0.50450  1.0000 -0.0853981136
C   C28       1.0  0.36060  0.86230  0.72300  1.0000 0.5281832805
C   C29       1.0  0.33910  0.80550  0.71380  1.0000 -0.0082076236
C   C30       1.0  0.43280  0.77650  0.79490  1.0000 -0.1186587009
C   C31       1.0  0.42230  0.72530  0.78840  1.0000 -0.1101226562
C   C32       1.0  0.31640  0.70220  0.70240  1.0000 -0.0273878039
C   C33       1.0  0.22200  0.73200  0.62410  1.0000 -0.1101226562
C   C34       1.0  0.23340  0.78320  0.62920  1.0000 -0.1101226562
C   C35       1.0  0.30770  0.64620  0.69540  1.0000 0.5474758139
C   C36       1.0  0.12790  0.15740  0.36190  1.0000 0.5383026293
C   C37       1.0  0.15640  0.21300  0.37580  1.0000 -0.0082076236
C   C38       1.0  0.26030  0.23360  0.39020  1.0000 -0.1101226562
C   C39       1.0  0.27880  0.28420  0.39580  1.0000 -0.1186587009
C   C40       1.0  0.19290  0.31590  0.38580  1.0000 -0.0163364624
C   C41       1.0  0.09210  0.29540  0.37550  1.0000 -0.1003944771
C   C42       1.0  0.07250  0.24520  0.37020  1.0000 -0.1101226562
C   C43       1.0  0.21010  0.37260  0.38580  1.0000 0.5554118445
C   C44       1.0  0.74490  0.02350  0.95180  1.0000 0.1421366586
C   C45       1.0  0.61300  0.97250  0.93280  1.0000 0.159995744
C   C46       1.0  0.35240  0.05870  0.53700  1.0000 0.159995744
C   C47       1.0  0.22350  0.00800  0.51960  1.0000 0.159995744
C   C48       1.0  0.25450  0.01090  0.30050  1.0000 0.1421366586
C   C49       1.0  0.12580  0.96000  0.18880  1.0000 0.159995744
C   C50       1.0  0.86670  0.04610  0.32640  1.0000 0.1270830038
C   C51       1.0  0.73900  0.99430  0.21440  1.0000 0.148045226
C   C52       1.0  0.83100  0.11890  0.11970  1.0000 0.5858869246
C   C53       1.0  0.66600  0.16540  0.08230  1.0000 -0.0700358236
C   C54       1.0  0.65420  0.16970  0.99550  1.0000 -0.0853981136
C   C55       1.0  0.36060  0.63770  0.22300  1.0000 0.5281832805
C   C56       1.0  0.33910  0.69450  0.21380  1.0000 -0.0082076236
C   C57       1.0  0.43280  0.72350  0.29490  1.0000 -0.1186587009
C   C58       1.0  0.42230  0.77470  0.28840  1.0000 -0.1101226562
C   C59       1.0  0.31640  0.79780  0.20240  1.0000 -0.0273878039
C   C60       1.0  0.22200  0.76800  0.12410  1.0000 -0.1101226562
C   C61       1.0  0.23340  0.71680  0.12920  1.0000 -0.1101226562
C   C62       1.0  0.30770  0.85380  0.19540  1.0000 0.5474758139
C   C63       1.0  0.12790  0.34260  0.86190  1.0000 0.5383026293
C   C64       1.0  0.15640  0.28700  0.87580  1.0000 -0.0082076236
C   C65       1.0  0.26030  0.26640  0.89020  1.0000 -0.1101226562
C   C66       1.0  0.27880  0.21580  0.89580  1.0000 -0.1186587009
C   C67       1.0  0.19290  0.18410  0.88580  1.0000 -0.0163364624
C   C68       1.0  0.09210  0.20460  0.87550  1.0000 -0.1003944771
C   C69       1.0  0.07250  0.25480  0.87020  1.0000 -0.1101226562
C   C70       1.0  0.21010  0.12740  0.88580  1.0000 0.5554118445
C   C71       1.0  0.74490  0.47650  0.45180  1.0000 0.1421366586
C   C72       1.0  0.61300  0.52750  0.43280  1.0000 0.159995744
C   C73       1.0  0.35240  0.44130  0.03700  1.0000 0.159995744
C   C74       1.0  0.22350  0.49200  0.01960  1.0000 0.159995744
C   C75       1.0  0.25450  0.48910  0.80050  1.0000 0.1421366586
C   C76       1.0  0.12580  0.54000  0.68880  1.0000 0.159995744
C   C77       1.0  0.86670  0.45390  0.82640  1.0000 0.1270830038
C   C78       1.0  0.73900  0.50570  0.71440  1.0000 0.148045226
C   C79       1.0  0.83100  0.38110  0.61970  1.0000 0.5858869246
C   C80       1.0  0.66600  0.33460  0.58230  1.0000 -0.0700358236
C   C81       1.0  0.65420  0.33030  0.49550  1.0000 -0.0838214541
C   C82       1.0  0.63940  0.13770  0.27700  1.0000 0.5281832805
C   C83       1.0  0.66090  0.19450  0.28620  1.0000 -0.0082076236
C   C84       1.0  0.56720  0.22350  0.20510  1.0000 -0.1186587009
C   C85       1.0  0.57770  0.27470  0.21160  1.0000 -0.1101226562
C   C86       1.0  0.68360  0.29780  0.29760  1.0000 -0.0273878039
C   C87       1.0  0.77800  0.26800  0.37590  1.0000 -0.1101226562
C   C88       1.0  0.76660  0.21680  0.37080  1.0000 -0.1101226562
C   C89       1.0  0.69230  0.35380  0.30460  1.0000 0.5474758139
C   C90       1.0  0.87210  0.84260  0.63810  1.0000 0.5383026293
C   C91       1.0  0.84360  0.78700  0.62420  1.0000 -0.0082076236
C   C92       1.0  0.73970  0.76640  0.60980  1.0000 -0.1101226562
C   C93       1.0  0.72120  0.71580  0.60420  1.0000 -0.1186587009
C   C94       1.0  0.80710  0.68410  0.61420  1.0000 -0.0163364624
C   C95       1.0  0.90790  0.70460  0.62450  1.0000 -0.1003944771
C   C96       1.0  0.92750  0.75480  0.62980  1.0000 -0.1101226562
C   C97       1.0  0.78990  0.62740  0.61420  1.0000 0.5554118445
C   C98       1.0  0.25510  0.97650  0.04820  1.0000 0.1421366586
C   C99       1.0  0.38700  0.02750  0.06720  1.0000 0.159995744
C   C100      1.0  0.64760  0.94130  0.46300  1.0000 0.159995744
C   C101      1.0  0.77650  0.99200  0.48040  1.0000 0.159995744
C   C102      1.0  0.74550  0.98910  0.69950  1.0000 0.1421366586
C   C103      1.0  0.87420  0.04000  0.81120  1.0000 0.159995744
C   C104      1.0  0.13330  0.95390  0.67360  1.0000 0.1270830038
C   C105      1.0  0.26100  0.00570  0.78560  1.0000 0.148045226
C   C106      1.0  0.16900  0.88110  0.88030  1.0000 0.5858869246
C   C107      1.0  0.33400  0.83460  0.91770  1.0000 -0.0700358236
C   C108      1.0  0.34580  0.83030  0.00450  1.0000 -0.0853981136
N   N1        1.0  0.26600  0.49313  0.49590  1.0000 -0.335092818
N   N2        1.0  0.36110  0.52229  0.64180  1.0000 -0.2196531715
N   N3        1.0  0.44830  0.48864  0.65350  1.0000 -0.2196531715
N   N4        1.0  0.57860  0.53510  0.87940  1.0000 -0.2027891151
N   N5        1.0  0.66450  0.50097  0.89150  1.0000 -0.1934328982
N   N6        1.0  0.77400  0.54271  0.03000  1.0000 -0.3275177918
N   N7        1.0  0.74470  0.47536  0.24750  1.0000 -0.3560894141
N   N8        1.0  0.94560  0.48427  0.29990  1.0000 -0.1841416889
N   N9        1.0  0.85890  0.51811  0.22420  1.0000 -0.1841416889
N   N10       1.0  0.07590  0.53176  0.20450  1.0000 -0.2027891151
N   N11       1.0  0.15860  0.49776  0.27790  1.0000 -0.2027891151
N   N12       1.0  0.25210  0.52420  0.22410  1.0000 -0.3275177918
N   N13       1.0  0.23820  0.63010  0.35680  1.0000 -0.3275177918
N   N14       1.0  0.22660  0.64370  0.46630  1.0000 -0.3709263364
N   N15       1.0  0.73400  0.99313  0.00410  1.0000 -0.335092818
N   N16       1.0  0.63890  0.02229  0.85820  1.0000 -0.2196531715
N   N17       1.0  0.55170  0.98864  0.84650  1.0000 -0.2196531715
N   N18       1.0  0.42140  0.03510  0.62060  1.0000 -0.2027891151
N   N19       1.0  0.33550  0.00097  0.60850  1.0000 -0.1934328982
N   N20       1.0  0.22600  0.04271  0.47000  1.0000 -0.3275177918
N   N21       1.0  0.25530  0.97536  0.25250  1.0000 -0.3560894141
N   N22       1.0  0.05440  0.98427  0.20010  1.0000 -0.1841416889
N   N23       1.0  0.14110  0.01811  0.27580  1.0000 -0.1841416889
N   N24       1.0  0.92410  0.03176  0.29550  1.0000 -0.2027891151
N   N25       1.0  0.84140  0.99776  0.22210  1.0000 -0.2027891151
N   N26       1.0  0.74790  0.02420  0.27590  1.0000 -0.335092818
N   N27       1.0  0.76180  0.13010  0.14320  1.0000 -0.3275177918
N   N28       1.0  0.77340  0.14370  0.03370  1.0000 -0.3709263364
N   N29       1.0  0.73400  0.50687  0.50410  1.0000 -0.335092818
N   N30       1.0  0.63890  0.47771  0.35820  1.0000 -0.2196531715
N   N31       1.0  0.55170  0.51136  0.34650  1.0000 -0.2196531715
N   N32       1.0  0.42140  0.46490  0.12060  1.0000 -0.2027891151
N   N33       1.0  0.33550  0.49903  0.10850  1.0000 -0.1934328982
N   N34       1.0  0.22600  0.45729  0.97000  1.0000 -0.3275177918
N   N35       1.0  0.25530  0.52464  0.75250  1.0000 -0.3560894141
N   N36       1.0  0.05440  0.51573  0.70010  1.0000 -0.1841416889
N   N37       1.0  0.14110  0.48189  0.77580  1.0000 -0.1841416889
N   N38       1.0  0.92410  0.46824  0.79550  1.0000 -0.2027891151
N   N39       1.0  0.84140  0.50224  0.72210  1.0000 -0.2027891151
N   N40       1.0  0.74790  0.47580  0.77590  1.0000 -0.335092818
N   N41       1.0  0.76180  0.36990  0.64320  1.0000 -0.3275177918
N   N42       1.0  0.77340  0.35630  0.53370  1.0000 -0.3709263364
N   N43       1.0  0.26600  0.00687  0.99590  1.0000 -0.335092818
N   N44       1.0  0.36110  0.97771  0.14180  1.0000 -0.2196531715
N   N45       1.0  0.44830  0.01136  0.15350  1.0000 -0.2196531715
N   N46       1.0  0.57860  0.96490  0.37940  1.0000 -0.2027891151
N   N47       1.0  0.66450  0.99903  0.39150  1.0000 -0.1934328982
N   N48       1.0  0.77400  0.95729  0.53000  1.0000 -0.3275177918
N   N49       1.0  0.74470  0.02464  0.74750  1.0000 -0.3560894141
N   N50       1.0  0.94560  0.01573  0.79990  1.0000 -0.1841416889
N   N51       1.0  0.85890  0.98189  0.72420  1.0000 -0.1841416889
N   N52       1.0  0.07590  0.96824  0.70450  1.0000 -0.2027891151
N   N53       1.0  0.15860  0.00224  0.77790  1.0000 -0.2027891151
N   N54       1.0  0.25210  0.97580  0.72410  1.0000 -0.335092818
N   N55       1.0  0.23820  0.86990  0.85680  1.0000 -0.3275177918
N   N56       1.0  0.22660  0.85630  0.96630  1.0000 -0.3709263364
O   O1        1.0  0.70790  0.38718  0.85620  1.0000 -0.5398330251
O   O2        1.0  0.45000  0.43050  0.78690  1.0000 -0.6927712271
O   O3        1.0  0.56060  0.38238  0.69870  1.0000 -0.5235894331
O   O4        1.0  0.60030  0.12247  0.72760  1.0000 -0.5303850779
O   O5        1.0  0.78570  0.12644  0.88360  1.0000 -0.5689922282
O   O6        1.0  0.80780  0.63090  0.14850  1.0000 -0.5303850779
O   O7        1.0  0.95550  0.63960  0.13920  1.0000 -0.5450876364
O   O8        1.0  0.69870  0.89023  0.10430  1.0000 -0.5689922282
O   O9        1.0  0.87900  0.89774  0.12890  1.0000 -0.5303850779
O   O10       1.0  0.07060  0.59028  0.33700  1.0000 -0.5689922282
O   O11       1.0  0.29210  0.88718  0.64380  1.0000 -0.5398330251
O   O12       1.0  0.55000  0.93050  0.71310  1.0000 -0.6927712271
O   O13       1.0  0.43940  0.88238  0.80130  1.0000 -0.5235894331
O   O14       1.0  0.39970  0.62247  0.77240  1.0000 -0.5303850779
O   O15       1.0  0.21430  0.62644  0.61640  1.0000 -0.5689922282
O   O16       1.0  0.19220  0.13090  0.35150  1.0000 -0.5303850779
O   O17       1.0  0.04450  0.13960  0.36080  1.0000 -0.5450876364
O   O18       1.0  0.30130  0.39023  0.39570  1.0000 -0.5689922282
O   O19       1.0  0.12100  0.39774  0.37110  1.0000 -0.5303850779
O   O20       1.0  0.92940  0.09028  0.16300  1.0000 -0.5689922282
O   O21       1.0  0.29210  0.61282  0.14380  1.0000 -0.5398330251
O   O22       1.0  0.55000  0.56950  0.21310  1.0000 -0.6927712271
O   O23       1.0  0.43940  0.61762  0.30130  1.0000 -0.5235894331
O   O24       1.0  0.39970  0.87753  0.27240  1.0000 -0.5303850779
O   O25       1.0  0.21430  0.87356  0.11640  1.0000 -0.5689922282
O   O26       1.0  0.19220  0.36910  0.85150  1.0000 -0.5303850779
O   O27       1.0  0.04450  0.36040  0.86080  1.0000 -0.5450876364
O   O28       1.0  0.30130  0.10977  0.89570  1.0000 -0.5689922282
O   O29       1.0  0.12100  0.10226  0.87110  1.0000 -0.5303850779
O   O30       1.0  0.92940  0.40972  0.66300  1.0000 -0.5689922282
O   O31       1.0  0.70790  0.11282  0.35620  1.0000 -0.5398330251
O   O32       1.0  0.45000  0.06950  0.28690  1.0000 -0.6927712271
O   O33       1.0  0.56060  0.11762  0.19870  1.0000 -0.5235894331
O   O34       1.0  0.60030  0.37753  0.22760  1.0000 -0.5303850779
O   O35       1.0  0.78570  0.37356  0.38360  1.0000 -0.5689922282
O   O36       1.0  0.80780  0.86910  0.64850  1.0000 -0.5303850779
O   O37       1.0  0.95550  0.86040  0.63920  1.0000 -0.5450876364
O   O38       1.0  0.69870  0.60977  0.60430  1.0000 -0.5689922282
O   O39       1.0  0.87900  0.60226  0.62890  1.0000 -0.5303850779
O   O40       1.0  0.07060  0.90972  0.83700  1.0000 -0.5689922282
