# DDEC6 charges by PACMAN v1.1 (https://github.com/mtap-research/PACMAN-charge/)
data_2020[Lu][nan]3[FSR]2
_chemical_formula_sum              "Lu8 H116 C168 O64"
_cell_length_a       12.6389
_cell_length_b       12.6389
_cell_length_c       35.9267
_cell_angle_alpha    84.3339
_cell_angle_beta     95.6661
_cell_angle_gamma    89.1483

_symmetry_space_group_name_H-M    "P 1"
_symmetry_Int_Tables_number       1

loop_
  _symmetry_equiv_pos_as_xyz
  'x, y, z'

loop_
  _atom_site_type_symbol
  _atom_site_label
  _atom_site_symmetry_multiplicity
  _atom_site_fract_x
  _atom_site_fract_y
  _atom_site_fract_z
  _atom_site_occupancy
  _atom_site_charge
Lu  Lu1       1.0  0.63026  0.50302  0.03208  1.0000 1.6272511793
Lu  Lu2       1.0  0.98103  0.04805  0.56255  1.0000 1.5963537407
Lu  Lu3       1.0  0.50302  0.63026  0.46792  1.0000 1.6272511793
Lu  Lu4       1.0  0.04805  0.98103  0.93745  1.0000 1.5963537407
Lu  Lu5       1.0  0.36974  0.49698  0.96792  1.0000 1.6272511793
Lu  Lu6       1.0  0.01897  0.95195  0.43745  1.0000 1.5963537407
Lu  Lu7       1.0  0.49698  0.36974  0.53208  1.0000 1.6272511793
Lu  Lu8       1.0  0.95195  0.01897  0.06255  1.0000 1.5963537407
H   H1        1.0  0.79745  0.62751  0.02521  1.0000 0.3835806077
H   H2        1.0  0.82477  0.44855  0.01671  1.0000 0.3835806077
H   H3        1.0  0.79189  0.36271  0.04068  1.0000 0.3880472568
H   H4        1.0  0.04184  0.23004  0.52779  1.0000 0.4078430546
H   H5        1.0  0.13153  0.19665  0.55779  1.0000 0.3973217694
H   H6        1.0  0.94410  0.17622  0.61402  1.0000 0.367484459
H   H7        1.0  0.86097  0.19689  0.58574  1.0000 0.3880472568
H   H8        1.0  0.51696  0.69334  0.87575  1.0000 0.1197209167
H   H9        1.0  0.77279  0.71763  0.94997  1.0000 0.1358159048
H   H10       1.0  0.75205  0.88839  0.84895  1.0000 0.112342527
H   H11       1.0  0.69116  0.84624  0.78855  1.0000 0.1197209167
H   H12       1.0  0.59668  0.91574  0.73262  1.0000 0.1197209167
H   H13       1.0  0.32538  0.89820  0.78231  1.0000 0.112342527
H   H14       1.0  0.41986  0.82870  0.83825  1.0000 0.1197209167
H   H15       1.0  0.49981  0.06767  0.69877  1.0000 0.112342527
H   H16       1.0  0.40311  0.13717  0.64327  1.0000 0.1264725079
H   H17       1.0  0.16115  0.94729  0.66667  1.0000 0.1197209167
H   H18       1.0  0.25785  0.87779  0.72220  1.0000 0.1038658929
H   H19       1.0  0.24028  0.70446  0.50585  1.0000 0.1264725079
H   H20       1.0  0.13955  0.82727  0.59553  1.0000 0.1264725079
H   H21       1.0  0.32888  0.56518  0.60992  1.0000 0.1264725079
H   H22       1.0  0.07782  0.72328  0.65293  1.0000 0.1197209167
H   H23       1.0  0.07673  0.70097  0.71777  1.0000 0.112342527
H   H24       1.0  0.38849  0.62321  0.72896  1.0000 0.1197209167
H   H25       1.0  0.38958  0.64552  0.66412  1.0000 0.1197209167
H   H26       1.0  0.12053  0.76275  0.77473  1.0000 0.1197209167
H   H27       1.0  0.12722  0.75182  0.83976  1.0000 0.1197209167
H   H28       1.0  0.35325  0.52134  0.84814  1.0000 0.1358159048
H   H29       1.0  0.34656  0.53226  0.78311  1.0000 0.1197209167
H   H30       1.0  0.62751  0.79745  0.47479  1.0000 0.3835806077
H   H31       1.0  0.44855  0.82477  0.48329  1.0000 0.3835806077
H   H32       1.0  0.36271  0.79189  0.45932  1.0000 0.3880472568
H   H33       1.0  0.23004  0.04184  0.97221  1.0000 0.4078430546
H   H34       1.0  0.19665  0.13153  0.94221  1.0000 0.3973217694
H   H35       1.0  0.17622  0.94410  0.88598  1.0000 0.367484459
H   H36       1.0  0.19689  0.86097  0.91426  1.0000 0.3880472568
H   H37       1.0  0.69334  0.51696  0.62425  1.0000 0.1197209167
H   H38       1.0  0.71763  0.77279  0.55003  1.0000 0.1358159048
H   H39       1.0  0.88839  0.75205  0.65105  1.0000 0.112342527
H   H40       1.0  0.84624  0.69116  0.71145  1.0000 0.1197209167
H   H41       1.0  0.91574  0.59668  0.76738  1.0000 0.1197209167
H   H42       1.0  0.89820  0.32538  0.71769  1.0000 0.112342527
H   H43       1.0  0.82870  0.41986  0.66175  1.0000 0.1197209167
H   H44       1.0  0.06767  0.49981  0.80123  1.0000 0.112342527
H   H45       1.0  0.13717  0.40311  0.85673  1.0000 0.1264725079
H   H46       1.0  0.94729  0.16115  0.83333  1.0000 0.1197209167
H   H47       1.0  0.87779  0.25785  0.77780  1.0000 0.1038658929
H   H48       1.0  0.70446  0.24028  0.99415  1.0000 0.1264725079
H   H49       1.0  0.82727  0.13955  0.90447  1.0000 0.1264725079
H   H50       1.0  0.56518  0.32888  0.89008  1.0000 0.1264725079
H   H51       1.0  0.72328  0.07782  0.84707  1.0000 0.1197209167
H   H52       1.0  0.70097  0.07673  0.78223  1.0000 0.112342527
H   H53       1.0  0.62321  0.38849  0.77104  1.0000 0.1197209167
H   H54       1.0  0.64552  0.38958  0.83588  1.0000 0.1197209167
H   H55       1.0  0.76275  0.12053  0.72527  1.0000 0.1197209167
H   H56       1.0  0.75182  0.12722  0.66024  1.0000 0.1197209167
H   H57       1.0  0.52133  0.35325  0.65186  1.0000 0.1358159048
H   H58       1.0  0.53226  0.34656  0.71689  1.0000 0.1197209167
H   H59       1.0  0.20255  0.37249  0.97479  1.0000 0.3835806077
H   H60       1.0  0.17523  0.55145  0.98329  1.0000 0.3835806077
H   H61       1.0  0.20811  0.63729  0.95932  1.0000 0.3880472568
H   H62       1.0  0.95816  0.76996  0.47221  1.0000 0.4078430546
H   H63       1.0  0.86847  0.80335  0.44221  1.0000 0.3973217694
H   H64       1.0  0.05590  0.82378  0.38598  1.0000 0.367484459
H   H65       1.0  0.13903  0.80311  0.41426  1.0000 0.3880472568
H   H66       1.0  0.48304  0.30666  0.12425  1.0000 0.1197209167
H   H67       1.0  0.22721  0.28237  0.05003  1.0000 0.1358159048
H   H68       1.0  0.24795  0.11161  0.15105  1.0000 0.112342527
H   H69       1.0  0.30884  0.15376  0.21145  1.0000 0.1197209167
H   H70       1.0  0.40332  0.08426  0.26738  1.0000 0.1197209167
H   H71       1.0  0.67462  0.10180  0.21769  1.0000 0.112342527
H   H72       1.0  0.58014  0.17130  0.16175  1.0000 0.1197209167
H   H73       1.0  0.50019  0.93233  0.30123  1.0000 0.112342527
H   H74       1.0  0.59689  0.86283  0.35673  1.0000 0.1264725079
H   H75       1.0  0.83885  0.05271  0.33333  1.0000 0.1197209167
H   H76       1.0  0.74215  0.12221  0.27780  1.0000 0.1038658929
H   H77       1.0  0.75972  0.29554  0.49415  1.0000 0.1264725079
H   H78       1.0  0.86045  0.17273  0.40447  1.0000 0.1264725079
H   H79       1.0  0.67112  0.43482  0.39008  1.0000 0.1264725079
H   H80       1.0  0.92218  0.27672  0.34707  1.0000 0.1197209167
H   H81       1.0  0.92327  0.29903  0.28223  1.0000 0.112342527
H   H82       1.0  0.61151  0.37679  0.27104  1.0000 0.1197209167
H   H83       1.0  0.61042  0.35448  0.33588  1.0000 0.1197209167
H   H84       1.0  0.87947  0.23725  0.22527  1.0000 0.1197209167
H   H85       1.0  0.87278  0.24818  0.16024  1.0000 0.1197209167
H   H86       1.0  0.64674  0.47867  0.15186  1.0000 0.1358159048
H   H87       1.0  0.65344  0.46774  0.21689  1.0000 0.1197209167
H   H88       1.0  0.37249  0.20255  0.52521  1.0000 0.3835806077
H   H89       1.0  0.55145  0.17523  0.51671  1.0000 0.3835806077
H   H90       1.0  0.63729  0.20811  0.54068  1.0000 0.3880472568
H   H91       1.0  0.76996  0.95816  0.02779  1.0000 0.4078430546
H   H92       1.0  0.80335  0.86847  0.05779  1.0000 0.3973217694
H   H93       1.0  0.82378  0.05590  0.11402  1.0000 0.367484459
H   H94       1.0  0.80311  0.13903  0.08574  1.0000 0.3880472568
H   H95       1.0  0.30666  0.48304  0.37575  1.0000 0.1197209167
H   H96       1.0  0.28237  0.22721  0.44997  1.0000 0.1358159048
H   H97       1.0  0.11161  0.24795  0.34895  1.0000 0.112342527
H   H98       1.0  0.15376  0.30884  0.28855  1.0000 0.1197209167
H   H99       1.0  0.08426  0.40332  0.23262  1.0000 0.1197209167
H   H100      1.0  0.10180  0.67462  0.28231  1.0000 0.112342527
H   H101      1.0  0.17130  0.58014  0.33825  1.0000 0.1197209167
H   H102      1.0  0.93233  0.50019  0.19877  1.0000 0.112342527
H   H103      1.0  0.86283  0.59689  0.14327  1.0000 0.1264725079
H   H104      1.0  0.05271  0.83885  0.16667  1.0000 0.1197209167
H   H105      1.0  0.12221  0.74215  0.22220  1.0000 0.1038658929
H   H106      1.0  0.29554  0.75972  0.00585  1.0000 0.1264725079
H   H107      1.0  0.17273  0.86045  0.09553  1.0000 0.1264725079
H   H108      1.0  0.43482  0.67112  0.10992  1.0000 0.1264725079
H   H109      1.0  0.27672  0.92218  0.15293  1.0000 0.1197209167
H   H110      1.0  0.29903  0.92327  0.21777  1.0000 0.112342527
H   H111      1.0  0.37679  0.61151  0.22896  1.0000 0.1197209167
H   H112      1.0  0.35448  0.61042  0.16412  1.0000 0.1197209167
H   H113      1.0  0.23725  0.87947  0.27473  1.0000 0.1197209167
H   H114      1.0  0.24818  0.87278  0.33976  1.0000 0.1197209167
H   H115      1.0  0.47867  0.64675  0.34814  1.0000 0.1358159048
H   H116      1.0  0.46774  0.65344  0.28311  1.0000 0.1197209167
C   C1        1.0  0.62530  0.79570  0.85660  1.0000 0.0711606399
C   C2        1.0  0.58260  0.72260  0.88210  1.0000 -0.1402518695
C   C3        1.0  0.63780  0.69340  0.91710  1.0000 -0.0379931542
C   C4        1.0  0.73580  0.73720  0.92660  1.0000 -0.0996974371
C   C5        1.0  0.77870  0.81030  0.90100  1.0000 -0.0041624922
C   C6        1.0  0.72350  0.83950  0.86600  1.0000 -0.1477267358
C   C7        1.0  0.59160  0.61980  0.94510  1.0000 0.6182083202
C   C8        1.0  0.88100  0.86540  0.91240  1.0000 0.5528317404
C   C9        1.0  0.56480  0.83060  0.81890  1.0000 0.078360619
C   C10       1.0  0.61780  0.85660  0.78730  1.0000 -0.1477267358
C   C11       1.0  0.56130  0.89830  0.75380  1.0000 -0.1477267358
C   C12       1.0  0.45170  0.91390  0.75190  1.0000 0.0711606399
C   C13       1.0  0.39870  0.88770  0.78360  1.0000 -0.1402518695
C   C14       1.0  0.45530  0.84610  0.81710  1.0000 -0.1402518695
C   C15       1.0  0.38840  0.96580  0.71600  1.0000 0.078360619
C   C16       1.0  0.43190  0.04350  0.69230  1.0000 -0.1402518695
C   C17       1.0  0.37400  0.08520  0.65910  1.0000 -0.0911188126
C   C18       1.0  0.27250  0.04910  0.64950  1.0000 -0.008151679
C   C19       1.0  0.22900  0.97140  0.67310  1.0000 -0.0911188126
C   C20       1.0  0.28700  0.92980  0.70640  1.0000 -0.1477267358
C   C21       1.0  0.20590  0.08890  0.61210  1.0000 0.5882887554
C   C22       1.0  0.23870  0.70230  0.53174  1.0000 -0.0996974371
C   C23       1.0  0.18070  0.77910  0.54680  1.0000 -0.070192984
C   C24       1.0  0.17830  0.77590  0.58550  1.0000 -0.1220317024
C   C25       1.0  0.23380  0.69560  0.60913  1.0000 0.0711606399
C   C26       1.0  0.29180  0.61880  0.59410  1.0000 -0.1402518695
C   C27       1.0  0.29410  0.62210  0.55540  1.0000 -0.0154905614
C   C28       1.0  0.35710  0.53590  0.54140  1.0000 0.5882887554
C   C29       1.0  0.12180  0.86200  0.52330  1.0000 0.6182083202
C   C30       1.0  0.23380  0.68660  0.65210  1.0000 0.078360619
C   C31       1.0  0.14010  0.70330  0.66820  1.0000 -0.1261849093
C   C32       1.0  0.13940  0.68980  0.70700  1.0000 -0.1402518695
C   C33       1.0  0.23250  0.65990  0.72980  1.0000 0.0711606399
C   C34       1.0  0.32620  0.64320  0.71370  1.0000 -0.1402518695
C   C35       1.0  0.32690  0.65670  0.67490  1.0000 -0.1402518695
C   C36       1.0  0.23280  0.64860  0.77250  1.0000 0.0711606399
C   C37       1.0  0.16720  0.71440  0.78940  1.0000 -0.1568593072
C   C38       1.0  0.17120  0.70780  0.82840  1.0000 -0.0996974371
C   C39       1.0  0.24090  0.63550  0.85040  1.0000 -0.0279088898
C   C40       1.0  0.30660  0.56980  0.83340  1.0000 -0.0911188126
C   C41       1.0  0.30260  0.57620  0.79450  1.0000 -0.1477267358
C   C42       1.0  0.24820  0.62640  0.89320  1.0000 0.5765157653
C   C43       1.0  0.79570  0.62530  0.64340  1.0000 0.0711606399
C   C44       1.0  0.72260  0.58260  0.61790  1.0000 -0.1402518695
C   C45       1.0  0.69340  0.63780  0.58290  1.0000 -0.0379931542
C   C46       1.0  0.73720  0.73580  0.57340  1.0000 -0.0996974371
C   C47       1.0  0.81030  0.77870  0.59900  1.0000 -0.0041624922
C   C48       1.0  0.83950  0.72350  0.63400  1.0000 -0.1477267358
C   C49       1.0  0.61980  0.59160  0.55490  1.0000 0.6182083202
C   C50       1.0  0.86540  0.88100  0.58760  1.0000 0.5528317404
C   C51       1.0  0.83060  0.56480  0.68110  1.0000 0.078360619
C   C52       1.0  0.85660  0.61780  0.71270  1.0000 -0.1477267358
C   C53       1.0  0.89830  0.56130  0.74620  1.0000 -0.1477267358
C   C54       1.0  0.91390  0.45170  0.74810  1.0000 0.0711606399
C   C55       1.0  0.88770  0.39870  0.71640  1.0000 -0.1402518695
C   C56       1.0  0.84610  0.45530  0.68290  1.0000 -0.1402518695
C   C57       1.0  0.96580  0.38840  0.78400  1.0000 0.078360619
C   C58       1.0  0.04350  0.43190  0.80770  1.0000 -0.1402518695
C   C59       1.0  0.08520  0.37400  0.84090  1.0000 -0.0911188126
C   C60       1.0  0.04910  0.27250  0.85050  1.0000 -0.008151679
C   C61       1.0  0.97140  0.22900  0.82690  1.0000 -0.0911188126
C   C62       1.0  0.92980  0.28700  0.79360  1.0000 -0.1477267358
C   C63       1.0  0.08890  0.20590  0.88790  1.0000 0.5882887554
C   C64       1.0  0.70230  0.23870  0.96826  1.0000 -0.0996974371
C   C65       1.0  0.77910  0.18070  0.95320  1.0000 -0.070192984
C   C66       1.0  0.77590  0.17830  0.91450  1.0000 -0.1220317024
C   C67       1.0  0.69560  0.23380  0.89087  1.0000 0.0711606399
C   C68       1.0  0.61880  0.29180  0.90590  1.0000 -0.1402518695
C   C69       1.0  0.62210  0.29410  0.94460  1.0000 -0.0154905614
C   C70       1.0  0.53590  0.35710  0.95860  1.0000 0.5882887554
C   C71       1.0  0.86200  0.12180  0.97670  1.0000 0.6182083202
C   C72       1.0  0.68660  0.23380  0.84790  1.0000 0.078360619
C   C73       1.0  0.70330  0.14010  0.83180  1.0000 -0.1261849093
C   C74       1.0  0.68980  0.13940  0.79300  1.0000 -0.1402518695
C   C75       1.0  0.65990  0.23250  0.77020  1.0000 0.0711606399
C   C76       1.0  0.64320  0.32620  0.78630  1.0000 -0.1402518695
C   C77       1.0  0.65670  0.32690  0.82510  1.0000 -0.1402518695
C   C78       1.0  0.64860  0.23280  0.72750  1.0000 0.0711606399
C   C79       1.0  0.71440  0.16720  0.71060  1.0000 -0.1568593072
C   C80       1.0  0.70780  0.17120  0.67160  1.0000 -0.0996974371
C   C81       1.0  0.63550  0.24090  0.64960  1.0000 -0.0279088898
C   C82       1.0  0.56980  0.30660  0.66667  1.0000 -0.0911188126
C   C83       1.0  0.57620  0.30260  0.70550  1.0000 -0.1477267358
C   C84       1.0  0.62640  0.24820  0.60680  1.0000 0.5765157653
C   C85       1.0  0.37470  0.20430  0.14340  1.0000 0.0711606399
C   C86       1.0  0.41740  0.27740  0.11790  1.0000 -0.1402518695
C   C87       1.0  0.36220  0.30660  0.08290  1.0000 -0.0379931542
C   C88       1.0  0.26420  0.26280  0.07340  1.0000 -0.0996974371
C   C89       1.0  0.22130  0.18970  0.09900  1.0000 -0.0041624922
C   C90       1.0  0.27650  0.16050  0.13400  1.0000 -0.1477267358
C   C91       1.0  0.40840  0.38020  0.05490  1.0000 0.6182083202
C   C92       1.0  0.11900  0.13460  0.08760  1.0000 0.5528317404
C   C93       1.0  0.43520  0.16940  0.18110  1.0000 0.078360619
C   C94       1.0  0.38220  0.14340  0.21270  1.0000 -0.1477267358
C   C95       1.0  0.43870  0.10170  0.24620  1.0000 -0.1477267358
C   C96       1.0  0.54830  0.08610  0.24810  1.0000 0.0711606399
C   C97       1.0  0.60130  0.11230  0.21640  1.0000 -0.1402518695
C   C98       1.0  0.54470  0.15390  0.18290  1.0000 -0.1402518695
C   C99       1.0  0.61160  0.03420  0.28400  1.0000 0.078360619
C   C100      1.0  0.56810  0.95650  0.30770  1.0000 -0.1402518695
C   C101      1.0  0.62600  0.91480  0.34090  1.0000 -0.0911188126
C   C102      1.0  0.72750  0.95090  0.35050  1.0000 -0.008151679
C   C103      1.0  0.77100  0.02860  0.32690  1.0000 -0.0911188126
C   C104      1.0  0.71300  0.07020  0.29360  1.0000 -0.1477267358
C   C105      1.0  0.79410  0.91110  0.38790  1.0000 0.5882887554
C   C106      1.0  0.76130  0.29770  0.46826  1.0000 -0.0996974371
C   C107      1.0  0.81930  0.22090  0.45320  1.0000 -0.070192984
C   C108      1.0  0.82170  0.22410  0.41450  1.0000 -0.1220317024
C   C109      1.0  0.76620  0.30440  0.39087  1.0000 0.0711606399
C   C110      1.0  0.70820  0.38120  0.40590  1.0000 -0.1402518695
C   C111      1.0  0.70590  0.37790  0.44460  1.0000 -0.0154905614
C   C112      1.0  0.64290  0.46410  0.45860  1.0000 0.5882887554
C   C113      1.0  0.87820  0.13800  0.47670  1.0000 0.6182083202
C   C114      1.0  0.76620  0.31340  0.34790  1.0000 0.078360619
C   C115      1.0  0.85990  0.29670  0.33180  1.0000 -0.1261849093
C   C116      1.0  0.86060  0.31020  0.29300  1.0000 -0.1402518695
C   C117      1.0  0.76750  0.34010  0.27020  1.0000 0.0711606399
C   C118      1.0  0.67380  0.35680  0.28630  1.0000 -0.1402518695
C   C119      1.0  0.67310  0.34330  0.32510  1.0000 -0.1402518695
C   C120      1.0  0.76720  0.35140  0.22750  1.0000 0.0711606399
C   C121      1.0  0.83280  0.28560  0.21060  1.0000 -0.1568593072
C   C122      1.0  0.82880  0.29220  0.17160  1.0000 -0.0996974371
C   C123      1.0  0.75910  0.36450  0.14960  1.0000 -0.0279088898
C   C124      1.0  0.69340  0.43020  0.16660  1.0000 -0.0911188126
C   C125      1.0  0.69740  0.42380  0.20550  1.0000 -0.1477267358
C   C126      1.0  0.75180  0.37360  0.10680  1.0000 0.5765157653
C   C127      1.0  0.20430  0.37470  0.35660  1.0000 0.0711606399
C   C128      1.0  0.27740  0.41740  0.38210  1.0000 -0.1402518695
C   C129      1.0  0.30660  0.36220  0.41710  1.0000 -0.0379931542
C   C130      1.0  0.26280  0.26420  0.42660  1.0000 -0.0996974371
C   C131      1.0  0.18970  0.22130  0.40100  1.0000 -0.0041624922
C   C132      1.0  0.16050  0.27650  0.36600  1.0000 -0.1477267358
C   C133      1.0  0.38020  0.40840  0.44510  1.0000 0.6182083202
C   C134      1.0  0.13460  0.11900  0.41240  1.0000 0.5528317404
C   C135      1.0  0.16940  0.43520  0.31890  1.0000 0.078360619
C   C136      1.0  0.14340  0.38220  0.28730  1.0000 -0.1477267358
C   C137      1.0  0.10170  0.43870  0.25380  1.0000 -0.1477267358
C   C138      1.0  0.08610  0.54830  0.25190  1.0000 0.0711606399
C   C139      1.0  0.11230  0.60130  0.28360  1.0000 -0.1402518695
C   C140      1.0  0.15390  0.54470  0.31710  1.0000 -0.1402518695
C   C141      1.0  0.03420  0.61160  0.21600  1.0000 0.078360619
C   C142      1.0  0.95650  0.56810  0.19230  1.0000 -0.1402518695
C   C143      1.0  0.91480  0.62600  0.15910  1.0000 -0.0911188126
C   C144      1.0  0.95090  0.72750  0.14950  1.0000 -0.008151679
C   C145      1.0  0.02860  0.77100  0.17310  1.0000 -0.0911188126
C   C146      1.0  0.07020  0.71300  0.20640  1.0000 -0.1477267358
C   C147      1.0  0.91110  0.79410  0.11210  1.0000 0.5882887554
C   C148      1.0  0.29770  0.76130  0.03174  1.0000 -0.0996974371
C   C149      1.0  0.22090  0.81930  0.04680  1.0000 -0.070192984
C   C150      1.0  0.22410  0.82170  0.08550  1.0000 -0.1220317024
C   C151      1.0  0.30440  0.76620  0.10913  1.0000 0.0711606399
C   C152      1.0  0.38120  0.70820  0.09410  1.0000 -0.1402518695
C   C153      1.0  0.37790  0.70590  0.05540  1.0000 -0.0154905614
C   C154      1.0  0.46410  0.64290  0.04140  1.0000 0.5882887554
C   C155      1.0  0.13800  0.87820  0.02330  1.0000 0.6182083202
C   C156      1.0  0.31340  0.76620  0.15210  1.0000 0.078360619
C   C157      1.0  0.29670  0.85990  0.16820  1.0000 -0.1261849093
C   C158      1.0  0.31020  0.86060  0.20700  1.0000 -0.1402518695
C   C159      1.0  0.34010  0.76750  0.22980  1.0000 0.0711606399
C   C160      1.0  0.35680  0.67380  0.21370  1.0000 -0.1402518695
C   C161      1.0  0.34330  0.67310  0.17490  1.0000 -0.1402518695
C   C162      1.0  0.35140  0.76720  0.27250  1.0000 0.0711606399
C   C163      1.0  0.28560  0.83280  0.28940  1.0000 -0.1568593072
C   C164      1.0  0.29220  0.82880  0.32840  1.0000 -0.0996974371
C   C165      1.0  0.36450  0.75910  0.35040  1.0000 -0.0279088898
C   C166      1.0  0.43020  0.69340  0.33340  1.0000 -0.0911188126
C   C167      1.0  0.42380  0.69740  0.29450  1.0000 -0.1477267358
C   C168      1.0  0.37360  0.75180  0.39320  1.0000 0.5765157653
O   O1        1.0  0.06570  0.93150  0.53700  1.0000 -0.6003422315
O   O2        1.0  0.12360  0.86580  0.48660  1.0000 -0.6432270097
O   O3        1.0  0.39380  0.54760  0.50990  1.0000 -0.6003422315
O   O4        1.0  0.37230  0.45010  0.56100  1.0000 -0.4860422599
O   O5        1.0  0.29570  0.54790  0.90910  1.0000 -0.5294558244
O   O6        1.0  0.20210  0.69650  0.90910  1.0000 -0.5572418856
O   O7        1.0  0.49580  0.59460  0.93850  1.0000 -0.5835214245
O   O8        1.0  0.65210  0.58410  0.97460  1.0000 -0.6003422315
O   O9        1.0  0.93810  0.83470  0.94190  1.0000 -0.5401755857
O   O10       1.0  0.90510  0.94690  0.89200  1.0000 -0.5739206212
O   O11       1.0  0.11810  0.05010  0.60610  1.0000 -0.6003422315
O   O12       1.0  0.24240  0.16740  0.59360  1.0000 -0.5034829664
O   O13       1.0  0.75130  0.63050  0.04090  1.0000 -0.806940912
O   O14       1.0  0.77170  0.40750  0.02120  1.0000 -0.6941424596
O   O15       1.0  0.08140  0.18380  0.54080  1.0000 -0.7186628567
O   O16       1.0  0.89790  0.14810  0.59940  1.0000 -0.6801687765
O   O17       1.0  0.93150  0.06570  0.96300  1.0000 -0.6003422315
O   O18       1.0  0.86580  0.12360  0.01340  1.0000 -0.6432270097
O   O19       1.0  0.54760  0.39380  0.99010  1.0000 -0.6003422315
O   O20       1.0  0.45010  0.37230  0.93900  1.0000 -0.4860422599
O   O21       1.0  0.54790  0.29570  0.59090  1.0000 -0.5294558244
O   O22       1.0  0.69650  0.20210  0.59090  1.0000 -0.5572418856
O   O23       1.0  0.59460  0.49580  0.56150  1.0000 -0.5835214245
O   O24       1.0  0.58410  0.65210  0.52540  1.0000 -0.6003422315
O   O25       1.0  0.83470  0.93810  0.55810  1.0000 -0.5401755857
O   O26       1.0  0.94690  0.90510  0.60800  1.0000 -0.5739206212
O   O27       1.0  0.05010  0.11810  0.89390  1.0000 -0.6003422315
O   O28       1.0  0.16740  0.24240  0.90640  1.0000 -0.5034829664
O   O29       1.0  0.63050  0.75130  0.45910  1.0000 -0.806940912
O   O30       1.0  0.40750  0.77170  0.47880  1.0000 -0.6941424596
O   O31       1.0  0.18380  0.08140  0.95920  1.0000 -0.7186628567
O   O32       1.0  0.14810  0.89790  0.90060  1.0000 -0.6801687765
O   O33       1.0  0.93430  0.06850  0.46300  1.0000 -0.6003422315
O   O34       1.0  0.87640  0.13420  0.51340  1.0000 -0.6432270097
O   O35       1.0  0.60620  0.45240  0.49010  1.0000 -0.6003422315
O   O36       1.0  0.62770  0.54990  0.43900  1.0000 -0.4860422599
O   O37       1.0  0.70430  0.45210  0.09090  1.0000 -0.5294558244
O   O38       1.0  0.79790  0.30350  0.09090  1.0000 -0.5572418856
O   O39       1.0  0.50420  0.40540  0.06150  1.0000 -0.5835214245
O   O40       1.0  0.34790  0.41590  0.02540  1.0000 -0.6003422315
O   O41       1.0  0.06190  0.16530  0.05810  1.0000 -0.5401755857
O   O42       1.0  0.09490  0.05310  0.10800  1.0000 -0.5739206212
O   O43       1.0  0.88190  0.94990  0.39390  1.0000 -0.6003422315
O   O44       1.0  0.75760  0.83260  0.40640  1.0000 -0.5034829664
O   O45       1.0  0.24870  0.36950  0.95910  1.0000 -0.806940912
O   O46       1.0  0.22830  0.59250  0.97880  1.0000 -0.6941424596
O   O47       1.0  0.91860  0.81620  0.45920  1.0000 -0.7186628567
O   O48       1.0  0.10210  0.85190  0.40060  1.0000 -0.6801687765
O   O49       1.0  0.06850  0.93430  0.03700  1.0000 -0.6003422315
O   O50       1.0  0.13420  0.87640  0.98660  1.0000 -0.6432270097
O   O51       1.0  0.45240  0.60620  0.00990  1.0000 -0.6003422315
O   O52       1.0  0.54990  0.62770  0.06100  1.0000 -0.4860422599
O   O53       1.0  0.45210  0.70430  0.40910  1.0000 -0.5294558244
O   O54       1.0  0.30350  0.79790  0.40910  1.0000 -0.5572418856
O   O55       1.0  0.40540  0.50420  0.43850  1.0000 -0.5835214245
O   O56       1.0  0.41590  0.34790  0.47460  1.0000 -0.6003422315
O   O57       1.0  0.16530  0.06190  0.44190  1.0000 -0.5401755857
O   O58       1.0  0.05310  0.09490  0.39200  1.0000 -0.5739206212
O   O59       1.0  0.94990  0.88190  0.10610  1.0000 -0.6003422315
O   O60       1.0  0.83260  0.75760  0.09360  1.0000 -0.5034829664
O   O61       1.0  0.36950  0.24870  0.54090  1.0000 -0.806940912
O   O62       1.0  0.59250  0.22830  0.52120  1.0000 -0.6941424596
O   O63       1.0  0.81620  0.91860  0.04080  1.0000 -0.7186628567
O   O64       1.0  0.85190  0.10210  0.09940  1.0000 -0.6801687765
