# DDEC6 charges by PACMAN v1.1 (https://github.com/mtap-research/PACMAN-charge/)
data_2020[Zn][sql]2[FSR]10
_chemical_formula_sum              "Zn2 H42 C56 N14 O12"
_cell_length_a       9.9638
_cell_length_b       10.9634
_cell_length_c       16.7723
_cell_angle_alpha    103.934
_cell_angle_beta     86.693
_cell_angle_gamma    109.664

_symmetry_space_group_name_H-M    "P 1"
_symmetry_Int_Tables_number       1

loop_
  _symmetry_equiv_pos_as_xyz
  'x, y, z'

loop_
  _atom_site_type_symbol
  _atom_site_label
  _atom_site_symmetry_multiplicity
  _atom_site_fract_x
  _atom_site_fract_y
  _atom_site_fract_z
  _atom_site_occupancy
  _atom_site_charge
Zn  Zn1       1.0  0.37953  0.56873  0.44085  1.0000 0.8083475945
Zn  Zn2       1.0  0.62047  0.43127  0.55915  1.0000 0.8083475945
H   H1        1.0  0.33444  0.64041  0.99181  1.0000 0.1207638323
H   H2        1.0  0.55355  0.25905  0.20635  1.0000 0.127281906
H   H3        1.0  0.34022  0.44922  0.89761  1.0000 0.1207638323
H   H4        1.0  0.63448  0.93336  0.07184  1.0000 0.1121885558
H   H5        1.0  0.73281  0.72483  0.30191  1.0000 0.1207638323
H   H6        1.0  0.14405  0.74847  0.25956  1.0000 0.1207638323
H   H7        1.0  0.56467  0.04640  0.61627  1.0000 0.139492439
H   H8        1.0  0.93950  0.59822  0.44922  1.0000 0.1207638323
H   H9        1.0  0.76624  0.61975  0.87601  1.0000 0.127281906
H   H10       1.0  0.16185  0.30542  0.35347  1.0000 0.1207638323
H   H11       1.0  0.64699  0.39714  0.78869  1.0000 0.1207638323
H   H12       1.0  0.76080  0.80994  0.97350  1.0000 0.127281906
H   H13       1.0  0.19767  0.81735  0.69526  1.0000 0.139492439
H   H14       1.0  0.56870  0.86087  0.51630  1.0000 0.1207638323
H   H15       1.0  0.21176  0.63873  0.59250  1.0000 0.1121885558
H   H16       1.0  0.56243  0.45515  0.29980  1.0000 0.1000441579
H   H17       1.0  0.13907  0.10728  0.25918  1.0000 0.139492439
H   H18       1.0  0.53800  0.19800  0.71640  1.0000 0.272869241
H   H19       1.0  0.52800  0.06300  0.14050  1.0000 0.2545809267
H   H20       1.0  0.86300  0.81400  0.19340  1.0000 0.2824688472
H   H21       1.0  0.00800  0.82600  0.18100  1.0000 0.2824688472
H   H22       1.0  0.66556  0.35959  0.00819  1.0000 0.1207638323
H   H23       1.0  0.44645  0.74095  0.79365  1.0000 0.127281906
H   H24       1.0  0.65978  0.55078  0.10239  1.0000 0.1207638323
H   H25       1.0  0.36552  0.06664  0.92816  1.0000 0.1121885558
H   H26       1.0  0.26719  0.27517  0.69809  1.0000 0.1207638323
H   H27       1.0  0.85595  0.25153  0.74044  1.0000 0.1207638323
H   H28       1.0  0.43533  0.95360  0.38373  1.0000 0.139492439
H   H29       1.0  0.06050  0.40178  0.55078  1.0000 0.1207638323
H   H30       1.0  0.23376  0.38025  0.12399  1.0000 0.127281906
H   H31       1.0  0.83815  0.69458  0.64653  1.0000 0.1207638323
H   H32       1.0  0.35301  0.60286  0.21131  1.0000 0.1207638323
H   H33       1.0  0.23920  0.19006  0.02650  1.0000 0.127281906
H   H34       1.0  0.80233  0.18265  0.30474  1.0000 0.139492439
H   H35       1.0  0.43130  0.13913  0.48370  1.0000 0.1207638323
H   H36       1.0  0.78824  0.36127  0.40750  1.0000 0.1121885558
H   H37       1.0  0.43757  0.54485  0.70020  1.0000 0.1000441579
H   H38       1.0  0.86093  0.89272  0.74082  1.0000 0.139492439
H   H39       1.0  0.46200  0.80200  0.28360  1.0000 0.272869241
H   H40       1.0  0.47200  0.93700  0.85950  1.0000 0.2545809267
H   H41       1.0  0.13700  0.18600  0.80660  1.0000 0.2824688472
H   H42       1.0  0.99200  0.17400  0.81900  1.0000 0.2824688472
C   C1        1.0  0.42250  0.63600  0.96866  1.0000 -0.1297494988
C   C2        1.0  0.47120  0.26570  0.23603  1.0000 -0.1878874781
C   C3        1.0  0.42570  0.52260  0.91257  1.0000 -0.1297494988
C   C4        1.0  0.54650  0.86680  0.05128  1.0000 -0.0109465857
C   C5        1.0  0.81670  0.71060  0.31559  1.0000 -0.2223212304
C   C6        1.0  0.36210  0.06440  0.73456  1.0000 0.423912358
C   C7        1.0  0.38010  0.95280  0.66712  1.0000 0.0228116173
C   C8        1.0  0.54700  0.74480  0.99198  1.0000 0.0781957084
C   C9        1.0  0.05990  0.72370  0.29002  1.0000 -0.225867446
C   C10       1.0  0.81780  0.65930  0.38331  1.0000 -0.0263615693
C   C11       1.0  0.19190  0.64490  0.37827  1.0000 0.5471626637
C   C12       1.0  0.55450  0.51480  0.87739  1.0000 0.0781957084
C   C13       1.0  0.49040  0.96360  0.61272  1.0000 -0.1775542567
C   C14       1.0  0.93930  0.63620  0.40395  1.0000 -0.1775542567
C   C15       1.0  0.68530  0.62310  0.43192  1.0000 0.5694735167
C   C16       1.0  0.67850  0.62340  0.90004  1.0000 -0.1413991036
C   C17       1.0  0.24300  0.29560  0.32360  1.0000 0.0781957084
C   C18       1.0  0.34520  0.15950  0.22325  1.0000 0.0228116173
C   C19       1.0  0.56190  0.39530  0.81774  1.0000 -0.0009169995
C   C20       1.0  0.67510  0.73710  0.95758  1.0000 -0.1413991036
C   C21       1.0  0.27520  0.82910  0.65883  1.0000 -0.1614470067
C   C22       1.0  0.49150  0.85220  0.55291  1.0000 0.0919696284
C   C23       1.0  0.93630  0.74190  0.26706  1.0000 0.2824688472
C   C24       1.0  0.32450  0.02970  0.16166  1.0000 0.438210499
C   C25       1.0  0.28410  0.72300  0.59726  1.0000 0.0781957084
C   C26       1.0  0.47570  0.38220  0.29280  1.0000 0.0919696284
C   C27       1.0  0.22860  0.17690  0.26750  1.0000 -0.1614470067
C   C28       1.0  0.06060  0.66970  0.35701  1.0000 -0.0109465857
C   C29       1.0  0.57750  0.36400  0.03134  1.0000 -0.1297494988
C   C30       1.0  0.52880  0.73430  0.76397  1.0000 -0.1878874781
C   C31       1.0  0.57430  0.47740  0.08743  1.0000 -0.1297494988
C   C32       1.0  0.45350  0.13320  0.94872  1.0000 -0.0109465857
C   C33       1.0  0.18330  0.28940  0.68441  1.0000 -0.2223212304
C   C34       1.0  0.63790  0.93560  0.26544  1.0000 0.423912358
C   C35       1.0  0.61990  0.04720  0.33288  1.0000 0.0228116173
C   C36       1.0  0.45300  0.25520  0.00802  1.0000 0.0781957084
C   C37       1.0  0.94010  0.27630  0.70998  1.0000 -0.225867446
C   C38       1.0  0.18220  0.34070  0.61669  1.0000 -0.0263615693
C   C39       1.0  0.80810  0.35510  0.62173  1.0000 0.5471626637
C   C40       1.0  0.44550  0.48520  0.12261  1.0000 0.0781957084
C   C41       1.0  0.50960  0.03640  0.38728  1.0000 -0.1775542567
C   C42       1.0  0.06070  0.36380  0.59605  1.0000 -0.1775542567
C   C43       1.0  0.31470  0.37690  0.56808  1.0000 0.5694735167
C   C44       1.0  0.32150  0.37660  0.09996  1.0000 -0.1413991036
C   C45       1.0  0.75700  0.70440  0.67640  1.0000 0.0781957084
C   C46       1.0  0.65480  0.84050  0.77675  1.0000 0.0228116173
C   C47       1.0  0.43810  0.60470  0.18226  1.0000 -0.0009169995
C   C48       1.0  0.32490  0.26290  0.04242  1.0000 -0.1413991036
C   C49       1.0  0.72480  0.17090  0.34117  1.0000 -0.1614470067
C   C50       1.0  0.50850  0.14780  0.44709  1.0000 0.0919696284
C   C51       1.0  0.06370  0.25810  0.73294  1.0000 0.2824688472
C   C52       1.0  0.67550  0.97030  0.83834  1.0000 0.438210499
C   C53       1.0  0.71590  0.27700  0.40274  1.0000 0.0781957084
C   C54       1.0  0.52430  0.61780  0.70720  1.0000 0.0919696284
C   C55       1.0  0.77140  0.82310  0.73250  1.0000 -0.1614470067
C   C56       1.0  0.93940  0.33030  0.64299  1.0000 -0.0109465857
N   N1        1.0  0.44310  0.00470  0.13214  1.0000 -0.2538535031
N   N2        1.0  0.36630  0.39809  0.33800  1.0000 -0.21017947
N   N3        1.0  0.42890  0.88510  0.07589  1.0000 -0.1297494988
N   N4        1.0  0.45370  0.28850  0.80484  1.0000 -0.1297494988
N   N5        1.0  0.47000  0.18230  0.74613  1.0000 -0.225867446
N   N6        1.0  0.39050  0.73410  0.54397  1.0000 -0.21017947
N   N7        1.0  0.93010  0.78210  0.19578  1.0000 -0.5887556853
N   N8        1.0  0.55690  0.99530  0.86786  1.0000 -0.2538535031
N   N9        1.0  0.63370  0.60191  0.66200  1.0000 -0.21017947
N   N10       1.0  0.57110  0.11490  0.92411  1.0000 -0.1297494988
N   N11       1.0  0.54630  0.71150  0.19516  1.0000 -0.1297494988
N   N12       1.0  0.53000  0.81770  0.25387  1.0000 -0.225867446
N   N13       1.0  0.60950  0.26590  0.45603  1.0000 -0.21017947
N   N14       1.0  0.06990  0.21790  0.80422  1.0000 -0.5887556853
O   O1        1.0  0.17598  0.55687  0.41814  1.0000 -0.537502754
O   O2        1.0  0.58189  0.65476  0.41339  1.0000 -0.5512038949
O   O3        1.0  0.20250  0.95300  0.13951  1.0000 -0.448185909
O   O4        1.0  0.68218  0.56200  0.48606  1.0000 -0.5568458917
O   O5        1.0  0.25600  0.04675  0.77652  1.0000 -0.4587872954
O   O6        1.0  0.31198  0.71005  0.35634  1.0000 -0.5887556853
O   O7        1.0  0.82402  0.44313  0.58186  1.0000 -0.537502754
O   O8        1.0  0.41811  0.34524  0.58661  1.0000 -0.5512038949
O   O9        1.0  0.79750  0.04700  0.86049  1.0000 -0.448185909
O   O10       1.0  0.31782  0.43800  0.51394  1.0000 -0.5568458917
O   O11       1.0  0.74400  0.95325  0.22348  1.0000 -0.4587872954
O   O12       1.0  0.68802  0.28995  0.64366  1.0000 -0.5887556853
