# DDEC6 charges by PACMAN v1.1 (https://github.com/mtap-research/PACMAN-charge/)
data_2020[YMn][nan]3[FSR]1
_chemical_formula_sum              "Y4 Mn6 H60 C84 N12 O60"
_cell_length_a       15.214
_cell_length_b       15.214
_cell_length_c       15.809
_cell_angle_alpha    90
_cell_angle_beta     90
_cell_angle_gamma    120

_symmetry_space_group_name_H-M    "P 1"
_symmetry_Int_Tables_number       1

loop_
  _symmetry_equiv_pos_as_xyz
  'x, y, z'

loop_
  _atom_site_type_symbol
  _atom_site_label
  _atom_site_symmetry_multiplicity
  _atom_site_fract_x
  _atom_site_fract_y
  _atom_site_fract_z
  _atom_site_occupancy
  _atom_site_charge
Y   Y1        1.0  0.66667  0.33333  0.24999  1.0000 1.5170021664
Y   Y2        1.0  0.33333  0.66667  0.75001  1.0000 1.5170021664
Y   Y3        1.0  0.33333  0.66667  0.24999  1.0000 1.5120919954
Y   Y4        1.0  0.66667  0.33333  0.75001  1.0000 1.5120919954
Mn  Mn1       1.0  0.50000  0.50000  0.00000  1.0000 1.0795629631
Mn  Mn2       1.0  0.50000  0.00000  0.00000  1.0000 1.0795629631
Mn  Mn3       1.0  0.00000  0.50000  0.00000  1.0000 1.0795629631
Mn  Mn4       1.0  0.50000  0.00000  0.50000  1.0000 1.0574279041
Mn  Mn5       1.0  0.00000  0.50000  0.50000  1.0000 1.0574279041
Mn  Mn6       1.0  0.50000  0.50000  0.50000  1.0000 1.0574279041
H   H1        1.0  0.29000  0.05625  0.34336  1.0000 0.1386839932
H   H2        1.0  0.20084  0.10047  0.25006  1.0000 0.1104803808
H   H3        1.0  0.28988  0.23371  0.15683  1.0000 0.1386839932
H   H4        1.0  0.71014  0.76670  0.15634  1.0000 0.1386839932
H   H5        1.0  0.79913  0.89949  0.25042  1.0000 0.1104803808
H   H6        1.0  0.70982  0.94342  0.34352  1.0000 0.1386839932
H   H7        1.0  0.34700  0.52400  0.05000  1.0000 0.3819586919
H   H8        1.0  0.34600  0.51900  0.95600  1.0000 0.3819586919
H   H9        1.0  0.65200  0.17500  0.54800  1.0000 0.3024019163
H   H10       1.0  0.65500  0.16900  0.46700  1.0000 0.2830821486
H   H11       1.0  0.94375  0.23375  0.34336  1.0000 0.1386839932
H   H12       1.0  0.89953  0.10037  0.25006  1.0000 0.1104803808
H   H13       1.0  0.76629  0.05617  0.15683  1.0000 0.1386839932
H   H14       1.0  0.23330  0.94344  0.15634  1.0000 0.1386839932
H   H15       1.0  0.10051  0.89964  0.25042  1.0000 0.1104803808
H   H16       1.0  0.05658  0.76640  0.34352  1.0000 0.1386839932
H   H17       1.0  0.47600  0.82300  0.05000  1.0000 0.3819586919
H   H18       1.0  0.48100  0.82700  0.95600  1.0000 0.3819586919
H   H19       1.0  0.82500  0.47700  0.54800  1.0000 0.3024019163
H   H20       1.0  0.83100  0.48600  0.46700  1.0000 0.2830821486
H   H21       1.0  0.76625  0.71000  0.34336  1.0000 0.1386839932
H   H22       1.0  0.89963  0.79916  0.25006  1.0000 0.1104803808
H   H23       1.0  0.94383  0.71012  0.15683  1.0000 0.1386839932
H   H24       1.0  0.05656  0.28986  0.15634  1.0000 0.1386839932
H   H25       1.0  0.10036  0.20087  0.25042  1.0000 0.1104803808
H   H26       1.0  0.23360  0.29018  0.34352  1.0000 0.1386839932
H   H27       1.0  0.17700  0.65300  0.05000  1.0000 0.3819586919
H   H28       1.0  0.17300  0.65400  0.95600  1.0000 0.3819586919
H   H29       1.0  0.52300  0.34800  0.54800  1.0000 0.3024019163
H   H30       1.0  0.51400  0.34500  0.46700  1.0000 0.2830821486
H   H31       1.0  0.71000  0.94375  0.65664  1.0000 0.1386839932
H   H32       1.0  0.79916  0.89953  0.74994  1.0000 0.1104803808
H   H33       1.0  0.71012  0.76629  0.84317  1.0000 0.1386839932
H   H34       1.0  0.28986  0.23330  0.84366  1.0000 0.1386839932
H   H35       1.0  0.20087  0.10051  0.74958  1.0000 0.1104803808
H   H36       1.0  0.29018  0.05658  0.65648  1.0000 0.1386839932
H   H37       1.0  0.65300  0.47600  0.95000  1.0000 0.3819586919
H   H38       1.0  0.65400  0.48100  0.04400  1.0000 0.3819586919
H   H39       1.0  0.34800  0.82500  0.45200  1.0000 0.3024019163
H   H40       1.0  0.34500  0.83100  0.53300  1.0000 0.2830821486
H   H41       1.0  0.05625  0.76625  0.65664  1.0000 0.1386839932
H   H42       1.0  0.10047  0.89963  0.74994  1.0000 0.1104803808
H   H43       1.0  0.23371  0.94383  0.84317  1.0000 0.1386839932
H   H44       1.0  0.76670  0.05656  0.84366  1.0000 0.1386839932
H   H45       1.0  0.89949  0.10036  0.74958  1.0000 0.1104803808
H   H46       1.0  0.94342  0.23360  0.65648  1.0000 0.1386839932
H   H47       1.0  0.52400  0.17700  0.95000  1.0000 0.3819586919
H   H48       1.0  0.51900  0.17300  0.04400  1.0000 0.3819586919
H   H49       1.0  0.17500  0.52300  0.45200  1.0000 0.3024019163
H   H50       1.0  0.16900  0.51400  0.53300  1.0000 0.2830821486
H   H51       1.0  0.23375  0.29000  0.65664  1.0000 0.1386839932
H   H52       1.0  0.10037  0.20084  0.74994  1.0000 0.1104803808
H   H53       1.0  0.05617  0.28988  0.84317  1.0000 0.1386839932
H   H54       1.0  0.94344  0.71014  0.84366  1.0000 0.1386839932
H   H55       1.0  0.89964  0.79913  0.74958  1.0000 0.1104803808
H   H56       1.0  0.76640  0.70982  0.65648  1.0000 0.1386839932
H   H57       1.0  0.82300  0.34700  0.95000  1.0000 0.3819586919
H   H58       1.0  0.82700  0.34600  0.04400  1.0000 0.3819586919
H   H59       1.0  0.47700  0.65200  0.45200  1.0000 0.3024019163
H   H60       1.0  0.48600  0.65500  0.53300  1.0000 0.2830821486
C   C1        1.0  0.49400  0.14100  0.35990  1.0000 0.5593504652
C   C2        1.0  0.42860  0.16290  0.30300  1.0000 0.1211542833
C   C3        1.0  0.32420  0.10930  0.30530  1.0000 -0.1364700336
C   C4        1.0  0.27140  0.13570  0.25000  1.0000 -0.05576482
C   C5        1.0  0.32410  0.21480  0.19480  1.0000 -0.1364700336
C   C6        1.0  0.42870  0.26570  0.19680  1.0000 0.1211542833
C   C7        1.0  0.49390  0.35320  0.14020  1.0000 0.5593504652
C   C8        1.0  0.50610  0.64700  0.14020  1.0000 0.5593504652
C   C9        1.0  0.57130  0.73420  0.19700  1.0000 0.1211542833
C   C10       1.0  0.67590  0.78520  0.19460  1.0000 -0.1364700336
C   C11       1.0  0.72850  0.86420  0.25020  1.0000 -0.0545387034
C   C12       1.0  0.67560  0.89040  0.30540  1.0000 -0.1364700336
C   C13       1.0  0.57130  0.83710  0.30330  1.0000 0.1104803808
C   C14       1.0  0.50600  0.85900  0.35960  1.0000 0.5538279425
C   C15       1.0  0.85900  0.35300  0.35990  1.0000 0.5593504652
C   C16       1.0  0.83710  0.26570  0.30300  1.0000 0.1211542833
C   C17       1.0  0.89070  0.21490  0.30530  1.0000 -0.1364700336
C   C18       1.0  0.86430  0.13570  0.25000  1.0000 -0.05576482
C   C19       1.0  0.78520  0.10930  0.19480  1.0000 -0.1364700336
C   C20       1.0  0.73430  0.16300  0.19680  1.0000 0.1211542833
C   C21       1.0  0.64680  0.14070  0.14020  1.0000 0.5593504652
C   C22       1.0  0.35300  0.85910  0.14020  1.0000 0.5593504652
C   C23       1.0  0.26580  0.83710  0.19700  1.0000 0.1211542833
C   C24       1.0  0.21480  0.89070  0.19460  1.0000 -0.1364700336
C   C25       1.0  0.13580  0.86430  0.25020  1.0000 -0.05576482
C   C26       1.0  0.10960  0.78520  0.30540  1.0000 -0.1364700336
C   C27       1.0  0.16290  0.73420  0.30330  1.0000 0.1104803808
C   C28       1.0  0.14100  0.64700  0.35960  1.0000 0.5538279425
C   C29       1.0  0.64700  0.50600  0.35990  1.0000 0.5593504652
C   C30       1.0  0.73430  0.57140  0.30300  1.0000 0.1211542833
C   C31       1.0  0.78510  0.67580  0.30530  1.0000 -0.1364700336
C   C32       1.0  0.86430  0.72860  0.25000  1.0000 -0.05576482
C   C33       1.0  0.89070  0.67590  0.19480  1.0000 -0.1364700336
C   C34       1.0  0.83700  0.57130  0.19680  1.0000 0.1211542833
C   C35       1.0  0.85930  0.50610  0.14020  1.0000 0.5593504652
C   C36       1.0  0.14090  0.49390  0.14020  1.0000 0.5593504652
C   C37       1.0  0.16290  0.42870  0.19700  1.0000 0.1211542833
C   C38       1.0  0.10930  0.32410  0.19460  1.0000 -0.1364700336
C   C39       1.0  0.13570  0.27150  0.25020  1.0000 -0.05576482
C   C40       1.0  0.21480  0.32440  0.30540  1.0000 -0.1364700336
C   C41       1.0  0.26580  0.42870  0.30330  1.0000 0.1104803808
C   C42       1.0  0.35300  0.49400  0.35960  1.0000 0.5538279425
C   C43       1.0  0.50600  0.85900  0.64010  1.0000 0.5593504652
C   C44       1.0  0.57140  0.83710  0.69700  1.0000 0.1211542833
C   C45       1.0  0.67580  0.89070  0.69470  1.0000 -0.1364700336
C   C46       1.0  0.72860  0.86430  0.75000  1.0000 -0.05576482
C   C47       1.0  0.67590  0.78520  0.80520  1.0000 -0.1364700336
C   C48       1.0  0.57130  0.73430  0.80320  1.0000 0.1211542833
C   C49       1.0  0.50610  0.64680  0.85980  1.0000 0.5593504652
C   C50       1.0  0.49390  0.35300  0.85980  1.0000 0.5593504652
C   C51       1.0  0.42870  0.26580  0.80300  1.0000 0.1211542833
C   C52       1.0  0.32410  0.21480  0.80540  1.0000 -0.1364700336
C   C53       1.0  0.27150  0.13580  0.74980  1.0000 -0.05576482
C   C54       1.0  0.32440  0.10960  0.69460  1.0000 -0.1342344571
C   C55       1.0  0.42870  0.16290  0.69670  1.0000 0.1104803808
C   C56       1.0  0.49400  0.14100  0.64040  1.0000 0.5538279425
C   C57       1.0  0.14100  0.64700  0.64010  1.0000 0.5593504652
C   C58       1.0  0.16290  0.73430  0.69700  1.0000 0.1211542833
C   C59       1.0  0.10930  0.78510  0.69470  1.0000 -0.1364700336
C   C60       1.0  0.13570  0.86430  0.75000  1.0000 -0.05576482
C   C61       1.0  0.21480  0.89070  0.80520  1.0000 -0.1364700336
C   C62       1.0  0.26570  0.83700  0.80320  1.0000 0.1211542833
C   C63       1.0  0.35320  0.85930  0.85980  1.0000 0.5593504652
C   C64       1.0  0.64700  0.14090  0.85980  1.0000 0.5593504652
C   C65       1.0  0.73420  0.16290  0.80300  1.0000 0.1211542833
C   C66       1.0  0.78520  0.10930  0.80540  1.0000 -0.1364700336
C   C67       1.0  0.86420  0.13570  0.74980  1.0000 -0.05576482
C   C68       1.0  0.89040  0.21480  0.69460  1.0000 -0.1342344571
C   C69       1.0  0.83710  0.26580  0.69670  1.0000 0.1104803808
C   C70       1.0  0.85900  0.35300  0.64040  1.0000 0.5538279425
C   C71       1.0  0.35300  0.49400  0.64010  1.0000 0.5593504652
C   C72       1.0  0.26570  0.42860  0.69700  1.0000 0.1211542833
C   C73       1.0  0.21490  0.32420  0.69470  1.0000 -0.1364700336
C   C74       1.0  0.13570  0.27140  0.75000  1.0000 -0.05576482
C   C75       1.0  0.10930  0.32410  0.80520  1.0000 -0.1364700336
C   C76       1.0  0.16300  0.42870  0.80320  1.0000 0.1211542833
C   C77       1.0  0.14070  0.49390  0.85980  1.0000 0.5593504652
C   C78       1.0  0.85910  0.50610  0.85980  1.0000 0.5593504652
C   C79       1.0  0.83710  0.57130  0.80300  1.0000 0.1211542833
C   C80       1.0  0.89070  0.67590  0.80540  1.0000 -0.1364700336
C   C81       1.0  0.86430  0.72850  0.74980  1.0000 -0.05576482
C   C82       1.0  0.78520  0.67560  0.69460  1.0000 -0.1342344571
C   C83       1.0  0.73420  0.57130  0.69670  1.0000 0.1104803808
C   C84       1.0  0.64700  0.50600  0.64040  1.0000 0.5538279425
N   N1        1.0  0.47970  0.23987  0.24986  1.0000 -0.2880249102
N   N2        1.0  0.52010  0.76007  0.24998  1.0000 -0.2880249102
N   N3        1.0  0.76013  0.23983  0.24986  1.0000 -0.2844835211
N   N4        1.0  0.23993  0.76003  0.24998  1.0000 -0.2880249102
N   N5        1.0  0.76017  0.52030  0.24986  1.0000 -0.2880249102
N   N6        1.0  0.23997  0.47990  0.24998  1.0000 -0.2880249102
N   N7        1.0  0.52030  0.76013  0.75014  1.0000 -0.2880249102
N   N8        1.0  0.47990  0.23993  0.75002  1.0000 -0.2880249102
N   N9        1.0  0.23987  0.76017  0.75014  1.0000 -0.2844835211
N   N10       1.0  0.76007  0.23997  0.75002  1.0000 -0.2880249102
N   N11       1.0  0.23983  0.47970  0.75014  1.0000 -0.2880249102
N   N12       1.0  0.76003  0.52010  0.75002  1.0000 -0.2880249102
O   O1        1.0  0.58851  0.20102  0.35478  1.0000 -0.5575472453
O   O2        1.0  0.45030  0.06610  0.40692  1.0000 -0.5406615425
O   O3        1.0  0.58863  0.38746  0.14509  1.0000 -0.5736064651
O   O4        1.0  0.45040  0.38400  0.09300  1.0000 -0.5406615425
O   O5        1.0  0.54960  0.61590  0.09291  1.0000 -0.5406615425
O   O6        1.0  0.41134  0.61246  0.14529  1.0000 -0.5736064651
O   O7        1.0  0.41148  0.79897  0.35475  1.0000 -0.5575472453
O   O8        1.0  0.54960  0.93380  0.40685  1.0000 -0.5406615425
O   O9        1.0  0.34572  0.48960  0.00004  1.0000 -0.7006599296
O   O10       1.0  0.65420  0.14360  0.50030  1.0000 -0.5525437284
O   O11       1.0  0.79898  0.38749  0.35478  1.0000 -0.5575472453
O   O12       1.0  0.93390  0.38420  0.40692  1.0000 -0.5406615425
O   O13       1.0  0.61254  0.20117  0.14509  1.0000 -0.5736064651
O   O14       1.0  0.61600  0.06640  0.09300  1.0000 -0.5406615425
O   O15       1.0  0.38410  0.93370  0.09291  1.0000 -0.5406615425
O   O16       1.0  0.38754  0.79888  0.14529  1.0000 -0.5736064651
O   O17       1.0  0.20103  0.61251  0.35475  1.0000 -0.5575472453
O   O18       1.0  0.06620  0.61580  0.40685  1.0000 -0.5406615425
O   O19       1.0  0.51040  0.85612  0.00004  1.0000 -0.7006599296
O   O20       1.0  0.85640  0.51060  0.50030  1.0000 -0.5525437284
O   O21       1.0  0.61251  0.41149  0.35478  1.0000 -0.5575472453
O   O22       1.0  0.61580  0.54970  0.40692  1.0000 -0.5406615425
O   O23       1.0  0.79883  0.41137  0.14509  1.0000 -0.5736064651
O   O24       1.0  0.93360  0.54960  0.09300  1.0000 -0.5406615425
O   O25       1.0  0.06630  0.45040  0.09291  1.0000 -0.5406615425
O   O26       1.0  0.20112  0.58866  0.14529  1.0000 -0.5736064651
O   O27       1.0  0.38749  0.58852  0.35475  1.0000 -0.5575472453
O   O28       1.0  0.38420  0.45040  0.40685  1.0000 -0.5406615425
O   O29       1.0  0.14388  0.65428  0.00004  1.0000 -0.7006599296
O   O30       1.0  0.48940  0.34580  0.50030  1.0000 -0.5525437284
O   O31       1.0  0.41149  0.79898  0.64522  1.0000 -0.5575472453
O   O32       1.0  0.54970  0.93390  0.59308  1.0000 -0.5406615425
O   O33       1.0  0.41137  0.61254  0.85491  1.0000 -0.5736064651
O   O34       1.0  0.54960  0.61600  0.90700  1.0000 -0.5406615425
O   O35       1.0  0.45040  0.38410  0.90709  1.0000 -0.5406615425
O   O36       1.0  0.58866  0.38754  0.85471  1.0000 -0.5736064651
O   O37       1.0  0.58852  0.20103  0.64525  1.0000 -0.5575472453
O   O38       1.0  0.45040  0.06620  0.59315  1.0000 -0.5406615425
O   O39       1.0  0.65428  0.51040  0.99996  1.0000 -0.7006599296
O   O40       1.0  0.34580  0.85640  0.49970  1.0000 -0.5525437284
O   O41       1.0  0.20102  0.61251  0.64522  1.0000 -0.5575472453
O   O42       1.0  0.06610  0.61580  0.59308  1.0000 -0.5406615425
O   O43       1.0  0.38746  0.79883  0.85491  1.0000 -0.5736064651
O   O44       1.0  0.38400  0.93360  0.90700  1.0000 -0.5406615425
O   O45       1.0  0.61590  0.06630  0.90709  1.0000 -0.5406615425
O   O46       1.0  0.61246  0.20112  0.85471  1.0000 -0.5736064651
O   O47       1.0  0.79897  0.38749  0.64525  1.0000 -0.5575472453
O   O48       1.0  0.93380  0.38420  0.59315  1.0000 -0.5406615425
O   O49       1.0  0.48960  0.14388  0.99996  1.0000 -0.7006599296
O   O50       1.0  0.14360  0.48940  0.49970  1.0000 -0.5525437284
O   O51       1.0  0.38749  0.58851  0.64522  1.0000 -0.5575472453
O   O52       1.0  0.38420  0.45030  0.59308  1.0000 -0.5406615425
O   O53       1.0  0.20117  0.58863  0.85491  1.0000 -0.5736064651
O   O54       1.0  0.06640  0.45040  0.90700  1.0000 -0.5406615425
O   O55       1.0  0.93370  0.54960  0.90709  1.0000 -0.5406615425
O   O56       1.0  0.79888  0.41134  0.85471  1.0000 -0.5736064651
O   O57       1.0  0.61251  0.41148  0.64525  1.0000 -0.5575472453
O   O58       1.0  0.61580  0.54960  0.59315  1.0000 -0.5406615425
O   O59       1.0  0.85612  0.34572  0.99996  1.0000 -0.7006599296
O   O60       1.0  0.51060  0.65420  0.49970  1.0000 -0.5525437284
