# DDEC6 charges by PACMAN v1.1 (https://github.com/mtap-research/PACMAN-charge/)
data_2020[Mg][nan]3[FSR]7
_chemical_formula_sum              "Mg9 H36 C63 O45"
_cell_length_a       15.1292
_cell_length_b       15.1292
_cell_length_c       10.2786
_cell_angle_alpha    90
_cell_angle_beta     90
_cell_angle_gamma    120

_symmetry_space_group_name_H-M    "P 1"
_symmetry_Int_Tables_number       1

loop_
  _symmetry_equiv_pos_as_xyz
  'x, y, z'

loop_
  _atom_site_type_symbol
  _atom_site_label
  _atom_site_symmetry_multiplicity
  _atom_site_fract_x
  _atom_site_fract_y
  _atom_site_fract_z
  _atom_site_occupancy
  _atom_site_charge
Mg  Mg1       1.0  0.99483  0.01769  0.03954  1.0000 1.308203882
Mg  Mg2       1.0  0.36765  0.69418  0.09213  1.0000 1.3161768377
Mg  Mg3       1.0  0.64755  0.31841  0.51122  1.0000 1.3012628019
Mg  Mg4       1.0  0.02286  0.00517  0.70621  1.0000 1.308203882
Mg  Mg5       1.0  0.32653  0.63235  0.75880  1.0000 1.3161768377
Mg  Mg6       1.0  0.67086  0.35245  0.17789  1.0000 1.3012628019
Mg  Mg7       1.0  0.98231  0.97714  0.37287  1.0000 1.308203882
Mg  Mg8       1.0  0.30582  0.67347  0.42546  1.0000 1.3161768377
Mg  Mg9       1.0  0.68159  0.32914  0.84455  1.0000 1.3012628019
H   H1        1.0  0.67758  0.78855  0.66187  1.0000 0.1420025215
H   H2        1.0  0.71815  0.91386  0.02646  1.0000 0.1303857128
H   H3        1.0  0.49654  0.66134  0.61649  1.0000 0.3610882819
H   H4        1.0  0.57246  0.85493  0.14899  1.0000 0.348522997
H   H5        1.0  0.56528  0.58549  0.13579  1.0000 0.1420025215
H   H6        1.0  0.46558  0.51198  0.51281  1.0000 0.1303857128
H   H7        1.0  0.67251  0.51543  0.06646  1.0000 0.3610882819
H   H8        1.0  0.52791  0.40639  0.61878  1.0000 0.3692254931
H   H9        1.0  0.32640  0.23754  0.14393  1.0000 0.1500198156
H   H10       1.0  0.39468  0.19179  0.77050  1.0000 0.1303857128
H   H11       1.0  0.14192  0.16442  0.18003  1.0000 0.3692254931
H   H12       1.0  0.23931  0.09636  0.63353  1.0000 0.3610882819
H   H13       1.0  0.11097  0.32242  0.32854  1.0000 0.1420025215
H   H14       1.0  0.19571  0.28185  0.69313  1.0000 0.1303857128
H   H15       1.0  0.16480  0.50346  0.28316  1.0000 0.3610882819
H   H16       1.0  0.28247  0.42754  0.81566  1.0000 0.348522997
H   H17       1.0  0.02021  0.43472  0.80246  1.0000 0.1420025215
H   H18       1.0  0.04640  0.53442  0.17948  1.0000 0.1303857128
H   H19       1.0  0.84292  0.32749  0.73313  1.0000 0.3610882819
H   H20       1.0  0.87848  0.47209  0.28545  1.0000 0.3692254931
H   H21       1.0  0.91114  0.67360  0.81060  1.0000 0.1500198156
H   H22       1.0  0.79711  0.60532  0.43717  1.0000 0.1303857128
H   H23       1.0  0.02250  0.85808  0.84670  1.0000 0.3692254931
H   H24       1.0  0.85705  0.76069  0.30020  1.0000 0.3610882819
H   H25       1.0  0.21145  0.88903  0.99520  1.0000 0.1420025215
H   H26       1.0  0.08614  0.80429  0.35979  1.0000 0.1303857128
H   H27       1.0  0.33866  0.83520  0.94982  1.0000 0.3610882819
H   H28       1.0  0.14507  0.71753  0.48232  1.0000 0.348522997
H   H29       1.0  0.41451  0.97979  0.46912  1.0000 0.1420025215
H   H30       1.0  0.48802  0.95360  0.84614  1.0000 0.1303857128
H   H31       1.0  0.48457  0.15708  0.39979  1.0000 0.3610882819
H   H32       1.0  0.59361  0.12152  0.95211  1.0000 0.3692254931
H   H33       1.0  0.76246  0.08886  0.47726  1.0000 0.1500198156
H   H34       1.0  0.80821  0.20289  0.10383  1.0000 0.1303857128
H   H35       1.0  0.83558  0.97750  0.51336  1.0000 0.3692254931
H   H36       1.0  0.90364  0.14295  0.96686  1.0000 0.3610882819
C   C1        1.0  0.71322  0.85999  0.84069  1.0000 0.0196945749
C   C2        1.0  0.64927  0.79345  0.74554  1.0000 -0.2913775299
C   C3        1.0  0.54516  0.73385  0.76907  1.0000 0.2190454173
C   C4        1.0  0.50500  0.74079  0.88775  1.0000 0.0969222422
C   C5        1.0  0.56896  0.80735  0.98290  1.0000 0.2190454173
C   C6        1.0  0.67306  0.86694  0.95937  1.0000 -0.2913775299
C   C7        1.0  0.82725  0.92527  0.81491  1.0000 0.5978555541
C   C8        1.0  0.50778  0.55667  0.32261  1.0000 0.0097610331
C   C9        1.0  0.56295  0.55131  0.21777  1.0000 -0.2847222626
C   C10       1.0  0.61482  0.49748  0.22922  1.0000 0.2190454173
C   C11       1.0  0.61151  0.44900  0.34550  1.0000 0.0900475654
C   C12       1.0  0.55635  0.45437  0.45033  1.0000 0.2190454173
C   C13       1.0  0.50448  0.50820  0.43889  1.0000 -0.2999676555
C   C14       1.0  0.45097  0.61564  0.31008  1.0000 0.6069780648
C   C15       1.0  0.37615  0.22242  0.96188  1.0000 0.0196945749
C   C16       1.0  0.30405  0.21005  0.05617  1.0000 -0.2999676555
C   C17       1.0  0.20002  0.15842  0.02508  1.0000 0.2334881038
C   C18       1.0  0.16808  0.11914  0.89971  1.0000 0.0900475654
C   C19       1.0  0.24018  0.13150  0.80542  1.0000 0.2190454173
C   C20       1.0  0.34421  0.18314  0.83651  1.0000 -0.3154524207
C   C21       1.0  0.48984  0.27885  0.99585  1.0000 0.5978555541
C   C22       1.0  0.14677  0.28678  0.50736  1.0000 0.0196945749
C   C23       1.0  0.14418  0.35073  0.41221  1.0000 -0.2913775299
C   C24       1.0  0.18869  0.45484  0.43574  1.0000 0.2190454173
C   C25       1.0  0.23579  0.49500  0.55442  1.0000 0.0969222422
C   C26       1.0  0.23839  0.43104  0.64957  1.0000 0.2190454173
C   C27       1.0  0.19388  0.32694  0.62604  1.0000 -0.2913775299
C   C28       1.0  0.09802  0.17275  0.48158  1.0000 0.5978555541
C   C29       1.0  0.04889  0.49222  0.98928  1.0000 0.0097610331
C   C30       1.0  0.98836  0.43705  0.88444  1.0000 -0.2913775299
C   C31       1.0  0.88266  0.38518  0.89589  1.0000 0.2190454173
C   C32       1.0  0.83749  0.38849  0.01217  1.0000 0.0900475654
C   C33       1.0  0.89802  0.44365  0.11700  1.0000 0.2190454173
C   C34       1.0  0.00372  0.49552  0.10556  1.0000 -0.2999676555
C   C35       1.0  0.16467  0.54903  0.97675  1.0000 0.6069780648
C   C36       1.0  0.84627  0.62385  0.62855  1.0000 0.0196945749
C   C37       1.0  0.90600  0.69595  0.72284  1.0000 -0.2999676555
C   C38       1.0  0.95840  0.79998  0.69175  1.0000 0.2334881038
C   C39       1.0  0.95106  0.83192  0.56638  1.0000 0.0900475654
C   C40       1.0  0.89132  0.75982  0.47209  1.0000 0.2190454173
C   C41       1.0  0.83893  0.65579  0.50318  1.0000 -0.3149787127
C   C42       1.0  0.78901  0.51016  0.66252  1.0000 0.5978555541
C   C43       1.0  0.14001  0.85323  0.17402  1.0000 0.0196945749
C   C44       1.0  0.20655  0.85582  0.07887  1.0000 -0.2913775299
C   C45       1.0  0.26615  0.81131  0.10240  1.0000 0.2190454173
C   C46       1.0  0.25921  0.76421  0.22108  1.0000 0.0969222422
C   C47       1.0  0.19265  0.76161  0.31623  1.0000 0.2190454173
C   C48       1.0  0.13306  0.80612  0.29270  1.0000 -0.2913775299
C   C49       1.0  0.07473  0.90198  0.14824  1.0000 0.5978555541
C   C50       1.0  0.44333  0.95111  0.65594  1.0000 0.0097610331
C   C51       1.0  0.44869  0.01164  0.55110  1.0000 -0.2847222626
C   C52       1.0  0.50252  0.11734  0.56255  1.0000 0.2190454173
C   C53       1.0  0.55100  0.16251  0.67883  1.0000 0.0900475654
C   C54       1.0  0.54563  0.10198  0.78366  1.0000 0.2190454173
C   C55       1.0  0.49180  0.99628  0.77222  1.0000 -0.2999676555
C   C56       1.0  0.38436  0.83533  0.64341  1.0000 0.6069780648
C   C57       1.0  0.77758  0.15373  0.29521  1.0000 0.0196945749
C   C58       1.0  0.78995  0.09400  0.38950  1.0000 -0.2999676555
C   C59       1.0  0.84158  0.04160  0.35841  1.0000 0.2334881038
C   C60       1.0  0.88086  0.04894  0.23304  1.0000 0.0900475654
C   C61       1.0  0.86850  0.10868  0.13875  1.0000 0.2144649685
C   C62       1.0  0.81686  0.16107  0.16984  1.0000 -0.3149787127
C   C63       1.0  0.72115  0.21099  0.32918  1.0000 0.5978555541
O   O1        1.0  0.88931  0.94822  0.90634  1.0000 -0.6563271224
O   O2        1.0  0.85872  0.95587  0.70235  1.0000 -0.603381429
O   O3        1.0  0.47838  0.66897  0.68661  1.0000 -0.4533762574
O   O4        1.0  0.40746  0.68638  0.91349  1.0000 -0.7018305202
O   O5        1.0  0.53413  0.81609  0.09578  1.0000 -0.4389289358
O   O6        1.0  0.42421  0.62950  0.20059  1.0000 -0.6399535874
O   O7        1.0  0.43114  0.65016  0.40929  1.0000 -0.6269522051
O   O8        1.0  0.66832  0.48886  0.13524  1.0000 -0.462051773
O   O9        1.0  0.66070  0.39866  0.35538  1.0000 -0.7070662319
O   O10       1.0  0.55818  0.40620  0.55506  1.0000 -0.4203141421
O   O11       1.0  0.51789  0.27513  0.10898  1.0000 -0.6269522051
O   O12       1.0  0.55457  0.32861  0.91045  1.0000 -0.6399535874
O   O13       1.0  0.12774  0.14349  0.10712  1.0000 -0.4887122948
O   O14       1.0  0.06981  0.07296  0.87772  1.0000 -0.7018305202
O   O15       1.0  0.20218  0.09194  0.69170  1.0000 -0.4269093811
O   O16       1.0  0.05891  0.11069  0.57301  1.0000 -0.6563271224
O   O17       1.0  0.09715  0.14128  0.36902  1.0000 -0.603381429
O   O18       1.0  0.19059  0.52162  0.35328  1.0000 -0.4533762574
O   O19       1.0  0.27892  0.59254  0.58016  1.0000 -0.7018305202
O   O20       1.0  0.28196  0.46587  0.76245  1.0000 -0.4389289358
O   O21       1.0  0.20529  0.57579  0.86726  1.0000 -0.6399535874
O   O22       1.0  0.21902  0.56886  0.07596  1.0000 -0.6269522051
O   O23       1.0  0.82054  0.33168  0.80191  1.0000 -0.462051773
O   O24       1.0  0.73796  0.33930  0.02205  1.0000 -0.7070662319
O   O25       1.0  0.84802  0.44182  0.22173  1.0000 -0.4203141421
O   O26       1.0  0.75724  0.48211  0.77565  1.0000 -0.6269522051
O   O27       1.0  0.77404  0.44543  0.57712  1.0000 -0.6399535874
O   O28       1.0  0.01575  0.87226  0.77379  1.0000 -0.4887122948
O   O29       1.0  0.00315  0.93019  0.54439  1.0000 -0.7018305202
O   O30       1.0  0.88976  0.79782  0.35837  1.0000 -0.4269093811
O   O31       1.0  0.05178  0.94109  0.23967  1.0000 -0.6563271224
O   O32       1.0  0.04413  0.90285  0.03568  1.0000 -0.603381429
O   O33       1.0  0.33103  0.80941  0.01994  1.0000 -0.4533762574
O   O34       1.0  0.31362  0.72108  0.24682  1.0000 -0.7018305202
O   O35       1.0  0.18391  0.71804  0.42911  1.0000 -0.4389289358
O   O36       1.0  0.37050  0.79471  0.53392  1.0000 -0.6399535874
O   O37       1.0  0.34984  0.78098  0.74262  1.0000 -0.6269522051
O   O38       1.0  0.51114  0.17946  0.46857  1.0000 -0.462051773
O   O39       1.0  0.60134  0.26204  0.68871  1.0000 -0.7070662319
O   O40       1.0  0.59380  0.15198  0.88839  1.0000 -0.4203141421
O   O41       1.0  0.72487  0.24276  0.44231  1.0000 -0.6269522051
O   O42       1.0  0.67139  0.22596  0.24378  1.0000 -0.6399535874
O   O43       1.0  0.85651  0.98425  0.44045  1.0000 -0.4887122948
O   O44       1.0  0.92704  0.99685  0.21105  1.0000 -0.7018305202
O   O45       1.0  0.90806  0.11024  0.02503  1.0000 -0.4203141421
