# DDEC6 charges by PACMAN v1.1 (https://github.com/mtap-research/PACMAN-charge/)
data_2020[Eu][sql]2[FSR]2
_chemical_formula_sum              "Eu8 H20 C72 N4 O76"
_cell_length_a       13.145
_cell_length_b       13.014
_cell_length_c       16.358
_cell_angle_alpha    90
_cell_angle_beta     97.172
_cell_angle_gamma    90

_symmetry_space_group_name_H-M    "P 1"
_symmetry_Int_Tables_number       1

loop_
  _symmetry_equiv_pos_as_xyz
  'x, y, z'

loop_
  _atom_site_type_symbol
  _atom_site_label
  _atom_site_symmetry_multiplicity
  _atom_site_fract_x
  _atom_site_fract_y
  _atom_site_fract_z
  _atom_site_occupancy
  _atom_site_charge
Eu  Eu1       1.0  0.80799  0.69989  0.56255  1.0000 2.022391193
Eu  Eu2       1.0  0.49258  0.87352  0.76554  1.0000 1.9865975706
Eu  Eu3       1.0  0.19201  0.19989  0.93745  1.0000 2.022391193
Eu  Eu4       1.0  0.50742  0.37352  0.73446  1.0000 1.9865975706
Eu  Eu5       1.0  0.19201  0.30011  0.43745  1.0000 2.022391193
Eu  Eu6       1.0  0.50742  0.12648  0.23446  1.0000 1.9865975706
Eu  Eu7       1.0  0.80799  0.80011  0.06255  1.0000 2.022391193
Eu  Eu8       1.0  0.49258  0.62648  0.26554  1.0000 1.9826477695
H   H1        1.0  0.84520  0.98790  0.57800  1.0000 0.386415847
H   H2        1.0  0.92350  0.18980  0.30360  1.0000 0.1520636607
H   H3        1.0  0.87460  0.13390  0.42490  1.0000 0.1422053505
H   H4        1.0  0.90410  0.84280  0.35230  1.0000 0.1307045336
H   H5        1.0  0.95490  0.90020  0.23050  1.0000 0.1422053505
H   H6        1.0  0.15480  0.48790  0.92200  1.0000 0.386415847
H   H7        1.0  0.07650  0.68980  0.19640  1.0000 0.1520636607
H   H8        1.0  0.12540  0.63390  0.07510  1.0000 0.1422053505
H   H9        1.0  0.09590  0.34280  0.14770  1.0000 0.1307045336
H   H10       1.0  0.04510  0.40020  0.26950  1.0000 0.1422053505
H   H11       1.0  0.15480  0.01210  0.42200  1.0000 0.386415847
H   H12       1.0  0.07650  0.81020  0.69640  1.0000 0.1520636607
H   H13       1.0  0.12540  0.86610  0.57510  1.0000 0.1422053505
H   H14       1.0  0.09590  0.15720  0.64770  1.0000 0.1307045336
H   H15       1.0  0.04510  0.09980  0.76950  1.0000 0.1422053505
H   H16       1.0  0.84520  0.51210  0.07800  1.0000 0.386415847
H   H17       1.0  0.92350  0.31020  0.80360  1.0000 0.1520636607
H   H18       1.0  0.87460  0.36610  0.92490  1.0000 0.1422053505
H   H19       1.0  0.90410  0.65720  0.85230  1.0000 0.1307045336
H   H20       1.0  0.95490  0.59980  0.73050  1.0000 0.1422053505
C   C1        1.0  0.26450  0.15320  0.13240  1.0000 0.6062844921
C   C2        1.0  0.15190  0.13590  0.13000  1.0000 0.1154887307
C   C3        1.0  0.10190  0.10990  0.19640  1.0000 -0.062446882
C   C4        1.0  0.15450  0.11700  0.28440  1.0000 0.646473937
C   C5        1.0  0.99900  0.08550  0.18430  1.0000 0.0806714691
C   C6        1.0  0.94710  0.09080  0.10540  1.0000 -0.0843422465
C   C7        1.0  0.00140  0.12180  0.04300  1.0000 0.1307045336
C   C8        1.0  0.83430  0.06800  0.09150  1.0000 0.638781004
C   C9        1.0  0.95500  0.13830  0.95340  1.0000 0.5533979762
C   C10       1.0  0.94990  0.05040  0.25620  1.0000 0.0727936405
C   C11       1.0  0.92160  0.11970  0.31430  1.0000 -0.0901138555
C   C12       1.0  0.89160  0.08690  0.38600  1.0000 -0.062446882
C   C13       1.0  0.88650  0.98190  0.40090  1.0000 -0.0502073687
C   C14       1.0  0.90940  0.91290  0.34280  1.0000 -0.062446882
C   C15       1.0  0.94040  0.94730  0.27030  1.0000 -0.1093316075
C   C16       1.0  0.86010  0.94470  0.48090  1.0000 0.6229854751
C   C17       1.0  0.61740  0.82320  0.61450  1.0000 0.5135543275
C   C18       1.0  0.61090  0.72150  0.65950  1.0000 0.5041454512
C   C19       1.0  0.73550  0.65320  0.36760  1.0000 0.6062844921
C   C20       1.0  0.84810  0.63590  0.37000  1.0000 0.1154887307
C   C21       1.0  0.89810  0.60990  0.30360  1.0000 -0.062446882
C   C22       1.0  0.84550  0.61700  0.21560  1.0000 0.646473937
C   C23       1.0  0.00100  0.58550  0.31570  1.0000 0.0806714691
C   C24       1.0  0.05290  0.59080  0.39460  1.0000 -0.0843422465
C   C25       1.0  0.99860  0.62180  0.45700  1.0000 0.1307045336
C   C26       1.0  0.16570  0.56800  0.40850  1.0000 0.638781004
C   C27       1.0  0.04500  0.63830  0.54660  1.0000 0.5533979762
C   C28       1.0  0.05010  0.55040  0.24380  1.0000 0.0727936405
C   C29       1.0  0.07840  0.61970  0.18570  1.0000 -0.0901138555
C   C30       1.0  0.10840  0.58690  0.11400  1.0000 -0.062446882
C   C31       1.0  0.11350  0.48190  0.09910  1.0000 -0.0502073687
C   C32       1.0  0.09060  0.41290  0.15720  1.0000 -0.062446882
C   C33       1.0  0.05960  0.44730  0.22970  1.0000 -0.1093316075
C   C34       1.0  0.13990  0.44470  0.01910  1.0000 0.6229854751
C   C35       1.0  0.38260  0.32320  0.88550  1.0000 0.5135543275
C   C36       1.0  0.38910  0.22150  0.84050  1.0000 0.5041454512
C   C37       1.0  0.73550  0.84680  0.86760  1.0000 0.6062844921
C   C38       1.0  0.84810  0.86410  0.87000  1.0000 0.1154887307
C   C39       1.0  0.89810  0.89010  0.80360  1.0000 -0.062446882
C   C40       1.0  0.84550  0.88300  0.71560  1.0000 0.646473937
C   C41       1.0  0.00100  0.91450  0.81570  1.0000 0.0806714691
C   C42       1.0  0.05290  0.90920  0.89460  1.0000 -0.0843422465
C   C43       1.0  0.99860  0.87820  0.95700  1.0000 0.1307045336
C   C44       1.0  0.16570  0.93200  0.90850  1.0000 0.638781004
C   C45       1.0  0.04500  0.86170  0.04660  1.0000 0.5533979762
C   C46       1.0  0.05010  0.94960  0.74380  1.0000 0.0727936405
C   C47       1.0  0.07840  0.88030  0.68570  1.0000 -0.0901138555
C   C48       1.0  0.10840  0.91310  0.61400  1.0000 -0.062446882
C   C49       1.0  0.11350  0.01810  0.59910  1.0000 -0.0502073687
C   C50       1.0  0.09060  0.08710  0.65720  1.0000 -0.062446882
C   C51       1.0  0.05960  0.05270  0.72970  1.0000 -0.1093316075
C   C52       1.0  0.13990  0.05530  0.51910  1.0000 0.6229854751
C   C53       1.0  0.38260  0.17680  0.38550  1.0000 0.5135543275
C   C54       1.0  0.38910  0.27850  0.34050  1.0000 0.5041454512
C   C55       1.0  0.26450  0.34680  0.63240  1.0000 0.6062844921
C   C56       1.0  0.15190  0.36410  0.63000  1.0000 0.1154887307
C   C57       1.0  0.10190  0.39010  0.69640  1.0000 -0.062446882
C   C58       1.0  0.15450  0.38300  0.78440  1.0000 0.646473937
C   C59       1.0  0.99900  0.41450  0.68430  1.0000 0.0806714691
C   C60       1.0  0.94710  0.40920  0.60540  1.0000 -0.0843422465
C   C61       1.0  0.00140  0.37820  0.54300  1.0000 0.1307045336
C   C62       1.0  0.83430  0.43200  0.59150  1.0000 0.638781004
C   C63       1.0  0.95500  0.36170  0.45340  1.0000 0.5533979762
C   C64       1.0  0.94990  0.44960  0.75620  1.0000 0.0727936405
C   C65       1.0  0.92160  0.38030  0.81430  1.0000 -0.0901138555
C   C66       1.0  0.89160  0.41310  0.88600  1.0000 -0.062446882
C   C67       1.0  0.88650  0.51810  0.90090  1.0000 -0.0502073687
C   C68       1.0  0.90940  0.58710  0.84280  1.0000 -0.062446882
C   C69       1.0  0.94040  0.55270  0.77030  1.0000 -0.1093316075
C   C70       1.0  0.86010  0.55530  0.98090  1.0000 0.6229854751
C   C71       1.0  0.61740  0.67680  0.11450  1.0000 0.5135543275
C   C72       1.0  0.61090  0.77850  0.15950  1.0000 0.5041454512
N   N1        1.0  0.10000  0.14060  0.05460  1.0000 -0.3555062187
N   N2        1.0  0.90000  0.64060  0.44540  1.0000 -0.3555062187
N   N3        1.0  0.90000  0.85940  0.94540  1.0000 -0.3555062187
N   N4        1.0  0.10000  0.35940  0.55460  1.0000 -0.3555062187
O   O1        1.0  0.29310  0.17670  0.06520  1.0000 -0.5288117003
O   O2        1.0  0.56640  0.03870  0.78760  1.0000 -0.3407244679
O   O3        1.0  0.32010  0.14230  0.19830  1.0000 -0.5571510863
O   O4        1.0  0.36900  0.99900  0.70750  1.0000 -0.3785986003
O   O5        1.0  0.01500  0.17180  0.90640  1.0000 -0.604110248
O   O6        1.0  0.39900  0.95500  0.86210  1.0000 -0.0392124249
O   O7        1.0  0.86380  0.11730  0.93590  1.0000 -0.4443412345
O   O8        1.0  0.33760  0.77400  0.77770  1.0000 -0.2932054869
O   O9        1.0  0.15700  0.20560  0.31560  1.0000 -0.6333994936
O   O10       1.0  0.51430  0.75240  0.88010  1.0000 -0.2387031537
O   O11       1.0  0.18160  0.03670  0.32020  1.0000 -0.4506012273
O   O12       1.0  0.77670  0.14030  0.10020  1.0000 -0.3310376253
O   O13       1.0  0.80690  0.97630  0.07750  1.0000 -0.6244451773
O   O14       1.0  0.86280  0.85050  0.49710  1.0000 -0.6244451773
O   O15       1.0  0.83770  0.01190  0.53130  1.0000 -0.3996153396
O   O16       1.0  0.66890  0.82680  0.55680  1.0000 -0.4907942485
O   O17       1.0  0.56510  0.89540  0.63940  1.0000 -0.5704770755
O   O18       1.0  0.66900  0.65140  0.64010  1.0000 -0.4755998921
O   O19       1.0  0.54790  0.71510  0.70980  1.0000 -0.544150598
O   O20       1.0  0.70690  0.67670  0.43480  1.0000 -0.5288117003
O   O21       1.0  0.43360  0.53870  0.71240  1.0000 -0.3407244679
O   O22       1.0  0.67990  0.64230  0.30170  1.0000 -0.5571510863
O   O23       1.0  0.63100  0.49900  0.79250  1.0000 -0.3785986003
O   O24       1.0  0.98500  0.67180  0.59360  1.0000 -0.604110248
O   O25       1.0  0.60100  0.45500  0.63790  1.0000 -0.0392124249
O   O26       1.0  0.13620  0.61730  0.56410  1.0000 -0.4443412345
O   O27       1.0  0.66240  0.27400  0.72230  1.0000 -0.2932054869
O   O28       1.0  0.84300  0.70560  0.18440  1.0000 -0.6333994936
O   O29       1.0  0.48570  0.25240  0.61990  1.0000 -0.2387031537
O   O30       1.0  0.81840  0.53670  0.17980  1.0000 -0.4506012273
O   O31       1.0  0.22330  0.64030  0.39980  1.0000 -0.3310376253
O   O32       1.0  0.19310  0.47630  0.42250  1.0000 -0.6244451773
O   O33       1.0  0.13720  0.35050  0.00290  1.0000 -0.6244451773
O   O34       1.0  0.16230  0.51190  0.96870  1.0000 -0.3996153396
O   O35       1.0  0.33110  0.32680  0.94320  1.0000 -0.4907942485
O   O36       1.0  0.43490  0.39540  0.86060  1.0000 -0.5704770755
O   O37       1.0  0.33100  0.15140  0.85990  1.0000 -0.4755998921
O   O38       1.0  0.45210  0.21510  0.79020  1.0000 -0.544150598
O   O39       1.0  0.70690  0.82330  0.93480  1.0000 -0.5288117003
O   O40       1.0  0.43360  0.96130  0.21240  1.0000 -0.3407244679
O   O41       1.0  0.67990  0.85770  0.80170  1.0000 -0.5571510863
O   O42       1.0  0.63100  0.00100  0.29250  1.0000 -0.3785986003
O   O43       1.0  0.98500  0.82820  0.09360  1.0000 -0.604110248
O   O44       1.0  0.60100  0.04500  0.13790  1.0000 -0.0392124249
O   O45       1.0  0.13620  0.88270  0.06410  1.0000 -0.4443412345
O   O46       1.0  0.66240  0.22600  0.22230  1.0000 -0.2932054869
O   O47       1.0  0.84300  0.79440  0.68440  1.0000 -0.6333994936
O   O48       1.0  0.48570  0.24760  0.11990  1.0000 -0.2387031537
O   O49       1.0  0.81840  0.96330  0.67980  1.0000 -0.4506012273
O   O50       1.0  0.22330  0.85970  0.89980  1.0000 -0.3310376253
O   O51       1.0  0.19310  0.02370  0.92250  1.0000 -0.6244451773
O   O52       1.0  0.13720  0.14950  0.50290  1.0000 -0.6244451773
O   O53       1.0  0.16230  0.98810  0.46870  1.0000 -0.3996153396
O   O54       1.0  0.33110  0.17320  0.44320  1.0000 -0.4907942485
O   O55       1.0  0.43490  0.10460  0.36060  1.0000 -0.5704770755
O   O56       1.0  0.33100  0.34860  0.35990  1.0000 -0.4755998921
O   O57       1.0  0.45210  0.28490  0.29020  1.0000 -0.544150598
O   O58       1.0  0.29310  0.32330  0.56520  1.0000 -0.5288117003
O   O59       1.0  0.56640  0.46130  0.28760  1.0000 -0.3407244679
O   O60       1.0  0.32010  0.35770  0.69830  1.0000 -0.5571510863
O   O61       1.0  0.36900  0.50100  0.20750  1.0000 -0.3785986003
O   O62       1.0  0.01500  0.32820  0.40640  1.0000 -0.604110248
O   O63       1.0  0.39900  0.54500  0.36210  1.0000 -0.0392124249
O   O64       1.0  0.86380  0.38270  0.43590  1.0000 -0.4443412345
O   O65       1.0  0.33760  0.72600  0.27770  1.0000 -0.2956490588
O   O66       1.0  0.15700  0.29440  0.81560  1.0000 -0.6333994936
O   O67       1.0  0.51430  0.74760  0.38010  1.0000 -0.2387031537
O   O68       1.0  0.18160  0.46330  0.82020  1.0000 -0.4506012273
O   O69       1.0  0.77670  0.35970  0.60020  1.0000 -0.3310376253
O   O70       1.0  0.80690  0.52370  0.57750  1.0000 -0.6244451773
O   O71       1.0  0.86280  0.64950  0.99710  1.0000 -0.6244451773
O   O72       1.0  0.83770  0.48810  0.03130  1.0000 -0.3996153396
O   O73       1.0  0.66890  0.67320  0.05680  1.0000 -0.4907942485
O   O74       1.0  0.56510  0.60460  0.13940  1.0000 -0.5704770755
O   O75       1.0  0.66900  0.84860  0.14010  1.0000 -0.4755998921
O   O76       1.0  0.54790  0.78490  0.20980  1.0000 -0.544150598
