# DDEC6 charges by PACMAN v1.1 (https://github.com/mtap-research/PACMAN-charge/)
data_2020[Mn][sql]2[FSR]3
_chemical_formula_sum              "Mn2 H76 C36 N12 O12"
_cell_length_a       12.1175
_cell_length_b       12.4298
_cell_length_c       13.334
_cell_angle_alpha    117.665
_cell_angle_beta     90.093
_cell_angle_gamma    92.333

_symmetry_space_group_name_H-M    "P 1"
_symmetry_Int_Tables_number       1

loop_
  _symmetry_equiv_pos_as_xyz
  'x, y, z'

loop_
  _atom_site_type_symbol
  _atom_site_label
  _atom_site_symmetry_multiplicity
  _atom_site_fract_x
  _atom_site_fract_y
  _atom_site_fract_z
  _atom_site_occupancy
  _atom_site_charge
Mn  Mn1       1.0  0.50000  0.50000  0.50000  1.0000 0.8782705325
Mn  Mn2       1.0  0.00000  0.00000  0.50000  1.0000 0.8782705325
H   H1        1.0  0.28350  0.71658  0.63814  1.0000 0.1200815877
H   H2        1.0  0.26286  0.58174  0.53561  1.0000 0.1200815877
H   H3        1.0  0.57653  0.59452  0.73780  1.0000 0.0824637595
H   H4        1.0  0.10404  0.62705  0.48290  1.0000 0.1124784999
H   H5        1.0  0.10682  0.73916  0.60845  1.0000 0.1124784999
H   H6        1.0  0.54429  0.64744  0.00164  1.0000 0.1274596411
H   H7        1.0  0.63468  0.61530  0.90571  1.0000 0.1124784999
H   H8        1.0  0.57053  0.50863  0.92051  1.0000 0.1200815877
H   H9        1.0  0.39584  0.85696  0.48428  1.0000 0.1124784999
H   H10       1.0  0.39793  0.86841  0.60923  1.0000 0.1124784999
H   H11       1.0  0.31464  0.55111  0.80859  1.0000 0.1358453739
H   H12       1.0  0.34317  0.63029  0.94097  1.0000 0.1274596411
H   H13       1.0  0.35956  0.48689  0.87947  1.0000 0.1200815877
H   H14       1.0  0.22249  0.92160  0.63867  1.0000 0.1200815877
H   H15       1.0  0.23842  0.95389  0.53601  1.0000 0.1200815877
H   H16       1.0  0.92998  0.14286  0.73506  1.0000 0.0824637595
H   H17       1.0  0.27120  0.56275  0.34176  1.0000 0.1124784999
H   H18       1.0  0.35256  0.65389  0.31915  1.0000 0.1124784999
H   H19       1.0  0.93816  0.40852  0.91634  1.0000 0.1200815877
H   H20       1.0  0.96696  0.35376  0.00022  1.0000 0.1274596411
H   H21       1.0  0.87566  0.28584  0.90133  1.0000 0.1200815877
H   H22       1.0  0.22052  0.78025  0.34216  1.0000 0.1124784999
H   H23       1.0  0.13802  0.66667  0.31978  1.0000 0.1124784999
H   H24       1.0  0.19271  0.24867  0.82502  1.0000 0.1358453739
H   H25       1.0  0.15684  0.32746  0.95347  1.0000 0.1200815877
H   H26       1.0  0.15083  0.38298  0.86682  1.0000 0.1200815877
H   H27       1.0  0.26104  0.40364  0.59682  1.0000 0.1200815877
H   H28       1.0  0.36365  0.31820  0.57398  1.0000 0.1200815877
H   H29       1.0  0.24202  0.19396  0.59788  1.0000 0.1200815877
H   H30       1.0  0.13846  0.25543  0.57315  1.0000 0.1200815877
H   H31       1.0  0.18063  0.29557  0.30930  1.0000 0.1124784999
H   H32       1.0  0.13336  0.35056  0.43504  1.0000 0.1124784999
H   H33       1.0  0.05717  0.16339  0.37450  1.0000 0.1200815877
H   H34       1.0  0.14392  0.10355  0.27469  1.0000 0.1124784999
H   H35       1.0  0.43878  0.21304  0.37612  1.0000 0.1200815877
H   H36       1.0  0.34872  0.17291  0.27508  1.0000 0.1124784999
H   H37       1.0  0.31114  0.01506  0.30960  1.0000 0.1124784999
H   H38       1.0  0.36426  0.08484  0.43522  1.0000 0.1200815877
H   H39       1.0  0.71650  0.28342  0.36186  1.0000 0.1200815877
H   H40       1.0  0.73714  0.41826  0.46439  1.0000 0.1200815877
H   H41       1.0  0.42347  0.40548  0.26220  1.0000 0.0824637595
H   H42       1.0  0.89596  0.37295  0.51710  1.0000 0.1124784999
H   H43       1.0  0.89318  0.26084  0.39155  1.0000 0.1124784999
H   H44       1.0  0.45571  0.35256  0.99836  1.0000 0.1274596411
H   H45       1.0  0.36532  0.38470  0.09429  1.0000 0.1124784999
H   H46       1.0  0.42947  0.49137  0.07949  1.0000 0.1200815877
H   H47       1.0  0.60416  0.14304  0.51572  1.0000 0.1124784999
H   H48       1.0  0.60207  0.13159  0.39077  1.0000 0.1124784999
H   H49       1.0  0.68536  0.44889  0.19141  1.0000 0.1358453739
H   H50       1.0  0.65683  0.36971  0.05903  1.0000 0.1274596411
H   H51       1.0  0.64044  0.51311  0.12053  1.0000 0.1200815877
H   H52       1.0  0.77751  0.07840  0.36133  1.0000 0.1200815877
H   H53       1.0  0.76158  0.04611  0.46399  1.0000 0.1200815877
H   H54       1.0  0.07002  0.85714  0.26494  1.0000 0.0824637595
H   H55       1.0  0.72880  0.43725  0.65824  1.0000 0.1124784999
H   H56       1.0  0.64744  0.34611  0.68085  1.0000 0.1124784999
H   H57       1.0  0.06184  0.59148  0.08366  1.0000 0.1200815877
H   H58       1.0  0.03304  0.64624  0.99978  1.0000 0.1274596411
H   H59       1.0  0.12434  0.71416  0.09867  1.0000 0.1200815877
H   H60       1.0  0.77948  0.21975  0.65784  1.0000 0.1124784999
H   H61       1.0  0.86198  0.33333  0.68022  1.0000 0.1124784999
H   H62       1.0  0.80729  0.75133  0.17498  1.0000 0.1358453739
H   H63       1.0  0.84316  0.67254  0.04653  1.0000 0.1200815877
H   H64       1.0  0.84917  0.61702  0.13318  1.0000 0.1200815877
H   H65       1.0  0.73896  0.59636  0.40318  1.0000 0.1200815877
H   H66       1.0  0.63635  0.68180  0.42602  1.0000 0.1200815877
H   H67       1.0  0.75798  0.80604  0.40212  1.0000 0.1200815877
H   H68       1.0  0.86154  0.74457  0.42685  1.0000 0.1200815877
H   H69       1.0  0.81937  0.70443  0.69070  1.0000 0.1124784999
H   H70       1.0  0.86664  0.64944  0.56496  1.0000 0.1200815877
H   H71       1.0  0.94283  0.83661  0.62550  1.0000 0.1200815877
H   H72       1.0  0.85608  0.89645  0.72531  1.0000 0.1124784999
H   H73       1.0  0.56122  0.78696  0.62388  1.0000 0.1200815877
H   H74       1.0  0.65128  0.82709  0.72492  1.0000 0.1124784999
H   H75       1.0  0.68886  0.98494  0.69040  1.0000 0.1124784999
H   H76       1.0  0.63574  0.91516  0.56478  1.0000 0.1200815877
C   C1        1.0  0.26230  0.66940  0.55690  1.0000 -0.191592329
C   C2        1.0  0.50080  0.58310  0.75030  1.0000 0.2317281249
C   C3        1.0  0.14670  0.70160  0.53630  1.0000 -0.1731470679
C   C4        1.0  0.56400  0.58890  0.92470  1.0000 -0.3827293035
C   C5        1.0  0.35520  0.83470  0.53690  1.0000 -0.1731470679
C   C6        1.0  0.36450  0.56080  0.87050  1.0000 -0.3585868519
C   C7        1.0  0.24000  0.88760  0.55740  1.0000 -0.1979724359
C   C8        1.0  0.00630  0.16650  0.74930  1.0000 0.1863968181
C   C9        1.0  0.29540  0.64920  0.37010  1.0000 -0.191592329
C   C10       1.0  0.94600  0.33350  0.92220  1.0000 -0.3827293035
C   C11       1.0  0.19780  0.72190  0.37040  1.0000 -0.191592329
C   C12       1.0  0.14140  0.30860  0.87470  1.0000 -0.3418546063
C   C13       1.0  0.28920  0.32290  0.54600  1.0000 -0.1979724359
C   C14       1.0  0.21200  0.22330  0.54630  1.0000 -0.1979724359
C   C15       1.0  0.18080  0.28810  0.38010  1.0000 -0.1770302509
C   C16       1.0  0.13640  0.16120  0.35590  1.0000 -0.191592329
C   C17       1.0  0.35890  0.19620  0.35640  1.0000 -0.191592329
C   C18       1.0  0.31430  0.09300  0.38050  1.0000 -0.1770302509
C   C19       1.0  0.73770  0.33060  0.44310  1.0000 -0.191592329
C   C20       1.0  0.49920  0.41690  0.24970  1.0000 0.2317281249
C   C21       1.0  0.85330  0.29840  0.46370  1.0000 -0.1731470679
C   C22       1.0  0.43600  0.41110  0.07530  1.0000 -0.3827293035
C   C23       1.0  0.64480  0.16530  0.46310  1.0000 -0.1731470679
C   C24       1.0  0.63550  0.43920  0.12950  1.0000 -0.3585868519
C   C25       1.0  0.76000  0.11240  0.44260  1.0000 -0.191592329
C   C26       1.0  0.99370  0.83350  0.25070  1.0000 0.1863968181
C   C27       1.0  0.70460  0.35080  0.62990  1.0000 -0.191592329
C   C28       1.0  0.05400  0.66650  0.07780  1.0000 -0.3827293035
C   C29       1.0  0.80220  0.27810  0.62960  1.0000 -0.191592329
C   C30       1.0  0.85860  0.69140  0.12530  1.0000 -0.3418546063
C   C31       1.0  0.71080  0.67710  0.45400  1.0000 -0.1979724359
C   C32       1.0  0.78800  0.77670  0.45370  1.0000 -0.1979724359
C   C33       1.0  0.81920  0.71190  0.61990  1.0000 -0.1770302509
C   C34       1.0  0.86360  0.83880  0.64410  1.0000 -0.191592329
C   C35       1.0  0.64110  0.80380  0.64360  1.0000 -0.191592329
C   C36       1.0  0.68570  0.90700  0.61950  1.0000 -0.1770302509
N   N1        1.0  0.34210  0.69870  0.48690  1.0000 0.2909666482
N   N2        1.0  0.47790  0.58210  0.84430  1.0000 0.0210908125
N   N3        1.0  0.15720  0.78880  0.48790  1.0000 0.2909666482
N   N4        1.0  0.03300  0.26110  0.84440  1.0000 0.0295077632
N   N5        1.0  0.29580  0.30700  0.42730  1.0000 0.2977843169
N   N6        1.0  0.20200  0.12080  0.42780  1.0000 0.2977843169
N   N7        1.0  0.65790  0.30130  0.51310  1.0000 0.2909666482
N   N8        1.0  0.52210  0.41790  0.15570  1.0000 0.0210908125
N   N9        1.0  0.84280  0.21120  0.51210  1.0000 0.2909666482
N   N10       1.0  0.96700  0.73890  0.15560  1.0000 0.0295077632
N   N11       1.0  0.70420  0.69300  0.57270  1.0000 0.2977843169
N   N12       1.0  0.79800  0.87920  0.57220  1.0000 0.2977843169
O   O1        1.0  0.44450  0.65340  0.48480  1.0000 -0.5774991256
O   O2        1.0  0.43660  0.57120  0.67710  1.0000 -0.4433272225
O   O3        1.0  0.05470  0.83260  0.48660  1.0000 -0.5774991256
O   O4        1.0  0.07010  0.10490  0.67650  1.0000 -0.458186273
O   O5        1.0  0.34470  0.40910  0.42590  1.0000 -0.5990936202
O   O6        1.0  0.15230  0.01750  0.42610  1.0000 -0.592831735
O   O7        1.0  0.55550  0.34660  0.51520  1.0000 -0.5774991256
O   O8        1.0  0.56340  0.42880  0.32290  1.0000 -0.4433272225
O   O9        1.0  0.94530  0.16740  0.51340  1.0000 -0.5774991256
O   O10       1.0  0.92990  0.89510  0.32350  1.0000 -0.458186273
O   O11       1.0  0.65530  0.59090  0.57410  1.0000 -0.5990936202
O   O12       1.0  0.84770  0.98250  0.57390  1.0000 -0.592831735
