# DDEC6 charges by PACMAN v1.1 (https://github.com/mtap-research/PACMAN-charge/)
data_2020[Tb][nan]2[FSR]2
_chemical_formula_sum              "Tb8 H88 C72 O56"
_cell_length_a       13.8164
_cell_length_b       15.2769
_cell_length_c       14.7988
_cell_angle_alpha    90
_cell_angle_beta     109.147
_cell_angle_gamma    90

_symmetry_space_group_name_H-M    "P 1"
_symmetry_Int_Tables_number       1

loop_
  _symmetry_equiv_pos_as_xyz
  'x, y, z'

loop_
  _atom_site_type_symbol
  _atom_site_label
  _atom_site_symmetry_multiplicity
  _atom_site_fract_x
  _atom_site_fract_y
  _atom_site_fract_z
  _atom_site_occupancy
  _atom_site_charge
Tb  Tb1       1.0  0.56903  0.73191  0.29036  1.0000 2.0319747718
Tb  Tb2       1.0  0.45054  0.73090  0.50664  1.0000 2.0391673835
Tb  Tb3       1.0  0.43097  0.23191  0.20964  1.0000 2.0319747718
Tb  Tb4       1.0  0.54946  0.23090  0.99336  1.0000 2.0391673835
Tb  Tb5       1.0  0.43097  0.26809  0.70964  1.0000 2.0319747718
Tb  Tb6       1.0  0.54946  0.26910  0.49336  1.0000 2.0391673835
Tb  Tb7       1.0  0.56903  0.76809  0.79036  1.0000 2.0319747718
Tb  Tb8       1.0  0.45054  0.76910  0.00664  1.0000 2.0391673835
H   H1        1.0  0.47230  0.91320  0.55320  1.0000 0.3770520741
H   H2        1.0  0.44230  0.91170  0.45500  1.0000 0.3616409989
H   H3        1.0  0.74600  0.62560  0.34660  1.0000 0.3770520741
H   H4        1.0  0.67390  0.57750  0.37160  1.0000 0.3939174356
H   H5        1.0  0.16070  0.71990  0.21310  1.0000 0.0990947072
H   H6        1.0  0.16280  0.73220  0.10670  1.0000 0.108823349
H   H7        1.0  0.22690  0.53500  0.33050  1.0000 0.108823349
H   H8        1.0  0.24090  0.43110  0.33090  1.0000 0.108823349
H   H9        1.0  0.23180  0.93360  0.15060  1.0000 0.0990947072
H   H10       1.0  0.23050  0.92380  0.25770  1.0000 0.0990947072
H   H11       1.0  0.32390  0.47060  0.13970  1.0000 0.108823349
H   H12       1.0  0.30180  0.57060  0.15790  1.0000 0.108823349
H   H13       1.0  0.86160  0.71200  0.57110  1.0000 0.0990947072
H   H14       1.0  0.87870  0.73080  0.68150  1.0000 0.108823349
H   H15       1.0  0.76060  0.92340  0.54970  1.0000 0.108823349
H   H16       1.0  0.79100  0.91270  0.66330  1.0000 0.0990947072
H   H17       1.0  0.94940  0.85890  0.66230  1.0000 0.0900696026
H   H18       1.0  0.90810  0.84890  0.54870  1.0000 0.0990947072
H   H19       1.0  0.14600  0.52740  0.16720  1.0000 0.0788774014
H   H20       1.0  0.17640  0.42670  0.16600  1.0000 0.0990947072
H   H21       1.0  0.07860  0.85920  0.09560  1.0000 0.0788774014
H   H22       1.0  0.07840  0.84790  0.20270  1.0000 0.0900696026
H   H23       1.0  0.52770  0.41320  0.94680  1.0000 0.3770520741
H   H24       1.0  0.55770  0.41170  0.04500  1.0000 0.3616409989
H   H25       1.0  0.25400  0.12560  0.15340  1.0000 0.3770520741
H   H26       1.0  0.32610  0.07750  0.12840  1.0000 0.3939174356
H   H27       1.0  0.83930  0.21990  0.28690  1.0000 0.0990947072
H   H28       1.0  0.83720  0.23220  0.39330  1.0000 0.108823349
H   H29       1.0  0.77310  0.03500  0.16950  1.0000 0.108823349
H   H30       1.0  0.75910  0.93110  0.16910  1.0000 0.108823349
H   H31       1.0  0.76820  0.43360  0.34940  1.0000 0.0900696026
H   H32       1.0  0.76950  0.42380  0.24230  1.0000 0.0990947072
H   H33       1.0  0.67610  0.97060  0.36030  1.0000 0.108823349
H   H34       1.0  0.69820  0.07060  0.34210  1.0000 0.108823349
H   H35       1.0  0.13840  0.21200  0.92890  1.0000 0.0990947072
H   H36       1.0  0.12130  0.23080  0.81850  1.0000 0.108823349
H   H37       1.0  0.23940  0.42340  0.95030  1.0000 0.108823349
H   H38       1.0  0.20900  0.41270  0.83670  1.0000 0.0990947072
H   H39       1.0  0.05060  0.35890  0.83770  1.0000 0.0900696026
H   H40       1.0  0.09190  0.34890  0.95130  1.0000 0.0990947072
H   H41       1.0  0.85400  0.02740  0.33280  1.0000 0.0788774014
H   H42       1.0  0.82360  0.92670  0.33400  1.0000 0.0990947072
H   H43       1.0  0.92140  0.35920  0.40440  1.0000 0.0788774014
H   H44       1.0  0.92160  0.34790  0.29730  1.0000 0.0900696026
H   H45       1.0  0.52770  0.08680  0.44680  1.0000 0.3770520741
H   H46       1.0  0.55770  0.08830  0.54500  1.0000 0.3616409989
H   H47       1.0  0.25400  0.37440  0.65340  1.0000 0.3770520741
H   H48       1.0  0.32610  0.42250  0.62840  1.0000 0.3939174356
H   H49       1.0  0.83930  0.28010  0.78690  1.0000 0.0990947072
H   H50       1.0  0.83720  0.26780  0.89330  1.0000 0.108823349
H   H51       1.0  0.77310  0.46500  0.66950  1.0000 0.108823349
H   H52       1.0  0.75910  0.56890  0.66910  1.0000 0.108823349
H   H53       1.0  0.76820  0.06640  0.84940  1.0000 0.0900696026
H   H54       1.0  0.76950  0.07620  0.74230  1.0000 0.0990947072
H   H55       1.0  0.67610  0.52940  0.86030  1.0000 0.108823349
H   H56       1.0  0.69820  0.42940  0.84210  1.0000 0.108823349
H   H57       1.0  0.13840  0.28800  0.42890  1.0000 0.0990947072
H   H58       1.0  0.12130  0.26920  0.31850  1.0000 0.108823349
H   H59       1.0  0.23940  0.07660  0.45030  1.0000 0.108823349
H   H60       1.0  0.20900  0.08730  0.33670  1.0000 0.0990947072
H   H61       1.0  0.05060  0.14110  0.33770  1.0000 0.0900696026
H   H62       1.0  0.09190  0.15110  0.45130  1.0000 0.0990947072
H   H63       1.0  0.85400  0.47260  0.83280  1.0000 0.0788774014
H   H64       1.0  0.82360  0.57330  0.83400  1.0000 0.0990947072
H   H65       1.0  0.92140  0.14080  0.90440  1.0000 0.0788774014
H   H66       1.0  0.92160  0.15210  0.79730  1.0000 0.0900696026
H   H67       1.0  0.47230  0.58680  0.05320  1.0000 0.3770520741
H   H68       1.0  0.44230  0.58830  0.95500  1.0000 0.3616409989
H   H69       1.0  0.74600  0.87440  0.84660  1.0000 0.3770520741
H   H70       1.0  0.67390  0.92250  0.87160  1.0000 0.3939174356
H   H71       1.0  0.16070  0.78010  0.71310  1.0000 0.0990947072
H   H72       1.0  0.16280  0.76780  0.60670  1.0000 0.108823349
H   H73       1.0  0.22690  0.96500  0.83050  1.0000 0.108823349
H   H74       1.0  0.24090  0.06890  0.83090  1.0000 0.108823349
H   H75       1.0  0.23180  0.56640  0.65060  1.0000 0.0990947072
H   H76       1.0  0.23050  0.57620  0.75770  1.0000 0.0990947072
H   H77       1.0  0.32390  0.02940  0.63970  1.0000 0.108823349
H   H78       1.0  0.30180  0.92940  0.65790  1.0000 0.108823349
H   H79       1.0  0.86160  0.78800  0.07110  1.0000 0.0990947072
H   H80       1.0  0.87870  0.76920  0.18150  1.0000 0.108823349
H   H81       1.0  0.76060  0.57660  0.04970  1.0000 0.108823349
H   H82       1.0  0.79100  0.58730  0.16330  1.0000 0.0990947072
H   H83       1.0  0.94940  0.64110  0.16230  1.0000 0.0900696026
H   H84       1.0  0.90810  0.65110  0.04870  1.0000 0.0990947072
H   H85       1.0  0.14600  0.97260  0.66720  1.0000 0.0788774014
H   H86       1.0  0.17640  0.07330  0.66600  1.0000 0.0990947072
H   H87       1.0  0.07860  0.64080  0.59560  1.0000 0.0788774014
H   H88       1.0  0.07840  0.65210  0.70270  1.0000 0.0900696026
C   C1        1.0  0.68110  0.77080  0.48690  1.0000 0.5931099745
C   C2        1.0  0.33970  0.79500  0.13840  1.0000 0.6076287023
C   C3        1.0  0.33700  0.78480  0.31140  1.0000 0.6076287023
C   C4        1.0  0.68330  0.77100  0.65730  1.0000 0.6076287023
C   C5        1.0  0.42360  0.41740  0.31620  1.0000 0.636413032
C   C6        1.0  0.41860  0.57600  0.33680  1.0000 0.6554647924
C   C7        1.0  0.27970  0.80690  0.20770  1.0000 -0.0811531722
C   C8        1.0  0.74200  0.79150  0.59000  1.0000 -0.0811531722
C   C9        1.0  0.35560  0.49790  0.28830  1.0000 -0.0906340686
C   C10       1.0  0.17390  0.76040  0.16800  1.0000 -0.1962801139
C   C11       1.0  0.24820  0.48570  0.30020  1.0000 -0.1920698119
C   C12       1.0  0.22040  0.89410  0.19740  1.0000 -0.1920698119
C   C13       1.0  0.30080  0.51070  0.17920  1.0000 -0.1962801139
C   C14       1.0  0.85280  0.75400  0.61700  1.0000 -0.1920698119
C   C15       1.0  0.78930  0.88470  0.60390  1.0000 -0.1962801139
C   C16       1.0  0.89200  0.84140  0.60730  1.0000 -0.1297985252
C   C17       1.0  0.19990  0.48420  0.19150  1.0000 -0.1374129673
C   C18       1.0  0.11920  0.84400  0.16060  1.0000 -0.1297985252
C   C19       1.0  0.31890  0.27080  0.01310  1.0000 0.5931099745
C   C20       1.0  0.66030  0.29500  0.36160  1.0000 0.6076287023
C   C21       1.0  0.66300  0.28480  0.18860  1.0000 0.6076287023
C   C22       1.0  0.31670  0.27100  0.84270  1.0000 0.6076287023
C   C23       1.0  0.57640  0.91740  0.18380  1.0000 0.636413032
C   C24       1.0  0.58140  0.07600  0.16320  1.0000 0.6554647924
C   C25       1.0  0.72030  0.30690  0.29230  1.0000 -0.0811531722
C   C26       1.0  0.25800  0.29150  0.91000  1.0000 -0.0811531722
C   C27       1.0  0.64440  0.99790  0.21170  1.0000 -0.0906340686
C   C28       1.0  0.82610  0.26040  0.33200  1.0000 -0.1962801139
C   C29       1.0  0.75180  0.98570  0.19980  1.0000 -0.1920698119
C   C30       1.0  0.77960  0.39410  0.30260  1.0000 -0.1920698119
C   C31       1.0  0.69920  0.01070  0.32080  1.0000 -0.1962801139
C   C32       1.0  0.14720  0.25400  0.88300  1.0000 -0.1920698119
C   C33       1.0  0.21070  0.38470  0.89610  1.0000 -0.1962801139
C   C34       1.0  0.10800  0.34140  0.89270  1.0000 -0.1297985252
C   C35       1.0  0.80010  0.98420  0.30850  1.0000 -0.1374129673
C   C36       1.0  0.88080  0.34400  0.33940  1.0000 -0.1297985252
C   C37       1.0  0.31890  0.22920  0.51310  1.0000 0.5931099745
C   C38       1.0  0.66030  0.20500  0.86160  1.0000 0.6076287023
C   C39       1.0  0.66300  0.21520  0.68860  1.0000 0.6076287023
C   C40       1.0  0.31670  0.22900  0.34270  1.0000 0.6076287023
C   C41       1.0  0.57640  0.58260  0.68380  1.0000 0.636413032
C   C42       1.0  0.58140  0.42400  0.66320  1.0000 0.6554647924
C   C43       1.0  0.72030  0.19310  0.79230  1.0000 -0.0811531722
C   C44       1.0  0.25800  0.20850  0.41000  1.0000 -0.0811531722
C   C45       1.0  0.64440  0.50210  0.71170  1.0000 -0.0906340686
C   C46       1.0  0.82610  0.23960  0.83200  1.0000 -0.1962801139
C   C47       1.0  0.75180  0.51430  0.69980  1.0000 -0.1920698119
C   C48       1.0  0.77960  0.10590  0.80260  1.0000 -0.1920698119
C   C49       1.0  0.69920  0.48930  0.82080  1.0000 -0.1962801139
C   C50       1.0  0.14720  0.24600  0.38300  1.0000 -0.1920698119
C   C51       1.0  0.21070  0.11530  0.39610  1.0000 -0.1962801139
C   C52       1.0  0.10800  0.15860  0.39270  1.0000 -0.1297985252
C   C53       1.0  0.80010  0.51580  0.80850  1.0000 -0.1374129673
C   C54       1.0  0.88080  0.15600  0.83940  1.0000 -0.1297985252
C   C55       1.0  0.68110  0.72920  0.98690  1.0000 0.5931099745
C   C56       1.0  0.33970  0.70500  0.63840  1.0000 0.6076287023
C   C57       1.0  0.33700  0.71520  0.81140  1.0000 0.6076287023
C   C58       1.0  0.68330  0.72900  0.15730  1.0000 0.6076287023
C   C59       1.0  0.42360  0.08260  0.81620  1.0000 0.636413032
C   C60       1.0  0.41860  0.92400  0.83680  1.0000 0.6554647924
C   C61       1.0  0.27970  0.69310  0.70770  1.0000 -0.0811531722
C   C62       1.0  0.74200  0.70850  0.09000  1.0000 -0.0811531722
C   C63       1.0  0.35560  0.00210  0.78830  1.0000 -0.0906340686
C   C64       1.0  0.17390  0.73960  0.66800  1.0000 -0.1962801139
C   C65       1.0  0.24820  0.01430  0.80020  1.0000 -0.1920698119
C   C66       1.0  0.22040  0.60590  0.69740  1.0000 -0.1920698119
C   C67       1.0  0.30080  0.98930  0.67920  1.0000 -0.1962801139
C   C68       1.0  0.85280  0.74600  0.11700  1.0000 -0.1920698119
C   C69       1.0  0.78930  0.61530  0.10390  1.0000 -0.1962801139
C   C70       1.0  0.89200  0.65860  0.10730  1.0000 -0.1297985252
C   C71       1.0  0.19990  0.01580  0.69150  1.0000 -0.1374129673
C   C72       1.0  0.11920  0.65600  0.66060  1.0000 -0.1297985252
O   O1        1.0  0.41050  0.73733  0.15581  1.0000 -0.7206393687
O   O2        1.0  0.60330  0.72073  0.46786  1.0000 -0.7206393687
O   O3        1.0  0.43560  0.78559  0.34334  1.0000 -0.7581307499
O   O4        1.0  0.58939  0.79685  0.63300  1.0000 -0.7581307499
O   O5        1.0  0.48000  0.60544  0.29826  1.0000 -0.6525006501
O   O6        1.0  0.45080  0.39196  0.40193  1.0000 -0.6195773689
O   O7        1.0  0.28840  0.76899  0.36740  1.0000 -0.560175221
O   O8        1.0  0.45040  0.37974  0.25210  1.0000 -0.6602624116
O   O9        1.0  0.72480  0.73665  0.73610  1.0000 -0.5415296761
O   O10       1.0  0.70980  0.79960  0.42150  1.0000 -0.560175221
O   O11       1.0  0.31550  0.83649  0.06195  1.0000 -0.560175221
O   O12       1.0  0.40590  0.60719  0.41104  1.0000 -0.6351934729
O   O13       1.0  0.42770  0.88862  0.50320  1.0000 -0.7428189127
O   O14       1.0  0.68130  0.60895  0.32410  1.0000 -0.7725378929
O   O15       1.0  0.58950  0.23733  0.34419  1.0000 -0.7206393687
O   O16       1.0  0.39670  0.22073  0.03214  1.0000 -0.7206393687
O   O17       1.0  0.56440  0.28559  0.15666  1.0000 -0.7581307499
O   O18       1.0  0.41061  0.29685  0.86700  1.0000 -0.7581307499
O   O19       1.0  0.52000  0.10544  0.20174  1.0000 -0.6525006501
O   O20       1.0  0.54920  0.89196  0.09807  1.0000 -0.6195773689
O   O21       1.0  0.71160  0.26899  0.13260  1.0000 -0.560175221
O   O22       1.0  0.54960  0.87974  0.24790  1.0000 -0.6602624116
O   O23       1.0  0.27520  0.23665  0.76390  1.0000 -0.5415296761
O   O24       1.0  0.29020  0.29960  0.07850  1.0000 -0.560175221
O   O25       1.0  0.68450  0.33649  0.43805  1.0000 -0.560175221
O   O26       1.0  0.59410  0.10719  0.08896  1.0000 -0.6351934729
O   O27       1.0  0.57230  0.38862  0.99680  1.0000 -0.7428189127
O   O28       1.0  0.31870  0.10895  0.17590  1.0000 -0.7725378929
O   O29       1.0  0.58950  0.26267  0.84419  1.0000 -0.7206393687
O   O30       1.0  0.39670  0.27927  0.53214  1.0000 -0.7206393687
O   O31       1.0  0.56440  0.21441  0.65666  1.0000 -0.7581307499
O   O32       1.0  0.41061  0.20315  0.36700  1.0000 -0.7581307499
O   O33       1.0  0.52000  0.39456  0.70174  1.0000 -0.6525006501
O   O34       1.0  0.54920  0.60804  0.59807  1.0000 -0.6195773689
O   O35       1.0  0.71160  0.23101  0.63260  1.0000 -0.560175221
O   O36       1.0  0.54960  0.62026  0.74790  1.0000 -0.6602624116
O   O37       1.0  0.27520  0.26335  0.26390  1.0000 -0.5415296761
O   O38       1.0  0.29020  0.20040  0.57850  1.0000 -0.560175221
O   O39       1.0  0.68450  0.16351  0.93805  1.0000 -0.560175221
O   O40       1.0  0.59410  0.39281  0.58896  1.0000 -0.6351934729
O   O41       1.0  0.57230  0.11138  0.49680  1.0000 -0.7428189127
O   O42       1.0  0.31870  0.39105  0.67590  1.0000 -0.7725378929
O   O43       1.0  0.41050  0.76267  0.65581  1.0000 -0.7206393687
O   O44       1.0  0.60330  0.77927  0.96786  1.0000 -0.7206393687
O   O45       1.0  0.43560  0.71441  0.84334  1.0000 -0.7581307499
O   O46       1.0  0.58939  0.70315  0.13300  1.0000 -0.7581307499
O   O47       1.0  0.48000  0.89456  0.79826  1.0000 -0.6525006501
O   O48       1.0  0.45080  0.10804  0.90193  1.0000 -0.6195773689
O   O49       1.0  0.28840  0.73101  0.86740  1.0000 -0.560175221
O   O50       1.0  0.45040  0.12026  0.75210  1.0000 -0.6602624116
O   O51       1.0  0.72480  0.76335  0.23610  1.0000 -0.5415296761
O   O52       1.0  0.70980  0.70040  0.92150  1.0000 -0.560175221
O   O53       1.0  0.31550  0.66351  0.56195  1.0000 -0.560175221
O   O54       1.0  0.40590  0.89281  0.91104  1.0000 -0.6351934729
O   O55       1.0  0.42770  0.61138  0.00320  1.0000 -0.7428189127
O   O56       1.0  0.68130  0.89105  0.82410  1.0000 -0.7725378929
