# DDEC6 charges by PACMAN v1.1 (https://github.com/mtap-research/PACMAN-charge/)
data_2020[U][nan]3[FSR]1
_chemical_formula_sum              "U10 H88 C174 N36 O96"
_cell_length_a       18.29
_cell_length_b       17.749
_cell_length_c       19.69
_cell_angle_alpha    90
_cell_angle_beta     99.763
_cell_angle_gamma    90

_symmetry_space_group_name_H-M    "P 1"
_symmetry_Int_Tables_number       1

loop_
  _symmetry_equiv_pos_as_xyz
  'x, y, z'

loop_
  _atom_site_type_symbol
  _atom_site_label
  _atom_site_symmetry_multiplicity
  _atom_site_fract_x
  _atom_site_fract_y
  _atom_site_fract_z
  _atom_site_occupancy
  _atom_site_charge
U   U1        1.0  0.35993  0.09943  0.05768  1.0000 2.3709958977
U   U2        1.0  0.16097  0.58801  0.07740  1.0000 2.3329140928
U   U3        1.0  0.64007  0.09943  0.44232  1.0000 2.3709958977
U   U4        1.0  0.83903  0.58801  0.42260  1.0000 2.3329140928
U   U5        1.0  0.64007  0.90057  0.94232  1.0000 2.3709958977
U   U6        1.0  0.83903  0.41199  0.92260  1.0000 2.3329140928
U   U7        1.0  0.35993  0.90057  0.55768  1.0000 2.3709958977
U   U8        1.0  0.16097  0.41199  0.57740  1.0000 2.3329140928
U   U9        1.0  0.00000  0.10110  0.25000  1.0000 2.3709958977
U   U10       1.0  0.00000  0.89890  0.75000  1.0000 2.3709958977
H   H1        1.0  0.50714  0.86436  0.07385  1.0000 0.1620207962
H   H2        1.0  0.28762  0.83095  0.05831  1.0000 0.1489026297
H   H3        1.0  0.46298  0.35799  0.08147  1.0000 0.1489026297
H   H4        1.0  0.61503  0.19511  0.10560  1.0000 0.139364976
H   H5        1.0  0.58524  0.76947  0.08073  1.0000 0.3037984607
H   H6        1.0  0.42698  0.65424  0.08090  1.0000 0.139364976
H   H7        1.0  0.50032  0.47895  0.09176  1.0000 0.3037984607
H   H8        1.0  0.67899  0.40916  0.09864  1.0000 0.1489026297
H   H9        1.0  0.82778  0.30799  0.11693  1.0000 0.4000565421
H   H10       1.0  0.76904  0.54540  0.04187  1.0000 0.3123670307
H   H11       1.0  0.88886  0.57069  0.05296  1.0000 0.1666120079
H   H12       1.0  0.73751  0.73380  0.99997  1.0000 0.139364976
H   H13       1.0  0.31675  0.37583  0.16531  1.0000 0.139364976
H   H14       1.0  0.10206  0.32411  0.15685  1.0000 0.1489026297
H   H15       1.0  0.95548  0.77979  0.00229  1.0000 0.1337053415
H   H16       1.0  0.38029  0.19937  0.22220  1.0000 0.3123670307
H   H17       1.0  0.25556  0.17121  0.22557  1.0000 0.1620207962
H   H18       1.0  0.09765  0.97449  0.23072  1.0000 0.4123830286
H   H19       1.0  0.03230  0.94096  0.25357  1.0000 0.2531172571
H   H20       1.0  0.35031  0.45989  0.26865  1.0000 0.139364976
H   H21       1.0  0.42048  0.70970  0.25327  1.0000 0.139364976
H   H22       1.0  0.30155  0.68075  0.27030  1.0000 0.139364976
H   H23       1.0  0.49286  0.86436  0.42615  1.0000 0.1620207962
H   H24       1.0  0.71238  0.83095  0.44169  1.0000 0.1489026297
H   H25       1.0  0.53702  0.35799  0.41853  1.0000 0.1489026297
H   H26       1.0  0.38497  0.19511  0.39440  1.0000 0.139364976
H   H27       1.0  0.41476  0.76947  0.41927  1.0000 0.3037984607
H   H28       1.0  0.57302  0.65424  0.41910  1.0000 0.139364976
H   H29       1.0  0.49968  0.47895  0.40824  1.0000 0.3037984607
H   H30       1.0  0.32101  0.40916  0.40136  1.0000 0.1489026297
H   H31       1.0  0.17222  0.30799  0.38307  1.0000 0.4000565421
H   H32       1.0  0.23096  0.54540  0.45813  1.0000 0.3123670307
H   H33       1.0  0.11114  0.57069  0.44704  1.0000 0.1666120079
H   H34       1.0  0.26249  0.73380  0.50003  1.0000 0.139364976
H   H35       1.0  0.68325  0.37583  0.33469  1.0000 0.139364976
H   H36       1.0  0.89794  0.32411  0.34315  1.0000 0.1489026297
H   H37       1.0  0.04452  0.77979  0.49771  1.0000 0.1337053415
H   H38       1.0  0.61971  0.19937  0.27780  1.0000 0.3123670307
H   H39       1.0  0.74444  0.17121  0.27443  1.0000 0.1620207962
H   H40       1.0  0.90235  0.97449  0.26928  1.0000 0.4123830286
H   H41       1.0  0.96770  0.94096  0.24643  1.0000 0.2568042275
H   H42       1.0  0.64969  0.45989  0.23135  1.0000 0.139364976
H   H43       1.0  0.57952  0.70970  0.24673  1.0000 0.139364976
H   H44       1.0  0.69845  0.68075  0.22970  1.0000 0.139364976
H   H45       1.0  0.49286  0.13564  0.92615  1.0000 0.1620207962
H   H46       1.0  0.71238  0.16905  0.94169  1.0000 0.1489026297
H   H47       1.0  0.53702  0.64201  0.91853  1.0000 0.1489026297
H   H48       1.0  0.38497  0.80489  0.89440  1.0000 0.139364976
H   H49       1.0  0.41476  0.23053  0.91927  1.0000 0.3037984607
H   H50       1.0  0.57302  0.34576  0.91910  1.0000 0.139364976
H   H51       1.0  0.49968  0.52105  0.90824  1.0000 0.3037984607
H   H52       1.0  0.32101  0.59084  0.90136  1.0000 0.1489026297
H   H53       1.0  0.17222  0.69201  0.88307  1.0000 0.4000565421
H   H54       1.0  0.23096  0.45460  0.95813  1.0000 0.3123670307
H   H55       1.0  0.11114  0.42931  0.94704  1.0000 0.1666120079
H   H56       1.0  0.26249  0.26620  0.00003  1.0000 0.139364976
H   H57       1.0  0.68325  0.62417  0.83469  1.0000 0.139364976
H   H58       1.0  0.89794  0.67589  0.84315  1.0000 0.1489026297
H   H59       1.0  0.04452  0.22021  0.99771  1.0000 0.1337053415
H   H60       1.0  0.61971  0.80063  0.77780  1.0000 0.3123670307
H   H61       1.0  0.74444  0.82879  0.77443  1.0000 0.1620207962
H   H62       1.0  0.90235  0.02551  0.76928  1.0000 0.4123830286
H   H63       1.0  0.96770  0.05904  0.74643  1.0000 0.2531172571
H   H64       1.0  0.64969  0.54011  0.73135  1.0000 0.139364976
H   H65       1.0  0.57952  0.29030  0.74673  1.0000 0.139364976
H   H66       1.0  0.69845  0.31925  0.72970  1.0000 0.139364976
H   H67       1.0  0.50714  0.13564  0.57385  1.0000 0.1620207962
H   H68       1.0  0.28762  0.16905  0.55831  1.0000 0.1489026297
H   H69       1.0  0.46298  0.64201  0.58147  1.0000 0.1489026297
H   H70       1.0  0.61503  0.80489  0.60560  1.0000 0.139364976
H   H71       1.0  0.58524  0.23053  0.58073  1.0000 0.3037984607
H   H72       1.0  0.42698  0.34576  0.58090  1.0000 0.139364976
H   H73       1.0  0.50032  0.52105  0.59176  1.0000 0.3037984607
H   H74       1.0  0.67899  0.59084  0.59864  1.0000 0.1489026297
H   H75       1.0  0.82778  0.69201  0.61693  1.0000 0.4000565421
H   H76       1.0  0.76904  0.45460  0.54187  1.0000 0.3123670307
H   H77       1.0  0.88886  0.42931  0.55296  1.0000 0.1666120079
H   H78       1.0  0.73751  0.26620  0.49997  1.0000 0.139364976
H   H79       1.0  0.31675  0.62417  0.66531  1.0000 0.139364976
H   H80       1.0  0.10206  0.67589  0.65685  1.0000 0.1489026297
H   H81       1.0  0.95548  0.22021  0.50229  1.0000 0.1337053415
H   H82       1.0  0.38029  0.80063  0.72220  1.0000 0.3123670307
H   H83       1.0  0.25556  0.82879  0.72557  1.0000 0.1620207962
H   H84       1.0  0.09765  0.02551  0.73072  1.0000 0.4123830286
H   H85       1.0  0.03230  0.05904  0.75357  1.0000 0.2568042275
H   H86       1.0  0.35031  0.54011  0.76865  1.0000 0.139364976
H   H87       1.0  0.42048  0.29030  0.75327  1.0000 0.139364976
H   H88       1.0  0.30155  0.31925  0.77030  1.0000 0.139364976
C   C1        1.0  0.38330  0.94240  0.05960  1.0000 0.5713118798
C   C2        1.0  0.46980  0.20870  0.08200  1.0000 0.5564562765
C   C3        1.0  0.39540  0.86040  0.06510  1.0000 0.0045113808
C   C4        1.0  0.53070  0.26690  0.09030  1.0000 0.0228120504
C   C5        1.0  0.46710  0.83180  0.07270  1.0000 -0.1798408932
C   C6        1.0  0.33560  0.81180  0.06340  1.0000 -0.0954996187
C   C7        1.0  0.51230  0.34310  0.08600  1.0000 -0.1798408932
C   C8        1.0  0.60280  0.24600  0.10140  1.0000 -0.1108196757
C   C9        1.0  0.47890  0.75460  0.07860  1.0000 0.2166625944
C   C10       1.0  0.34740  0.73450  0.06930  1.0000 -0.0170195048
C   C11       1.0  0.56750  0.39760  0.08840  1.0000 0.2568042275
C   C12       1.0  0.65810  0.29730  0.10700  1.0000 -0.0011866342
C   C13       1.0  0.41910  0.70590  0.07690  1.0000 -0.1721974078
C   C14       1.0  0.28380  0.68370  0.07050  1.0000 0.5529232111
C   C15       1.0  0.64130  0.37400  0.09830  1.0000 -0.161984476
C   C16       1.0  0.73790  0.26940  0.11490  1.0000 0.5306409684
C   C17       1.0  0.58580  0.66220  0.07740  1.0000 0.5186970991
C   C18       1.0  0.58410  0.53550  0.07700  1.0000 0.5186970991
C   C19       1.0  0.68470  0.59860  0.05560  1.0000 0.5306409684
C   C20       1.0  0.18950  0.43750  0.13150  1.0000 0.5713118798
C   C21       1.0  0.80790  0.64590  0.03530  1.0000 0.2292082992
C   C22       1.0  0.20740  0.36260  0.15970  1.0000 -0.0114286677
C   C23       1.0  0.87820  0.62120  0.04310  1.0000 -0.1721974078
C   C24       1.0  0.78710  0.71980  0.01100  1.0000 -0.1509937017
C   C25       1.0  0.28060  0.34160  0.17320  1.0000 -0.1403241295
C   C26       1.0  0.15190  0.31140  0.16930  1.0000 -0.0707994427
C   C27       1.0  0.93490  0.67270  0.03260  1.0000 -0.0114286677
C   C28       1.0  0.84420  0.77190  0.00450  1.0000 -0.0170195048
C   C29       1.0  0.30160  0.27100  0.20050  1.0000 0.2568042275
C   C30       1.0  0.17350  0.24140  0.19470  1.0000 0.0228120504
C   C31       1.0  0.91850  0.74700  0.01090  1.0000 -0.0873371589
C   C32       1.0  0.01080  0.64530  0.04410  1.0000 0.5529232111
C   C33       1.0  0.82740  0.85210  0.98400  1.0000 0.5835140881
C   C34       1.0  0.24350  0.21960  0.20930  1.0000 -0.1509937017
C   C35       1.0  0.11490  0.18430  0.20940  1.0000 0.5713118798
C   C36       1.0  0.43760  0.28750  0.23640  1.0000 0.5186970991
C   C37       1.0  0.43550  0.52740  0.25460  1.0000 0.1489026297
C   C38       1.0  0.45650  0.60230  0.24990  1.0000 0.0228120504
C   C39       1.0  0.36440  0.51000  0.26560  1.0000 -0.1403241295
C   C40       1.0  0.40640  0.65960  0.25630  1.0000 -0.1230626039
C   C41       1.0  0.31430  0.56730  0.27200  1.0000 -0.0312250598
C   C42       1.0  0.33530  0.64220  0.26740  1.0000 -0.0589985053
C   C43       1.0  0.24220  0.54600  0.28700  1.0000 0.5186970991
C   C44       1.0  0.61670  0.94240  0.44040  1.0000 0.5713118798
C   C45       1.0  0.53020  0.20870  0.41800  1.0000 0.5564562765
C   C46       1.0  0.60460  0.86040  0.43490  1.0000 0.0045113808
C   C47       1.0  0.46930  0.26690  0.40970  1.0000 0.0228120504
C   C48       1.0  0.53290  0.83180  0.42730  1.0000 -0.1798408932
C   C49       1.0  0.66440  0.81180  0.43660  1.0000 -0.0873371589
C   C50       1.0  0.48770  0.34310  0.41400  1.0000 -0.1798408932
C   C51       1.0  0.39720  0.24600  0.39860  1.0000 -0.1108196757
C   C52       1.0  0.52110  0.75460  0.42140  1.0000 0.2166625944
C   C53       1.0  0.65260  0.73450  0.43070  1.0000 -0.0170195048
C   C54       1.0  0.43250  0.39760  0.41160  1.0000 0.2568042275
C   C55       1.0  0.34190  0.29730  0.39300  1.0000 -0.0011866342
C   C56       1.0  0.58090  0.70590  0.42310  1.0000 -0.1721974078
C   C57       1.0  0.71620  0.68370  0.42950  1.0000 0.5529232111
C   C58       1.0  0.35870  0.37400  0.40170  1.0000 -0.161984476
C   C59       1.0  0.26210  0.26940  0.38510  1.0000 0.5306409684
C   C60       1.0  0.41420  0.66220  0.42260  1.0000 0.5186970991
C   C61       1.0  0.41590  0.53550  0.42300  1.0000 0.5186970991
C   C62       1.0  0.31530  0.59860  0.44440  1.0000 0.5306409684
C   C63       1.0  0.81050  0.43750  0.36850  1.0000 0.5713118798
C   C64       1.0  0.19210  0.64590  0.46470  1.0000 0.2292082992
C   C65       1.0  0.79260  0.36260  0.34030  1.0000 -0.0114286677
C   C66       1.0  0.12180  0.62120  0.45690  1.0000 -0.1721974078
C   C67       1.0  0.21290  0.71980  0.48900  1.0000 -0.1509937017
C   C68       1.0  0.71940  0.34160  0.32680  1.0000 -0.1403241295
C   C69       1.0  0.84810  0.31140  0.33070  1.0000 -0.0707994427
C   C70       1.0  0.06510  0.67270  0.46740  1.0000 -0.0114286677
C   C71       1.0  0.15580  0.77190  0.49550  1.0000 -0.0114286677
C   C72       1.0  0.69840  0.27100  0.29950  1.0000 0.2568042275
C   C73       1.0  0.82650  0.24140  0.30530  1.0000 0.0228120504
C   C74       1.0  0.08150  0.74700  0.48910  1.0000 -0.0873371589
C   C75       1.0  0.98920  0.64530  0.45590  1.0000 0.5529232111
C   C76       1.0  0.17260  0.85210  0.51600  1.0000 0.5835140881
C   C77       1.0  0.75650  0.21960  0.29070  1.0000 -0.1509937017
C   C78       1.0  0.88510  0.18430  0.29060  1.0000 0.5713118798
C   C79       1.0  0.56240  0.28750  0.26360  1.0000 0.5186970991
C   C80       1.0  0.56450  0.52740  0.24540  1.0000 0.1489026297
C   C81       1.0  0.54350  0.60230  0.25010  1.0000 0.0228120504
C   C82       1.0  0.63560  0.51000  0.23440  1.0000 -0.1403241295
C   C83       1.0  0.59360  0.65960  0.24370  1.0000 -0.1230626039
C   C84       1.0  0.68570  0.56730  0.22800  1.0000 -0.0312250598
C   C85       1.0  0.66470  0.64220  0.23260  1.0000 -0.0589985053
C   C86       1.0  0.75780  0.54600  0.21300  1.0000 0.5186970991
C   C87       1.0  0.61670  0.05760  0.94040  1.0000 0.5713118798
C   C88       1.0  0.53020  0.79130  0.91800  1.0000 0.5564562765
C   C89       1.0  0.60460  0.13960  0.93490  1.0000 0.0045113808
C   C90       1.0  0.46930  0.73310  0.90970  1.0000 0.0228120504
C   C91       1.0  0.53290  0.16820  0.92730  1.0000 -0.1798408932
C   C92       1.0  0.66440  0.18820  0.93660  1.0000 -0.0954996187
C   C93       1.0  0.48770  0.65690  0.91400  1.0000 -0.1798408932
C   C94       1.0  0.39720  0.75400  0.89860  1.0000 -0.1108196757
C   C95       1.0  0.52110  0.24540  0.92140  1.0000 0.2166625944
C   C96       1.0  0.65260  0.26550  0.93070  1.0000 -0.0170195048
C   C97       1.0  0.43250  0.60240  0.91160  1.0000 0.2568042275
C   C98       1.0  0.34190  0.70270  0.89300  1.0000 -0.0011866342
C   C99       1.0  0.58090  0.29410  0.92310  1.0000 -0.1721974078
C   C100      1.0  0.71620  0.31630  0.92950  1.0000 0.5529232111
C   C101      1.0  0.35870  0.62600  0.90170  1.0000 -0.161984476
C   C102      1.0  0.26210  0.73060  0.88510  1.0000 0.5306409684
C   C103      1.0  0.41420  0.33780  0.92260  1.0000 0.5186970991
C   C104      1.0  0.41590  0.46450  0.92300  1.0000 0.5186970991
C   C105      1.0  0.31530  0.40140  0.94440  1.0000 0.5306409684
C   C106      1.0  0.81050  0.56250  0.86850  1.0000 0.5713118798
C   C107      1.0  0.19210  0.35410  0.96470  1.0000 0.2292082992
C   C108      1.0  0.79260  0.63740  0.84030  1.0000 -0.0114286677
C   C109      1.0  0.12180  0.37880  0.95690  1.0000 -0.1721974078
C   C110      1.0  0.21290  0.28020  0.98900  1.0000 -0.1509937017
C   C111      1.0  0.71940  0.65840  0.82680  1.0000 -0.1403241295
C   C112      1.0  0.84810  0.68860  0.83070  1.0000 -0.0707994427
C   C113      1.0  0.06510  0.32730  0.96740  1.0000 -0.0114286677
C   C114      1.0  0.15580  0.22810  0.99550  1.0000 -0.0114286677
C   C115      1.0  0.69840  0.72900  0.79950  1.0000 0.2568042275
C   C116      1.0  0.82650  0.75860  0.80530  1.0000 0.0228120504
C   C117      1.0  0.08150  0.25300  0.98910  1.0000 -0.0873371589
C   C118      1.0  0.98920  0.35470  0.95590  1.0000 0.5529232111
C   C119      1.0  0.17260  0.14790  0.01600  1.0000 0.5835140881
C   C120      1.0  0.75650  0.78040  0.79070  1.0000 -0.1509937017
C   C121      1.0  0.88510  0.81570  0.79060  1.0000 0.5713118798
C   C122      1.0  0.56240  0.71250  0.76360  1.0000 0.5186970991
C   C123      1.0  0.56450  0.47260  0.74540  1.0000 0.1489026297
C   C124      1.0  0.54350  0.39770  0.75010  1.0000 0.0228120504
C   C125      1.0  0.63560  0.49000  0.73440  1.0000 -0.1403241295
C   C126      1.0  0.59360  0.34040  0.74370  1.0000 -0.1230626039
C   C127      1.0  0.68570  0.43270  0.72800  1.0000 -0.0312250598
C   C128      1.0  0.66470  0.35780  0.73260  1.0000 -0.0589985053
C   C129      1.0  0.75780  0.45400  0.71300  1.0000 0.5186970991
C   C130      1.0  0.38330  0.05760  0.55960  1.0000 0.5713118798
C   C131      1.0  0.46980  0.79130  0.58200  1.0000 0.5564562765
C   C132      1.0  0.39540  0.13960  0.56510  1.0000 0.0045113808
C   C133      1.0  0.53070  0.73310  0.59030  1.0000 0.0228120504
C   C134      1.0  0.46710  0.16820  0.57270  1.0000 -0.1798408932
C   C135      1.0  0.33560  0.18820  0.56340  1.0000 -0.0954996187
C   C136      1.0  0.51230  0.65690  0.58600  1.0000 -0.1798408932
C   C137      1.0  0.60280  0.75400  0.60140  1.0000 -0.1108196757
C   C138      1.0  0.47890  0.24540  0.57860  1.0000 0.2166625944
C   C139      1.0  0.34740  0.26550  0.56930  1.0000 -0.0170195048
C   C140      1.0  0.56750  0.60240  0.58840  1.0000 0.2568042275
C   C141      1.0  0.65810  0.70270  0.60700  1.0000 -0.0011866342
C   C142      1.0  0.41910  0.29410  0.57690  1.0000 -0.1721974078
C   C143      1.0  0.28380  0.31630  0.57050  1.0000 0.5529232111
C   C144      1.0  0.64130  0.62600  0.59830  1.0000 -0.161984476
C   C145      1.0  0.73790  0.73060  0.61490  1.0000 0.5306409684
C   C146      1.0  0.58580  0.33780  0.57740  1.0000 0.5186970991
C   C147      1.0  0.58410  0.46450  0.57700  1.0000 0.5186970991
C   C148      1.0  0.68470  0.40140  0.55560  1.0000 0.5306409684
C   C149      1.0  0.18950  0.56250  0.63150  1.0000 0.5713118798
C   C150      1.0  0.80790  0.35410  0.53530  1.0000 0.2292082992
C   C151      1.0  0.20740  0.63740  0.65970  1.0000 -0.0114286677
C   C152      1.0  0.87820  0.37880  0.54310  1.0000 -0.1721974078
C   C153      1.0  0.78710  0.28020  0.51100  1.0000 -0.1509937017
C   C154      1.0  0.28060  0.65840  0.67320  1.0000 -0.1403241295
C   C155      1.0  0.15190  0.68860  0.66930  1.0000 -0.0707994427
C   C156      1.0  0.93490  0.32730  0.53260  1.0000 -0.0114286677
C   C157      1.0  0.84420  0.22810  0.50450  1.0000 -0.0170195048
C   C158      1.0  0.30160  0.72900  0.70050  1.0000 0.2568042275
C   C159      1.0  0.17350  0.75860  0.69470  1.0000 0.0228120504
C   C160      1.0  0.91850  0.25300  0.51090  1.0000 -0.0873371589
C   C161      1.0  0.01080  0.35470  0.54410  1.0000 0.5529232111
C   C162      1.0  0.82740  0.14790  0.48400  1.0000 0.5835140881
C   C163      1.0  0.24350  0.78040  0.70930  1.0000 -0.1509937017
C   C164      1.0  0.11490  0.81570  0.70940  1.0000 0.5713118798
C   C165      1.0  0.43760  0.71250  0.73640  1.0000 0.5186970991
C   C166      1.0  0.43550  0.47260  0.75460  1.0000 0.1489026297
C   C167      1.0  0.45650  0.39770  0.74990  1.0000 0.0228120504
C   C168      1.0  0.36440  0.49000  0.76560  1.0000 -0.1403241295
C   C169      1.0  0.40640  0.34040  0.75630  1.0000 -0.1230626039
C   C170      1.0  0.31430  0.43270  0.77200  1.0000 -0.0312250598
C   C171      1.0  0.33530  0.35780  0.76740  1.0000 -0.0589985053
C   C172      1.0  0.24220  0.45400  0.78700  1.0000 0.5186970991
C   C173      1.0  0.50000  0.39320  0.25000  1.0000 0.4582456437
C   C174      1.0  0.50000  0.60680  0.75000  1.0000 0.4582456437
N   N1        1.0  0.55440  0.73270  0.07940  1.0000 -0.3475668419
N   N2        1.0  0.54550  0.47160  0.08650  1.0000 -0.3275762114
N   N3        1.0  0.65530  0.66610  0.06310  1.0000 -0.5010623131
N   N4        1.0  0.54470  0.60170  0.08230  1.0000 -0.5392106785
N   N5        1.0  0.65250  0.53140  0.06580  1.0000 -0.5101614695
N   N6        1.0  0.75410  0.59110  0.04400  1.0000 -0.3100319716
N   N7        1.0  0.37400  0.24740  0.22010  1.0000 -0.3174467299
N   N8        1.0  0.43290  0.36170  0.23670  1.0000 -0.5010623131
N   N9        1.0  0.44560  0.73270  0.42060  1.0000 -0.3475668419
N   N10       1.0  0.45450  0.47160  0.41350  1.0000 -0.3275762114
N   N11       1.0  0.34470  0.66610  0.43690  1.0000 -0.5010623131
N   N12       1.0  0.45530  0.60170  0.41770  1.0000 -0.5392106785
N   N13       1.0  0.34750  0.53140  0.43420  1.0000 -0.5101614695
N   N14       1.0  0.24590  0.59110  0.45600  1.0000 -0.3100319716
N   N15       1.0  0.62600  0.24740  0.27990  1.0000 -0.3174467299
N   N16       1.0  0.56710  0.36170  0.26330  1.0000 -0.5010623131
N   N17       1.0  0.44560  0.26730  0.92060  1.0000 -0.3475668419
N   N18       1.0  0.45450  0.52840  0.91350  1.0000 -0.3275762114
N   N19       1.0  0.34470  0.33390  0.93690  1.0000 -0.5010623131
N   N20       1.0  0.45530  0.39830  0.91770  1.0000 -0.5392106785
N   N21       1.0  0.34750  0.46860  0.93420  1.0000 -0.5101614695
N   N22       1.0  0.24590  0.40890  0.95600  1.0000 -0.3100319716
N   N23       1.0  0.62600  0.75260  0.77990  1.0000 -0.3174467299
N   N24       1.0  0.56710  0.63830  0.76330  1.0000 -0.5010623131
N   N25       1.0  0.55440  0.26730  0.57940  1.0000 -0.3475668419
N   N26       1.0  0.54550  0.52840  0.58650  1.0000 -0.3275762114
N   N27       1.0  0.65530  0.33390  0.56310  1.0000 -0.5010623131
N   N28       1.0  0.54470  0.39830  0.58230  1.0000 -0.5392106785
N   N29       1.0  0.65250  0.46860  0.56580  1.0000 -0.5101614695
N   N30       1.0  0.75410  0.40890  0.54400  1.0000 -0.3100319716
N   N31       1.0  0.37400  0.75260  0.72010  1.0000 -0.3174467299
N   N32       1.0  0.43290  0.63830  0.73670  1.0000 -0.5010623131
N   N33       1.0  0.50000  0.24730  0.25000  1.0000 -0.5010623131
N   N34       1.0  0.50000  0.47430  0.25000  1.0000 -0.2043078157
N   N35       1.0  0.50000  0.75270  0.75000  1.0000 -0.5010623131
N   N36       1.0  0.50000  0.52570  0.75000  1.0000 -0.2043078157
O   O1        1.0  0.31670  0.96970  0.04430  1.0000 -0.5572654916
O   O2        1.0  0.43710  0.98810  0.07140  1.0000 -0.5392106785
O   O3        1.0  0.36560  0.10590  0.96990  1.0000 -0.6596894178
O   O4        1.0  0.35480  0.09340  0.14630  1.0000 -0.6807197023
O   O5        1.0  0.48650  0.14010  0.08990  1.0000 -0.5289092822
O   O6        1.0  0.40220  0.22790  0.07100  1.0000 -0.5841238512
O   O7        1.0  0.24130  0.13160  0.03180  1.0000 -0.6086551262
O   O8        1.0  0.21750  0.70830  0.05450  1.0000 -0.5392106785
O   O9        1.0  0.29370  0.61480  0.08190  1.0000 -0.5289092822
O   O10       1.0  0.75520  0.20540  0.11700  1.0000 -0.426923475
O   O11       1.0  0.78720  0.32450  0.12200  1.0000 -0.4164627542
O   O12       1.0  0.12230  0.46160  0.11690  1.0000 -0.5101614695
O   O13       1.0  0.24070  0.48150  0.11730  1.0000 -0.5572654916
O   O14       1.0  0.15770  0.55470  0.99050  1.0000 -0.6807197023
O   O15       1.0  0.16750  0.61960  0.16200  1.0000 -0.5971881661
O   O16       1.0  0.02710  0.57590  0.06950  1.0000 -0.5572654916
O   O17       1.0  0.06530  0.68520  0.03350  1.0000 -0.5289092822
O   O18       1.0  0.87530  0.89650  0.98220  1.0000 -0.4164627542
O   O19       1.0  0.12480  0.11890  0.22490  1.0000 -0.5101614695
O   O20       1.0  0.05360  0.21540  0.21400  1.0000 -0.5101614695
O   O21       1.0  0.04930  0.09750  0.34400  1.0000 -0.7823820028
O   O22       1.0  0.05550  0.97950  0.24290  1.0000 -0.5971881661
O   O23       1.0  0.20590  0.59690  0.30180  1.0000 -0.3620329115
O   O24       1.0  0.21670  0.48250  0.28720  1.0000 -0.4144201192
O   O25       1.0  0.68330  0.96970  0.45570  1.0000 -0.5572654916
O   O26       1.0  0.56290  0.98810  0.42860  1.0000 -0.5392106785
O   O27       1.0  0.63440  0.10590  0.53010  1.0000 -0.6596894178
O   O28       1.0  0.64520  0.09340  0.35370  1.0000 -0.6807197023
O   O29       1.0  0.51350  0.14010  0.41010  1.0000 -0.5289092822
O   O30       1.0  0.59780  0.22790  0.42900  1.0000 -0.5841238512
O   O31       1.0  0.75870  0.13160  0.46820  1.0000 -0.6086551262
O   O32       1.0  0.78250  0.70830  0.44550  1.0000 -0.5392106785
O   O33       1.0  0.70630  0.61480  0.41810  1.0000 -0.5289092822
O   O34       1.0  0.24480  0.20540  0.38300  1.0000 -0.426923475
O   O35       1.0  0.21280  0.32450  0.37800  1.0000 -0.4164627542
O   O36       1.0  0.87770  0.46160  0.38310  1.0000 -0.5101614695
O   O37       1.0  0.75930  0.48150  0.38270  1.0000 -0.5572654916
O   O38       1.0  0.84230  0.55470  0.50950  1.0000 -0.6807197023
O   O39       1.0  0.83250  0.61960  0.33800  1.0000 -0.5971881661
O   O40       1.0  0.97290  0.57590  0.43050  1.0000 -0.5572654916
O   O41       1.0  0.93470  0.68520  0.46650  1.0000 -0.5289092822
O   O42       1.0  0.12470  0.89650  0.51780  1.0000 -0.4164627542
O   O43       1.0  0.87520  0.11890  0.27510  1.0000 -0.5101614695
O   O44       1.0  0.94640  0.21540  0.28600  1.0000 -0.5101614695
O   O45       1.0  0.95070  0.09750  0.15600  1.0000 -0.7874326322
O   O46       1.0  0.94450  0.97950  0.25710  1.0000 -0.6086551262
O   O47       1.0  0.79410  0.59690  0.19820  1.0000 -0.3620329115
O   O48       1.0  0.78330  0.48250  0.21280  1.0000 -0.4164627542
O   O49       1.0  0.68330  0.03030  0.95570  1.0000 -0.5572654916
O   O50       1.0  0.56290  0.01190  0.92860  1.0000 -0.5392106785
O   O51       1.0  0.63440  0.89410  0.03010  1.0000 -0.6596894178
O   O52       1.0  0.64520  0.90660  0.85370  1.0000 -0.6807197023
O   O53       1.0  0.51350  0.85990  0.91010  1.0000 -0.5289092822
O   O54       1.0  0.59780  0.77210  0.92900  1.0000 -0.5851649258
O   O55       1.0  0.75870  0.86840  0.96820  1.0000 -0.6086551262
O   O56       1.0  0.78250  0.29170  0.94550  1.0000 -0.5392106785
O   O57       1.0  0.70630  0.38520  0.91810  1.0000 -0.5289092822
O   O58       1.0  0.24480  0.79460  0.88300  1.0000 -0.426923475
O   O59       1.0  0.21280  0.67550  0.87800  1.0000 -0.4164627542
O   O60       1.0  0.87770  0.53840  0.88310  1.0000 -0.5101614695
O   O61       1.0  0.75930  0.51850  0.88270  1.0000 -0.5572654916
O   O62       1.0  0.84230  0.44530  0.00950  1.0000 -0.6807197023
O   O63       1.0  0.83250  0.38040  0.83800  1.0000 -0.5971881661
O   O64       1.0  0.97290  0.42410  0.93050  1.0000 -0.5572654916
O   O65       1.0  0.93470  0.31480  0.96650  1.0000 -0.5289092822
O   O66       1.0  0.12470  0.10350  0.01780  1.0000 -0.4164627542
O   O67       1.0  0.87520  0.88110  0.77510  1.0000 -0.5101614695
O   O68       1.0  0.94640  0.78460  0.78600  1.0000 -0.5101614695
O   O69       1.0  0.95070  0.90250  0.65600  1.0000 -0.7874326322
O   O70       1.0  0.94450  0.02050  0.75710  1.0000 -0.5971881661
O   O71       1.0  0.79410  0.40310  0.69820  1.0000 -0.3620329115
O   O72       1.0  0.78330  0.51750  0.71280  1.0000 -0.4164627542
O   O73       1.0  0.31670  0.03030  0.54430  1.0000 -0.5572654916
O   O74       1.0  0.43710  0.01190  0.57140  1.0000 -0.5392106785
O   O75       1.0  0.36560  0.89410  0.46990  1.0000 -0.6596894178
O   O76       1.0  0.35480  0.90660  0.64630  1.0000 -0.6807197023
O   O77       1.0  0.48650  0.85990  0.58990  1.0000 -0.5289092822
O   O78       1.0  0.40220  0.77210  0.57100  1.0000 -0.5841238512
O   O79       1.0  0.24130  0.86840  0.53180  1.0000 -0.6086551262
O   O80       1.0  0.21750  0.29170  0.55450  1.0000 -0.5392106785
O   O81       1.0  0.29370  0.38520  0.58190  1.0000 -0.5289092822
O   O82       1.0  0.75520  0.79460  0.61700  1.0000 -0.426923475
O   O83       1.0  0.78720  0.67550  0.62200  1.0000 -0.4164627542
O   O84       1.0  0.12230  0.53840  0.61690  1.0000 -0.5101614695
O   O85       1.0  0.24070  0.51850  0.61730  1.0000 -0.5572654916
O   O86       1.0  0.15770  0.44530  0.49050  1.0000 -0.6807197023
O   O87       1.0  0.16750  0.38040  0.66200  1.0000 -0.5971881661
O   O88       1.0  0.02710  0.42410  0.56950  1.0000 -0.5572654916
O   O89       1.0  0.06530  0.31480  0.53350  1.0000 -0.5289092822
O   O90       1.0  0.87530  0.10350  0.48220  1.0000 -0.4164627542
O   O91       1.0  0.12480  0.88110  0.72490  1.0000 -0.5101614695
O   O92       1.0  0.05360  0.78460  0.71400  1.0000 -0.5101614695
O   O93       1.0  0.04930  0.90250  0.84400  1.0000 -0.7823820028
O   O94       1.0  0.05550  0.02050  0.74290  1.0000 -0.6086551262
O   O95       1.0  0.20590  0.40310  0.80180  1.0000 -0.3620329115
O   O96       1.0  0.21670  0.51750  0.78720  1.0000 -0.4164627542
