# DDEC6 charges by PACMAN v1.1 (https://github.com/mtap-research/PACMAN-charge/)
data_2020[Zn][ths]3[FSR]2
_chemical_formula_sum              "Zn4 H44 C68 N8 Cl4 O16"
_cell_length_a       11.6044
_cell_length_b       11.6044
_cell_length_c       24.158
_cell_angle_alpha    79.6862
_cell_angle_beta     100.314
_cell_angle_gamma    141.319

_symmetry_space_group_name_H-M    "P 1"
_symmetry_Int_Tables_number       1

loop_
  _symmetry_equiv_pos_as_xyz
  'x, y, z'

loop_
  _atom_site_type_symbol
  _atom_site_label
  _atom_site_symmetry_multiplicity
  _atom_site_fract_x
  _atom_site_fract_y
  _atom_site_fract_z
  _atom_site_occupancy
  _atom_site_charge
Zn  Zn1       1.0  0.68864  0.95692  0.87323  1.0000 0.8521152338
Zn  Zn2       1.0  0.04308  0.31136  0.37323  1.0000 0.8521152338
Zn  Zn3       1.0  0.95692  0.68864  0.62677  1.0000 0.8521152338
Zn  Zn4       1.0  0.31136  0.04308  0.12677  1.0000 0.8521152338
H   H1        1.0  0.64091  0.26077  0.93066  1.0000 0.1321389837
H   H2        1.0  0.81784  0.16294  0.06699  1.0000 0.1321389837
H   H3        1.0  0.80683  0.49705  0.07646  1.0000 0.1525305113
H   H4        1.0  0.69180  0.09280  0.16401  1.0000 0.1321389837
H   H5        1.0  0.24194  0.68564  0.21601  1.0000 0.1525305113
H   H6        1.0  0.10925  0.62911  0.12635  1.0000 0.1196780851
H   H7        1.0  0.91513  0.73411  0.99387  1.0000 0.1321389837
H   H8        1.0  0.41692  0.24280  0.94691  1.0000 0.1321389837
H   H9        1.0  0.84936  0.86936  0.95205  1.0000 0.1596450557
H   H10       1.0  0.34086  0.36756  0.90343  1.0000 0.1596450557
H   H11       1.0  0.80796  0.13334  0.25558  1.0000 0.1525305113
H   H12       1.0  0.73923  0.35909  0.43066  1.0000 0.1321389837
H   H13       1.0  0.83706  0.18216  0.56699  1.0000 0.1321389837
H   H14       1.0  0.50295  0.19317  0.57646  1.0000 0.1525305113
H   H15       1.0  0.90720  0.30820  0.66401  1.0000 0.1321389837
H   H16       1.0  0.31436  0.75806  0.71601  1.0000 0.1525305113
H   H17       1.0  0.37089  0.89075  0.62635  1.0000 0.1196780851
H   H18       1.0  0.26589  0.08487  0.49387  1.0000 0.1321389837
H   H19       1.0  0.75720  0.58308  0.44691  1.0000 0.1321389837
H   H20       1.0  0.13064  0.15064  0.45205  1.0000 0.1596450557
H   H21       1.0  0.63244  0.65914  0.40343  1.0000 0.1596450557
H   H22       1.0  0.86666  0.19204  0.75558  1.0000 0.1525305113
H   H23       1.0  0.26077  0.64091  0.56934  1.0000 0.1321389837
H   H24       1.0  0.16294  0.81784  0.43301  1.0000 0.1321389837
H   H25       1.0  0.49705  0.80683  0.42354  1.0000 0.1525305113
H   H26       1.0  0.09280  0.69180  0.33599  1.0000 0.1321389837
H   H27       1.0  0.68564  0.24194  0.28399  1.0000 0.1525305113
H   H28       1.0  0.62911  0.10925  0.37365  1.0000 0.1196780851
H   H29       1.0  0.73411  0.91513  0.50613  1.0000 0.1321389837
H   H30       1.0  0.24280  0.41692  0.55309  1.0000 0.1321389837
H   H31       1.0  0.86936  0.84936  0.54795  1.0000 0.1596450557
H   H32       1.0  0.36756  0.34086  0.59657  1.0000 0.1596450557
H   H33       1.0  0.13334  0.80796  0.24442  1.0000 0.1525305113
H   H34       1.0  0.35909  0.73923  0.06934  1.0000 0.1321389837
H   H35       1.0  0.18216  0.83706  0.93301  1.0000 0.1321389837
H   H36       1.0  0.19317  0.50295  0.92354  1.0000 0.1525305113
H   H37       1.0  0.30820  0.90720  0.83599  1.0000 0.1321389837
H   H38       1.0  0.75806  0.31436  0.78399  1.0000 0.1525305113
H   H39       1.0  0.89075  0.37089  0.87365  1.0000 0.1196780851
H   H40       1.0  0.08487  0.26589  0.00613  1.0000 0.1321389837
H   H41       1.0  0.58308  0.75720  0.05309  1.0000 0.1321389837
H   H42       1.0  0.15064  0.13064  0.04795  1.0000 0.1596450557
H   H43       1.0  0.65914  0.63244  0.09657  1.0000 0.1596450557
H   H44       1.0  0.19204  0.86666  0.74442  1.0000 0.1525305113
C   C1        1.0  0.68660  0.27880  0.96810  1.0000 -0.2221629272
C   C2        1.0  0.72580  0.19380  0.99400  1.0000 0.0299139566
C   C3        1.0  0.71780  0.39100  0.99960  1.0000 0.1909043392
C   C4        1.0  0.79210  0.21990  0.04990  1.0000 -0.2060775111
C   C5        1.0  0.70550  0.07870  0.96080  1.0000 0.5356486043
C   C6        1.0  0.81950  0.33090  0.08000  1.0000 0.1718132844
C   C7        1.0  0.58630  0.63710  0.92060  1.0000 0.4072186885
C   C8        1.0  0.78550  0.42050  0.05600  1.0000 -0.2285273621
C   C9        1.0  0.80130  0.21150  0.17540  1.0000 0.0383378988
C   C10       1.0  0.12930  0.56530  0.20690  1.0000 -0.2690255443
C   C11       1.0  0.05030  0.53050  0.15300  1.0000 0.0383378988
C   C12       1.0  0.03850  0.41730  0.24870  1.0000 0.4072186885
C   C13       1.0  0.80010  0.66210  0.97500  1.0000 0.0201686675
C   C14       1.0  0.50390  0.36950  0.94700  1.0000 0.0383378988
C   C15       1.0  0.76120  0.74300  0.95010  1.0000 -0.2615310172
C   C16       1.0  0.45810  0.44370  0.92120  1.0000 -0.2506881455
C   C17       1.0  0.87050  0.23550  0.23020  1.0000 -0.2690255443
C   C18       1.0  0.72120  0.31340  0.46810  1.0000 -0.2221629272
C   C19       1.0  0.80620  0.27420  0.49400  1.0000 0.0299139566
C   C20       1.0  0.60900  0.28220  0.49960  1.0000 0.1909043392
C   C21       1.0  0.78010  0.20790  0.54990  1.0000 -0.2060775111
C   C22       1.0  0.92130  0.29450  0.46080  1.0000 0.5356486043
C   C23       1.0  0.66910  0.18050  0.58000  1.0000 0.1718132844
C   C24       1.0  0.36290  0.41370  0.42060  1.0000 0.4072186885
C   C25       1.0  0.57950  0.21450  0.55600  1.0000 -0.2285273621
C   C26       1.0  0.78850  0.19870  0.67540  1.0000 0.0383378988
C   C27       1.0  0.43470  0.87070  0.70690  1.0000 -0.2690255443
C   C28       1.0  0.46950  0.94970  0.65300  1.0000 0.0383378988
C   C29       1.0  0.58270  0.96150  0.74870  1.0000 0.4072186885
C   C30       1.0  0.33790  0.19990  0.47500  1.0000 0.0201686675
C   C31       1.0  0.63050  0.49610  0.44700  1.0000 0.0383378988
C   C32       1.0  0.25700  0.23880  0.45010  1.0000 -0.2615310172
C   C33       1.0  0.55630  0.54190  0.42120  1.0000 -0.2506881455
C   C34       1.0  0.76450  0.12950  0.73020  1.0000 -0.2690255443
C   C35       1.0  0.27880  0.68660  0.53190  1.0000 -0.2221629272
C   C36       1.0  0.19380  0.72580  0.50600  1.0000 0.0299139566
C   C37       1.0  0.39100  0.71780  0.50040  1.0000 0.1909043392
C   C38       1.0  0.21990  0.79210  0.45010  1.0000 -0.2060775111
C   C39       1.0  0.07870  0.70550  0.53920  1.0000 0.5356486043
C   C40       1.0  0.33090  0.81950  0.42000  1.0000 0.1718132844
C   C41       1.0  0.63710  0.58630  0.57940  1.0000 0.4072186885
C   C42       1.0  0.42050  0.78550  0.44400  1.0000 -0.2285273621
C   C43       1.0  0.21150  0.80130  0.32460  1.0000 0.0383378988
C   C44       1.0  0.56530  0.12930  0.29310  1.0000 -0.2615310172
C   C45       1.0  0.53050  0.05030  0.34700  1.0000 0.0383378988
C   C46       1.0  0.41730  0.03850  0.25130  1.0000 0.4072186885
C   C47       1.0  0.66210  0.80010  0.52500  1.0000 0.0201686675
C   C48       1.0  0.36950  0.50390  0.55300  1.0000 0.0383378988
C   C49       1.0  0.74300  0.76120  0.54990  1.0000 -0.2615310172
C   C50       1.0  0.44370  0.45810  0.57880  1.0000 -0.2506881455
C   C51       1.0  0.23550  0.87050  0.26980  1.0000 -0.2759226064
C   C52       1.0  0.31340  0.72120  0.03190  1.0000 -0.2221629272
C   C53       1.0  0.27420  0.80620  0.00600  1.0000 0.0299139566
C   C54       1.0  0.28220  0.60900  0.00040  1.0000 0.1909043392
C   C55       1.0  0.20790  0.78010  0.95010  1.0000 -0.2060775111
C   C56       1.0  0.29450  0.92130  0.03920  1.0000 0.5356486043
C   C57       1.0  0.18050  0.66910  0.92000  1.0000 0.1718132844
C   C58       1.0  0.41370  0.36290  0.07940  1.0000 0.4072186885
C   C59       1.0  0.21450  0.57950  0.94400  1.0000 -0.2285273621
C   C60       1.0  0.19870  0.78850  0.82460  1.0000 0.0383378988
C   C61       1.0  0.87070  0.43470  0.79310  1.0000 -0.2690255443
C   C62       1.0  0.94970  0.46950  0.84700  1.0000 0.0383378988
C   C63       1.0  0.96150  0.58270  0.75130  1.0000 0.4072186885
C   C64       1.0  0.19990  0.33790  0.02500  1.0000 0.0201686675
C   C65       1.0  0.49610  0.63050  0.05300  1.0000 0.0383378988
C   C66       1.0  0.23880  0.25700  0.04990  1.0000 -0.2615310172
C   C67       1.0  0.54190  0.55630  0.07880  1.0000 -0.2506881455
C   C68       1.0  0.12950  0.76450  0.76980  1.0000 -0.2759226064
N   N1        1.0  0.67440  0.47540  0.97320  1.0000 0.0201686675
N   N2        1.0  0.89060  0.35840  0.13760  1.0000 0.0299139566
N   N3        1.0  0.52460  0.32560  0.47320  1.0000 0.0201686675
N   N4        1.0  0.64160  0.10940  0.63760  1.0000 0.0299139566
N   N5        1.0  0.47540  0.67440  0.52680  1.0000 0.0201686675
N   N6        1.0  0.35840  0.89060  0.36240  1.0000 0.0299139566
N   N7        1.0  0.32560  0.52460  0.02680  1.0000 0.0201686675
N   N8        1.0  0.10940  0.64160  0.86240  1.0000 0.0299139566
Cl  Cl1       1.0  0.99239  0.16541  0.86799  1.0000 -0.5601965661
Cl  Cl2       1.0  0.83459  0.00761  0.36799  1.0000 -0.5601965661
Cl  Cl3       1.0  0.16541  0.99239  0.63201  1.0000 -0.5601965661
Cl  Cl4       1.0  0.00761  0.83459  0.13201  1.0000 -0.5601965661
O   O1        1.0  0.10860  0.45420  0.29940  1.0000 -0.489887933
O   O2        1.0  0.64690  0.06190  0.90920  1.0000 -0.5601965661
O   O3        1.0  0.75410  0.01690  0.98380  1.0000 -0.5482272903
O   O4        1.0  0.53970  0.70350  0.89570  1.0000 -0.4702311257
O   O5        1.0  0.54580  0.89140  0.79940  1.0000 -0.489887933
O   O6        1.0  0.93810  0.35310  0.40920  1.0000 -0.5601965661
O   O7        1.0  0.98310  0.24590  0.48380  1.0000 -0.5482272903
O   O8        1.0  0.29650  0.46030  0.39570  1.0000 -0.4702311257
O   O9        1.0  0.45420  0.10860  0.20060  1.0000 -0.489887933
O   O10       1.0  0.06190  0.64690  0.59080  1.0000 -0.5601965661
O   O11       1.0  0.01690  0.75410  0.51620  1.0000 -0.5482272903
O   O12       1.0  0.70350  0.53970  0.60430  1.0000 -0.4702311257
O   O13       1.0  0.89140  0.54580  0.70060  1.0000 -0.489887933
O   O14       1.0  0.35310  0.93810  0.09080  1.0000 -0.5601965661
O   O15       1.0  0.24590  0.98310  0.01620  1.0000 -0.5482272903
O   O16       1.0  0.46030  0.29650  0.10430  1.0000 -0.4702311257
