# DDEC6 charges by PACMAN v1.1 (https://github.com/mtap-research/PACMAN-charge/)
data_2020[Gd][esg]3[FSR]2
_chemical_formula_sum              "Gd4 H72 C112 O32"
_cell_length_a       17.4116
_cell_length_b       17.4116
_cell_length_c       28.7363
_cell_angle_alpha    72.3245
_cell_angle_beta     107.675
_cell_angle_gamma    148.868

_symmetry_space_group_name_H-M    "P 1"
_symmetry_Int_Tables_number       1

loop_
  _symmetry_equiv_pos_as_xyz
  'x, y, z'

loop_
  _atom_site_type_symbol
  _atom_site_label
  _atom_site_symmetry_multiplicity
  _atom_site_fract_x
  _atom_site_fract_y
  _atom_site_fract_z
  _atom_site_occupancy
  _atom_site_charge
Gd  Gd1       1.0  0.57174  0.67138  0.49536  1.0000 1.9975537517
Gd  Gd2       1.0  0.67138  0.57174  0.00464  1.0000 1.9975537517
Gd  Gd3       1.0  0.42826  0.32862  0.50464  1.0000 1.9975537517
Gd  Gd4       1.0  0.32862  0.42826  0.99536  1.0000 1.9975537517
H   H1        1.0  0.43050  0.24726  0.95181  1.0000 0.1381541971
H   H2        1.0  0.36114  0.09602  0.91192  1.0000 0.1193206004
H   H3        1.0  0.01683  0.94401  0.83975  1.0000 0.1116987959
H   H4        1.0  0.08377  0.09379  0.88048  1.0000 0.1116987959
H   H5        1.0  0.21672  0.87386  0.90037  1.0000 0.1193206004
H   H6        1.0  0.00861  0.64279  0.78541  1.0000 0.1193206004
H   H7        1.0  0.03264  0.89244  0.78567  1.0000 0.1193206004
H   H8        1.0  0.35732  0.88160  0.90382  1.0000 0.1193206004
H   H9        1.0  0.40720  0.79042  0.94696  1.0000 0.1381541971
H   H10       1.0  0.02618  0.40474  0.88707  1.0000 0.1272450061
H   H11       1.0  0.97105  0.49159  0.84680  1.0000 0.1193206004
H   H12       1.0  0.80009  0.51177  0.73438  1.0000 0.1193206004
H   H13       1.0  0.66548  0.44012  0.65904  1.0000 0.1381541971
H   H14       1.0  0.87091  0.82557  0.63024  1.0000 0.1193206004
H   H15       1.0  0.01077  0.90023  0.70520  1.0000 0.1193206004
H   H16       1.0  0.62816  0.69830  0.62349  1.0000 0.0994614235
H   H17       1.0  0.63877  0.79757  0.62286  1.0000 0.0994614235
H   H18       1.0  0.48467  0.62329  0.62749  1.0000 0.0994614235
H   H19       1.0  0.24726  0.43050  0.54819  1.0000 0.1381541971
H   H20       1.0  0.09602  0.36114  0.58808  1.0000 0.1193206004
H   H21       1.0  0.94401  0.01683  0.66025  1.0000 0.1116987959
H   H22       1.0  0.09379  0.08377  0.61952  1.0000 0.1116987959
H   H23       1.0  0.87386  0.21672  0.59963  1.0000 0.1193206004
H   H24       1.0  0.64279  0.00861  0.71459  1.0000 0.1193206004
H   H25       1.0  0.89244  0.03264  0.71433  1.0000 0.1193206004
H   H26       1.0  0.88160  0.35732  0.59618  1.0000 0.1193206004
H   H27       1.0  0.79042  0.40720  0.55304  1.0000 0.1381541971
H   H28       1.0  0.40474  0.02618  0.61293  1.0000 0.1272450061
H   H29       1.0  0.49159  0.97105  0.65320  1.0000 0.1193206004
H   H30       1.0  0.51177  0.80009  0.76562  1.0000 0.1193206004
H   H31       1.0  0.44012  0.66548  0.84096  1.0000 0.1381541971
H   H32       1.0  0.82557  0.87091  0.86976  1.0000 0.1193206004
H   H33       1.0  0.90023  0.01077  0.79480  1.0000 0.1193206004
H   H34       1.0  0.69830  0.62816  0.87651  1.0000 0.0994614235
H   H35       1.0  0.79757  0.63877  0.87714  1.0000 0.0994614235
H   H36       1.0  0.62329  0.48467  0.87251  1.0000 0.0994614235
H   H37       1.0  0.56950  0.75274  0.04819  1.0000 0.1381541971
H   H38       1.0  0.63886  0.90398  0.08808  1.0000 0.1193206004
H   H39       1.0  0.98317  0.05599  0.16025  1.0000 0.1116987959
H   H40       1.0  0.91623  0.90621  0.11952  1.0000 0.1116987959
H   H41       1.0  0.78328  0.12614  0.09963  1.0000 0.1193206004
H   H42       1.0  0.99139  0.35721  0.21459  1.0000 0.1193206004
H   H43       1.0  0.96736  0.10756  0.21433  1.0000 0.1193206004
H   H44       1.0  0.64268  0.11840  0.09618  1.0000 0.1193206004
H   H45       1.0  0.59280  0.20958  0.05304  1.0000 0.1381541971
H   H46       1.0  0.97382  0.59526  0.11293  1.0000 0.1272450061
H   H47       1.0  0.02895  0.50841  0.15320  1.0000 0.1193206004
H   H48       1.0  0.19991  0.48823  0.26562  1.0000 0.1193206004
H   H49       1.0  0.33452  0.55988  0.34096  1.0000 0.1381541971
H   H50       1.0  0.12909  0.17443  0.36976  1.0000 0.1193206004
H   H51       1.0  0.98923  0.09977  0.29480  1.0000 0.1193206004
H   H52       1.0  0.37184  0.30170  0.37651  1.0000 0.0994614235
H   H53       1.0  0.36123  0.20243  0.37714  1.0000 0.0994614235
H   H54       1.0  0.51533  0.37671  0.37251  1.0000 0.0994614235
H   H55       1.0  0.75274  0.56950  0.45181  1.0000 0.1381541971
H   H56       1.0  0.90398  0.63886  0.41192  1.0000 0.1193206004
H   H57       1.0  0.05599  0.98317  0.33975  1.0000 0.1116987959
H   H58       1.0  0.90621  0.91623  0.38048  1.0000 0.1116987959
H   H59       1.0  0.12614  0.78328  0.40037  1.0000 0.1193206004
H   H60       1.0  0.35721  0.99139  0.28541  1.0000 0.1193206004
H   H61       1.0  0.10756  0.96736  0.28567  1.0000 0.1193206004
H   H62       1.0  0.11840  0.64268  0.40382  1.0000 0.1193206004
H   H63       1.0  0.20958  0.59280  0.44696  1.0000 0.1381541971
H   H64       1.0  0.59526  0.97382  0.38707  1.0000 0.1272450061
H   H65       1.0  0.50841  0.02895  0.34680  1.0000 0.1193206004
H   H66       1.0  0.48823  0.19991  0.23438  1.0000 0.1193206004
H   H67       1.0  0.55988  0.33452  0.15904  1.0000 0.1381541971
H   H68       1.0  0.17443  0.12909  0.13024  1.0000 0.1193206004
H   H69       1.0  0.09977  0.98923  0.20520  1.0000 0.1193206004
H   H70       1.0  0.30170  0.37184  0.12349  1.0000 0.0994614235
H   H71       1.0  0.20243  0.36123  0.12286  1.0000 0.0994614235
H   H72       1.0  0.37671  0.51533  0.12749  1.0000 0.0994614235
C   C1        1.0  0.30035  0.27745  0.94697  1.0000 0.6094694593
C   C2        1.0  0.26356  0.18584  0.92040  1.0000 -0.0301804679
C   C3        1.0  0.34653  0.18587  0.92940  1.0000 -0.0820161706
C   C4        1.0  0.30486  0.09534  0.90530  1.0000 -0.1398409001
C   C5        1.0  0.18181  0.00359  0.87169  1.0000 0.0612790574
C   C6        1.0  0.09991  0.00449  0.86250  1.0000 -0.1561893254
C   C7        1.0  0.14034  0.09486  0.88690  1.0000 -0.0820161706
C   C8        1.0  0.13548  0.90312  0.84690  1.0000 0.085791247
C   C9        1.0  0.16549  0.84691  0.86935  1.0000 -0.1900328101
C   C10       1.0  0.12065  0.75115  0.84652  1.0000 0.0840118656
C   C11       1.0  0.04066  0.70814  0.80065  1.0000 -0.1900328101
C   C12       1.0  0.00793  0.76147  0.77733  1.0000 0.0840118656
C   C13       1.0  0.05525  0.85735  0.80101  1.0000 -0.1900328101
C   C14       1.0  0.15684  0.69536  0.87185  1.0000 0.0738155999
C   C15       1.0  0.28870  0.78430  0.90090  1.0000 -0.1497593607
C   C16       1.0  0.32061  0.73099  0.92590  1.0000 -0.0896684547
C   C17       1.0  0.22545  0.59155  0.91983  1.0000 -0.0211525136
C   C18       1.0  0.09304  0.50096  0.89061  1.0000 -0.0820161706
C   C19       1.0  0.05984  0.55296  0.86669  1.0000 -0.1497593607
C   C20       1.0  0.26158  0.53562  0.94738  1.0000 0.5576078453
C   C21       1.0  0.92004  0.71396  0.72858  1.0000 0.0738155999
C   C22       1.0  0.81552  0.57628  0.71350  1.0000 -0.1497593607
C   C23       1.0  0.73367  0.53233  0.66840  1.0000 -0.0820161706
C   C24       1.0  0.75320  0.62500  0.63741  1.0000 -0.0211525136
C   C25       1.0  0.85649  0.76191  0.65120  1.0000 -0.0896684547
C   C26       1.0  0.94017  0.80643  0.69650  1.0000 -0.1497593607
C   C27       1.0  0.66273  0.57807  0.58841  1.0000 0.6271199444
C   C28       1.0  0.57760  0.70680  0.61290  1.0000 -0.132129374
C   C29       1.0  0.27745  0.30035  0.55303  1.0000 0.6094694593
C   C30       1.0  0.18584  0.26356  0.57960  1.0000 -0.0301804679
C   C31       1.0  0.18587  0.34653  0.57060  1.0000 -0.0820161706
C   C32       1.0  0.09534  0.30486  0.59470  1.0000 -0.1398409001
C   C33       1.0  0.00359  0.18181  0.62831  1.0000 0.0612790574
C   C34       1.0  0.00449  0.09991  0.63750  1.0000 -0.1561893254
C   C35       1.0  0.09486  0.14034  0.61310  1.0000 -0.0820161706
C   C36       1.0  0.90312  0.13548  0.65310  1.0000 0.085791247
C   C37       1.0  0.84691  0.16549  0.63065  1.0000 -0.1900328101
C   C38       1.0  0.75115  0.12065  0.65348  1.0000 0.085791247
C   C39       1.0  0.70814  0.04066  0.69935  1.0000 -0.1900328101
C   C40       1.0  0.76147  0.00793  0.72267  1.0000 0.0840118656
C   C41       1.0  0.85735  0.05525  0.69899  1.0000 -0.1900328101
C   C42       1.0  0.69536  0.15684  0.62815  1.0000 0.0738155999
C   C43       1.0  0.78430  0.28870  0.59910  1.0000 -0.1497593607
C   C44       1.0  0.73099  0.32061  0.57410  1.0000 -0.0896684547
C   C45       1.0  0.59155  0.22545  0.58017  1.0000 -0.0211525136
C   C46       1.0  0.50096  0.09304  0.60939  1.0000 -0.0820161706
C   C47       1.0  0.55296  0.05984  0.63331  1.0000 -0.1497593607
C   C48       1.0  0.53562  0.26158  0.55262  1.0000 0.5576078453
C   C49       1.0  0.71396  0.92004  0.77142  1.0000 0.0738155999
C   C50       1.0  0.57628  0.81552  0.78650  1.0000 -0.1497593607
C   C51       1.0  0.53233  0.73367  0.83160  1.0000 -0.0820161706
C   C52       1.0  0.62500  0.75320  0.86259  1.0000 -0.0211525136
C   C53       1.0  0.76191  0.85649  0.84880  1.0000 -0.0896684547
C   C54       1.0  0.80643  0.94017  0.80350  1.0000 -0.1497593607
C   C55       1.0  0.57807  0.66273  0.91159  1.0000 0.6271199444
C   C56       1.0  0.70680  0.57760  0.88710  1.0000 -0.132129374
C   C57       1.0  0.69965  0.72255  0.05303  1.0000 0.6094694593
C   C58       1.0  0.73644  0.81416  0.07960  1.0000 -0.0301804679
C   C59       1.0  0.65347  0.81413  0.07060  1.0000 -0.0820161706
C   C60       1.0  0.69514  0.90466  0.09470  1.0000 -0.1398409001
C   C61       1.0  0.81819  0.99641  0.12831  1.0000 0.0612790574
C   C62       1.0  0.90009  0.99551  0.13750  1.0000 -0.1561893254
C   C63       1.0  0.85966  0.90514  0.11310  1.0000 -0.0820161706
C   C64       1.0  0.86452  0.09688  0.15310  1.0000 0.085791247
C   C65       1.0  0.83451  0.15309  0.13065  1.0000 -0.1900328101
C   C66       1.0  0.87935  0.24885  0.15348  1.0000 0.085791247
C   C67       1.0  0.95934  0.29186  0.19935  1.0000 -0.1900328101
C   C68       1.0  0.99207  0.23853  0.22267  1.0000 0.0840118656
C   C69       1.0  0.94475  0.14265  0.19899  1.0000 -0.1900328101
C   C70       1.0  0.84316  0.30464  0.12815  1.0000 0.0738155999
C   C71       1.0  0.71130  0.21570  0.09910  1.0000 -0.1497593607
C   C72       1.0  0.67939  0.26901  0.07410  1.0000 -0.0896684547
C   C73       1.0  0.77455  0.40845  0.08017  1.0000 -0.0211525136
C   C74       1.0  0.90696  0.49904  0.10939  1.0000 -0.0820161706
C   C75       1.0  0.94016  0.44704  0.13331  1.0000 -0.1497593607
C   C76       1.0  0.73842  0.46438  0.05262  1.0000 0.5576078453
C   C77       1.0  0.07996  0.28604  0.27142  1.0000 0.0738155999
C   C78       1.0  0.18448  0.42372  0.28650  1.0000 -0.1497593607
C   C79       1.0  0.26633  0.46767  0.33160  1.0000 -0.0820161706
C   C80       1.0  0.24680  0.37500  0.36259  1.0000 -0.0211525136
C   C81       1.0  0.14351  0.23809  0.34880  1.0000 -0.0896684547
C   C82       1.0  0.05983  0.19357  0.30350  1.0000 -0.1497593607
C   C83       1.0  0.33727  0.42193  0.41159  1.0000 0.6271199444
C   C84       1.0  0.42240  0.29320  0.38710  1.0000 -0.132129374
C   C85       1.0  0.72255  0.69965  0.44697  1.0000 0.6094694593
C   C86       1.0  0.81416  0.73644  0.42040  1.0000 -0.0301804679
C   C87       1.0  0.81413  0.65347  0.42940  1.0000 -0.0820161706
C   C88       1.0  0.90466  0.69514  0.40530  1.0000 -0.1398409001
C   C89       1.0  0.99641  0.81819  0.37169  1.0000 0.0612790574
C   C90       1.0  0.99551  0.90009  0.36250  1.0000 -0.1561893254
C   C91       1.0  0.90514  0.85966  0.38690  1.0000 -0.0820161706
C   C92       1.0  0.09688  0.86452  0.34690  1.0000 0.085791247
C   C93       1.0  0.15309  0.83451  0.36935  1.0000 -0.1900328101
C   C94       1.0  0.24885  0.87935  0.34652  1.0000 0.085791247
C   C95       1.0  0.29186  0.95934  0.30065  1.0000 -0.1900328101
C   C96       1.0  0.23853  0.99207  0.27733  1.0000 0.0840118656
C   C97       1.0  0.14265  0.94475  0.30101  1.0000 -0.1900328101
C   C98       1.0  0.30464  0.84316  0.37185  1.0000 0.0738155999
C   C99       1.0  0.21570  0.71130  0.40090  1.0000 -0.1497593607
C   C100      1.0  0.26901  0.67939  0.42590  1.0000 -0.0896684547
C   C101      1.0  0.40845  0.77455  0.41983  1.0000 -0.0211525136
C   C102      1.0  0.49904  0.90696  0.39061  1.0000 -0.0820161706
C   C103      1.0  0.44704  0.94016  0.36669  1.0000 -0.1497593607
C   C104      1.0  0.46438  0.73842  0.44738  1.0000 0.5576078453
C   C105      1.0  0.28604  0.07996  0.22858  1.0000 0.0738155999
C   C106      1.0  0.42372  0.18448  0.21350  1.0000 -0.1497593607
C   C107      1.0  0.46767  0.26633  0.16840  1.0000 -0.0820161706
C   C108      1.0  0.37500  0.24680  0.13741  1.0000 -0.0211525136
C   C109      1.0  0.23809  0.14351  0.15120  1.0000 -0.0896684547
C   C110      1.0  0.19357  0.05983  0.19650  1.0000 -0.1497593607
C   C111      1.0  0.42193  0.33727  0.08841  1.0000 0.6271199444
C   C112      1.0  0.29320  0.42240  0.11290  1.0000 -0.132129374
O   O1        1.0  0.42352  0.37568  0.97314  1.0000 -0.7059519134
O   O2        1.0  0.20669  0.25211  0.94425  1.0000 -0.5602652571
O   O3        1.0  0.37852  0.61668  0.97533  1.0000 -0.5827717773
O   O4        1.0  0.17288  0.40712  0.94236  1.0000 -0.5542464546
O   O5        1.0  0.57511  0.45669  0.57598  1.0000 -0.6044660351
O   O6        1.0  0.68860  0.67180  0.56299  1.0000 -0.6154625407
O   O7        1.0  0.55150  0.70850  0.56410  1.0000 -0.4007513887
O   O8        1.0  0.81794  0.93106  0.51789  1.0000 -0.1900328101
O   O9        1.0  0.37568  0.42352  0.52686  1.0000 -0.7059519134
O   O10       1.0  0.25211  0.20669  0.55575  1.0000 -0.5602652571
O   O11       1.0  0.61668  0.37852  0.52467  1.0000 -0.5827717773
O   O12       1.0  0.40712  0.17288  0.55764  1.0000 -0.5542464546
O   O13       1.0  0.45669  0.57511  0.92402  1.0000 -0.6052484057
O   O14       1.0  0.67180  0.68860  0.93701  1.0000 -0.6154625407
O   O15       1.0  0.70850  0.55150  0.93590  1.0000 -0.4007513887
O   O16       1.0  0.93106  0.81794  0.98211  1.0000 -0.1900328101
O   O17       1.0  0.57648  0.62432  0.02686  1.0000 -0.7059519134
O   O18       1.0  0.79331  0.74789  0.05575  1.0000 -0.5602652571
O   O19       1.0  0.62148  0.38332  0.02467  1.0000 -0.5827717773
O   O20       1.0  0.82712  0.59288  0.05764  1.0000 -0.5542464546
O   O21       1.0  0.42489  0.54331  0.42402  1.0000 -0.6044660351
O   O22       1.0  0.31140  0.32820  0.43701  1.0000 -0.6154625407
O   O23       1.0  0.44850  0.29150  0.43590  1.0000 -0.4007513887
O   O24       1.0  0.18206  0.06894  0.48211  1.0000 -0.1966876677
O   O25       1.0  0.62432  0.57648  0.47314  1.0000 -0.7059519134
O   O26       1.0  0.74789  0.79331  0.44425  1.0000 -0.5602652571
O   O27       1.0  0.38332  0.62148  0.47533  1.0000 -0.5827717773
O   O28       1.0  0.59288  0.82712  0.44236  1.0000 -0.5542464546
O   O29       1.0  0.54331  0.42489  0.07598  1.0000 -0.6052484057
O   O30       1.0  0.32820  0.31140  0.06299  1.0000 -0.6154625407
O   O31       1.0  0.29150  0.44850  0.06410  1.0000 -0.4007513887
O   O32       1.0  0.06894  0.18206  0.01789  1.0000 -0.1900328101
