# DDEC6 charges by PACMAN v1.1 (https://github.com/mtap-research/PACMAN-charge/)
data_2020[CuNb][sql]2[FSR]3
_chemical_formula_sum              "C40 H32 F10 Nb2 Cu2 S4 O10 N8"
_cell_length_a       9.8345
_cell_length_b       19.1172
_cell_length_c       8.56
_cell_angle_alpha    90
_cell_angle_beta     90
_cell_angle_gamma    90

_symmetry_space_group_name_H-M    "P 1"
_symmetry_Int_Tables_number       1

loop_
  _symmetry_equiv_pos_as_xyz
  'x, y, z'

loop_
  _atom_site_type_symbol
  _atom_site_label
  _atom_site_symmetry_multiplicity
  _atom_site_fract_x
  _atom_site_fract_y
  _atom_site_fract_z
  _atom_site_occupancy
  _atom_site_charge
C   C1        1.0  0.20020  0.09970  0.13260  1.0000 0.1065310727
H   H1        1.0  0.16165  0.08439  0.22848  1.0000 0.1280454512
C   C2        1.0  0.30600  0.14650  0.13730  1.0000 -0.1399401891
H   H2        1.0  0.34102  0.16255  0.23434  1.0000 0.1430810357
C   C3        1.0  0.79980  0.90030  0.13260  1.0000 0.1065310727
H   H3        1.0  0.83835  0.91561  0.22848  1.0000 0.1280454512
C   C4        1.0  0.69400  0.85350  0.13730  1.0000 -0.1399401891
H   H4        1.0  0.65898  0.83745  0.23434  1.0000 0.1430810357
C   C5        1.0  0.79980  0.09970  0.86740  1.0000 0.1020894985
H   H5        1.0  0.83835  0.08439  0.77152  1.0000 0.115414467
C   C6        1.0  0.69400  0.14650  0.86270  1.0000 -0.1452372258
H   H6        1.0  0.65898  0.16255  0.76566  1.0000 0.1430810357
C   C7        1.0  0.20020  0.90030  0.86740  1.0000 0.1020894985
H   H7        1.0  0.16165  0.91561  0.77152  1.0000 0.115414467
C   C8        1.0  0.30600  0.85350  0.86270  1.0000 -0.1452372258
H   H8        1.0  0.34102  0.83745  0.76566  1.0000 0.1430810357
C   C9        1.0  0.79980  0.90030  0.86740  1.0000 0.1020894985
H   H9        1.0  0.83835  0.91561  0.77152  1.0000 0.115414467
C   C10       1.0  0.69400  0.85350  0.86270  1.0000 -0.1452372258
H   H10       1.0  0.65898  0.83745  0.76566  1.0000 0.1430810357
C   C11       1.0  0.20020  0.09970  0.86740  1.0000 0.1020894985
H   H11       1.0  0.16165  0.08439  0.77152  1.0000 0.115414467
C   C12       1.0  0.30600  0.14650  0.86270  1.0000 -0.1399401891
H   H12       1.0  0.34102  0.16255  0.76566  1.0000 0.1430810357
C   C13       1.0  0.20020  0.90030  0.13260  1.0000 0.1065310727
H   H13       1.0  0.16165  0.91561  0.22848  1.0000 0.1280454512
C   C14       1.0  0.30600  0.85350  0.13730  1.0000 -0.1399401891
H   H14       1.0  0.34102  0.83745  0.23434  1.0000 0.1430810357
C   C15       1.0  0.79980  0.09970  0.13260  1.0000 0.1065310727
H   H15       1.0  0.83835  0.08439  0.22848  1.0000 0.1280454512
C   C16       1.0  0.69400  0.14650  0.13730  1.0000 -0.1399401891
H   H16       1.0  0.65898  0.16255  0.23434  1.0000 0.1430810357
F   F1        1.0  0.86310  0.93090  0.50000  1.0000 -0.5701099818
F   F2        1.0  0.13690  0.06910  0.50000  1.0000 -0.5701099818
F   F3        1.0  0.13690  0.93090  0.50000  1.0000 -0.5701099818
F   F4        1.0  0.86310  0.06910  0.50000  1.0000 -0.5701099818
Nb  Nb1       1.0  0.00000  0.00000  0.50000  1.0000 2.4116297032
Cu  Cu1       1.0  0.00000  0.00000  0.00000  1.0000 0.6815040375
S   S1        1.0  0.50000  0.22829  0.00000  1.0000 0.9332138563
S   S2        1.0  0.50000  0.77171  0.00000  1.0000 0.9332138563
F   F5        1.0  0.00000  0.00000  0.27470  1.0000 -0.9959543382
O   O1        1.0  0.00000  0.00000  0.72530  1.0000 -0.6130730247
N   N1        1.0  0.14920  0.07480  0.00000  1.0000 -0.1971406618
C   C17       1.0  0.35970  0.16940  0.00000  1.0000 -0.0368850506
N   N2        1.0  0.85080  0.92520  0.00000  1.0000 -0.1971406618
C   C18       1.0  0.64030  0.83060  0.00000  1.0000 -0.0368850506
N   N3        1.0  0.85080  0.07480  0.00000  1.0000 -0.1971406618
C   C19       1.0  0.64030  0.16940  0.00000  1.0000 -0.0368850506
N   N4        1.0  0.14920  0.92520  0.00000  1.0000 -0.1971406618
C   C20       1.0  0.35970  0.83060  0.00000  1.0000 -0.0368850506
O   O2        1.0  0.50000  0.26510  0.14530  1.0000 -0.4872251039
O   O3        1.0  0.50000  0.73490  0.14530  1.0000 -0.4872251039
O   O4        1.0  0.50000  0.26510  0.85470  1.0000 -0.4872251039
O   O5        1.0  0.50000  0.73490  0.85470  1.0000 -0.4872251039
C   C21       1.0  0.70020  0.59970  0.13260  1.0000 0.1065310727
H   H17       1.0  0.66165  0.58439  0.22848  1.0000 0.1280454512
C   C22       1.0  0.80600  0.64650  0.13730  1.0000 -0.1399401891
H   H18       1.0  0.84102  0.66255  0.23434  1.0000 0.1430810357
C   C23       1.0  0.29980  0.40030  0.13260  1.0000 0.1065310727
H   H19       1.0  0.33835  0.41561  0.22848  1.0000 0.1280454512
C   C24       1.0  0.19400  0.35350  0.13730  1.0000 -0.1399401891
H   H20       1.0  0.15898  0.33745  0.23434  1.0000 0.1430810357
C   C25       1.0  0.29980  0.59970  0.86740  1.0000 0.1020894985
H   H21       1.0  0.33835  0.58439  0.77152  1.0000 0.115414467
C   C26       1.0  0.19400  0.64650  0.86270  1.0000 -0.1452372258
H   H22       1.0  0.15898  0.66255  0.76566  1.0000 0.1430810357
C   C27       1.0  0.70020  0.40030  0.86740  1.0000 0.1020894985
H   H23       1.0  0.66165  0.41561  0.77152  1.0000 0.115414467
C   C28       1.0  0.80600  0.35350  0.86270  1.0000 -0.1452372258
H   H24       1.0  0.84102  0.33745  0.76566  1.0000 0.1430810357
C   C29       1.0  0.29980  0.40030  0.86740  1.0000 0.1020894985
H   H25       1.0  0.33835  0.41561  0.77152  1.0000 0.115414467
C   C30       1.0  0.19400  0.35350  0.86270  1.0000 -0.1452372258
H   H26       1.0  0.15898  0.33745  0.76566  1.0000 0.1430810357
C   C31       1.0  0.70020  0.59970  0.86740  1.0000 0.1020894985
H   H27       1.0  0.66165  0.58439  0.77152  1.0000 0.115414467
C   C32       1.0  0.80600  0.64650  0.86270  1.0000 -0.1452372258
H   H28       1.0  0.84102  0.66255  0.76566  1.0000 0.1430810357
C   C33       1.0  0.70020  0.40030  0.13260  1.0000 0.1065310727
H   H29       1.0  0.66165  0.41561  0.22848  1.0000 0.1280454512
C   C34       1.0  0.80600  0.35350  0.13730  1.0000 -0.1399401891
H   H30       1.0  0.84102  0.33745  0.23434  1.0000 0.1430810357
C   C35       1.0  0.29980  0.59970  0.13260  1.0000 0.1065310727
H   H31       1.0  0.33835  0.58439  0.22848  1.0000 0.1280454512
C   C36       1.0  0.19400  0.64650  0.13730  1.0000 -0.1399401891
H   H32       1.0  0.15898  0.66255  0.23434  1.0000 0.1430810357
F   F6        1.0  0.36310  0.43090  0.50000  1.0000 -0.5701099818
F   F7        1.0  0.63690  0.56910  0.50000  1.0000 -0.5701099818
F   F8        1.0  0.63690  0.43090  0.50000  1.0000 -0.5701099818
F   F9        1.0  0.36310  0.56910  0.50000  1.0000 -0.5701099818
Nb  Nb2       1.0  0.50000  0.50000  0.50000  1.0000 2.4116297032
Cu  Cu2       1.0  0.50000  0.50000  0.00000  1.0000 0.6815040375
S   S3        1.0  0.00000  0.72829  0.00000  1.0000 0.9332138563
S   S4        1.0  0.00000  0.27171  0.00000  1.0000 0.9332138563
F   F10       1.0  0.50000  0.50000  0.27470  1.0000 -0.9959543382
O   O6        1.0  0.50000  0.50000  0.72530  1.0000 -0.6130730247
N   N5        1.0  0.64920  0.57480  0.00000  1.0000 -0.1971406618
C   C37       1.0  0.85970  0.66940  0.00000  1.0000 -0.0368850506
N   N6        1.0  0.35080  0.42520  0.00000  1.0000 -0.1971406618
C   C38       1.0  0.14030  0.33060  0.00000  1.0000 -0.0368850506
N   N7        1.0  0.35080  0.57480  0.00000  1.0000 -0.1971406618
C   C39       1.0  0.14030  0.66940  0.00000  1.0000 -0.0368850506
N   N8        1.0  0.64920  0.42520  0.00000  1.0000 -0.1971406618
C   C40       1.0  0.85970  0.33060  0.00000  1.0000 -0.0368850506
O   O7        1.0  0.00000  0.76510  0.14530  1.0000 -0.4872251039
O   O8        1.0  0.00000  0.23490  0.14530  1.0000 -0.4872251039
O   O9        1.0  0.00000  0.76510  0.85470  1.0000 -0.4872251039
O   O10       1.0  0.00000  0.23490  0.85470  1.0000 -0.4872251039
