# DDEC6 charges by PACMAN v1.1 (https://github.com/mtap-research/PACMAN-charge/)
data_2020[Cu][nan]2[FSR]9
_chemical_formula_sum              "Cu4 H68 C88 I4 N12 O4"
_cell_length_a       13.5502
_cell_length_b       13.5502
_cell_length_c       17.8041
_cell_angle_alpha    69.959
_cell_angle_beta     110.041
_cell_angle_gamma    123.908

_symmetry_space_group_name_H-M    "P 1"
_symmetry_Int_Tables_number       1

loop_
  _symmetry_equiv_pos_as_xyz
  'x, y, z'

loop_
  _atom_site_type_symbol
  _atom_site_label
  _atom_site_symmetry_multiplicity
  _atom_site_fract_x
  _atom_site_fract_y
  _atom_site_fract_z
  _atom_site_occupancy
  _atom_site_charge
Cu  Cu1       1.0  0.55016  0.54794  0.06521  1.0000 0.1788643714
Cu  Cu2       1.0  0.54794  0.55016  0.43479  1.0000 0.1788643714
Cu  Cu3       1.0  0.44984  0.45206  0.93479  1.0000 0.1788643714
Cu  Cu4       1.0  0.45206  0.44984  0.56521  1.0000 0.1788643714
H   H1        1.0  0.58363  0.20379  0.44853  1.0000 0.1207328511
H   H2        1.0  0.87226  0.19776  0.61467  1.0000 0.1109223006
H   H3        1.0  0.53325  0.31677  0.34850  1.0000 0.1207328511
H   H4        1.0  0.07656  0.46384  0.41434  1.0000 0.1281326864
H   H5        1.0  0.27342  0.51174  0.43918  1.0000 0.0998638392
H   H6        1.0  0.85382  0.46144  0.28738  1.0000 0.1281326864
H   H7        1.0  0.78155  0.54243  0.15939  1.0000 0.0998638392
H   H8        1.0  0.46700  0.39636  0.21941  1.0000 0.0998638392
H   H9        1.0  0.49775  0.12955  0.55523  1.0000 0.1109223006
H   H10       1.0  0.37620  0.98988  0.64949  1.0000 0.1207328511
H   H11       1.0  0.05835  0.27445  0.64406  1.0000 0.1207328511
H   H12       1.0  0.26196  0.34088  0.66587  1.0000 0.0998638392
H   H13       1.0  0.73983  0.01313  0.66881  1.0000 0.1109223006
H   H14       1.0  0.61738  0.87144  0.76021  1.0000 0.1383891444
H   H15       1.0  0.26326  0.74570  0.80609  1.0000 0.1207328511
H   H16       1.0  0.31975  0.88967  0.78186  1.0000 0.1109223006
H   H17       1.0  0.26176  0.81194  0.71236  1.0000 0.1207328511
H   H18       1.0  0.20379  0.58363  0.05147  1.0000 0.1207328511
H   H19       1.0  0.19776  0.87226  0.88533  1.0000 0.1109223006
H   H20       1.0  0.31677  0.53325  0.15150  1.0000 0.1207328511
H   H21       1.0  0.46384  0.07656  0.08566  1.0000 0.1281326864
H   H22       1.0  0.51174  0.27342  0.06082  1.0000 0.0998638392
H   H23       1.0  0.46144  0.85382  0.21262  1.0000 0.1281326864
H   H24       1.0  0.54243  0.78155  0.34061  1.0000 0.0998638392
H   H25       1.0  0.39636  0.46700  0.28059  1.0000 0.0998638392
H   H26       1.0  0.12955  0.49775  0.94477  1.0000 0.1109223006
H   H27       1.0  0.98988  0.37620  0.85051  1.0000 0.1207328511
H   H28       1.0  0.27445  0.05835  0.85594  1.0000 0.1207328511
H   H29       1.0  0.34088  0.26196  0.83413  1.0000 0.0998638392
H   H30       1.0  0.01313  0.73983  0.83119  1.0000 0.1109223006
H   H31       1.0  0.87144  0.61738  0.73979  1.0000 0.1383891444
H   H32       1.0  0.74570  0.26326  0.69391  1.0000 0.1207328511
H   H33       1.0  0.88967  0.31975  0.71814  1.0000 0.1109223006
H   H34       1.0  0.81194  0.26176  0.78764  1.0000 0.1207328511
H   H35       1.0  0.41637  0.79621  0.55147  1.0000 0.1207328511
H   H36       1.0  0.12774  0.80224  0.38533  1.0000 0.1109223006
H   H37       1.0  0.46675  0.68323  0.65150  1.0000 0.1207328511
H   H38       1.0  0.92344  0.53616  0.58566  1.0000 0.1281326864
H   H39       1.0  0.72658  0.48826  0.56082  1.0000 0.0998638392
H   H40       1.0  0.14618  0.53856  0.71262  1.0000 0.1281326864
H   H41       1.0  0.21845  0.45757  0.84061  1.0000 0.0998638392
H   H42       1.0  0.53300  0.60364  0.78059  1.0000 0.0998638392
H   H43       1.0  0.50225  0.87045  0.44477  1.0000 0.1109223006
H   H44       1.0  0.62380  0.01012  0.35051  1.0000 0.1207328511
H   H45       1.0  0.94165  0.72555  0.35594  1.0000 0.1207328511
H   H46       1.0  0.73804  0.65912  0.33413  1.0000 0.0998638392
H   H47       1.0  0.26017  0.98687  0.33119  1.0000 0.1109223006
H   H48       1.0  0.38262  0.12856  0.23979  1.0000 0.1383891444
H   H49       1.0  0.73674  0.25430  0.19391  1.0000 0.1207328511
H   H50       1.0  0.68025  0.11033  0.21814  1.0000 0.1109223006
H   H51       1.0  0.73824  0.18806  0.28764  1.0000 0.1207328511
H   H52       1.0  0.79621  0.41637  0.94853  1.0000 0.1207328511
H   H53       1.0  0.80224  0.12774  0.11467  1.0000 0.1109223006
H   H54       1.0  0.68323  0.46675  0.84850  1.0000 0.1207328511
H   H55       1.0  0.53616  0.92344  0.91434  1.0000 0.1281326864
H   H56       1.0  0.48826  0.72658  0.93918  1.0000 0.0998638392
H   H57       1.0  0.53856  0.14618  0.78738  1.0000 0.1281326864
H   H58       1.0  0.45757  0.21845  0.65939  1.0000 0.0998638392
H   H59       1.0  0.60364  0.53300  0.71941  1.0000 0.0998638392
H   H60       1.0  0.87045  0.50225  0.05523  1.0000 0.1109223006
H   H61       1.0  0.01012  0.62380  0.14949  1.0000 0.1207328511
H   H62       1.0  0.72555  0.94165  0.14406  1.0000 0.1207328511
H   H63       1.0  0.65912  0.73804  0.16587  1.0000 0.0998638392
H   H64       1.0  0.98687  0.26017  0.16881  1.0000 0.1109223006
H   H65       1.0  0.12856  0.38262  0.26021  1.0000 0.1383891444
H   H66       1.0  0.25430  0.73674  0.30609  1.0000 0.1207328511
H   H67       1.0  0.11033  0.68025  0.28186  1.0000 0.1109223006
H   H68       1.0  0.18806  0.73824  0.21236  1.0000 0.1207328511
C   C1        1.0  0.66810  0.23190  0.46620  1.0000 -0.2200000693
C   C2        1.0  0.70190  0.37810  0.33260  1.0000 0.0891681875
C   C3        1.0  0.71130  0.18130  0.54280  1.0000 0.1207328511
C   C4        1.0  0.74710  0.32270  0.41560  1.0000 0.2056998353
C   C5        1.0  0.83700  0.22720  0.56260  1.0000 -0.2454090935
C   C6        1.0  0.90940  0.31380  0.50790  1.0000 0.1987038146
C   C7        1.0  0.58580  0.36180  0.31040  1.0000 -0.1802308171
C   C8        1.0  0.11100  0.43280  0.46610  1.0000 -0.1706790772
C   C9        1.0  0.22910  0.46250  0.48190  1.0000 0.0681161424
C   C10       1.0  0.77330  0.44690  0.27450  1.0000 -0.1802308171
C   C11       1.0  0.63350  0.08850  0.60030  1.0000 0.0308664184
C   C12       1.0  0.04120  0.35820  0.52440  1.0000 0.0891681875
C   C13       1.0  0.73000  0.49540  0.19810  1.0000 0.0681161424
C   C14       1.0  0.48540  0.91780  0.71590  1.0000 0.2461101453
C   C15       1.0  0.54760  0.41060  0.23360  1.0000 0.0681161424
C   C16       1.0  0.52320  0.07780  0.59730  1.0000 -0.1209473122
C   C17       1.0  0.45050  0.99470  0.65340  1.0000 -0.2308890183
C   C18       1.0  0.10120  0.32400  0.60060  1.0000 -0.2015997019
C   C19       1.0  0.22230  0.36190  0.61280  1.0000 0.0606250282
C   C20       1.0  0.66550  0.00850  0.66410  1.0000 -0.1269441448
C   C21       1.0  0.59360  0.92520  0.71920  1.0000 -0.209372956
C   C22       1.0  0.30790  0.81910  0.76820  1.0000 -0.2420964051
C   C23       1.0  0.23190  0.66810  0.03380  1.0000 -0.2200000693
C   C24       1.0  0.37810  0.70190  0.16740  1.0000 0.0891681875
C   C25       1.0  0.18130  0.71130  0.95720  1.0000 0.1207328511
C   C26       1.0  0.32270  0.74710  0.08440  1.0000 0.2056998353
C   C27       1.0  0.22720  0.83700  0.93740  1.0000 -0.2454090935
C   C28       1.0  0.31380  0.90940  0.99210  1.0000 0.1987038146
C   C29       1.0  0.36180  0.58580  0.18960  1.0000 -0.1802308171
C   C30       1.0  0.43280  0.11100  0.03390  1.0000 -0.1706790772
C   C31       1.0  0.46250  0.22910  0.01810  1.0000 0.0681161424
C   C32       1.0  0.44690  0.77330  0.22550  1.0000 -0.1802308171
C   C33       1.0  0.08850  0.63350  0.89970  1.0000 0.0308664184
C   C34       1.0  0.35820  0.04120  0.97560  1.0000 0.0891681875
C   C35       1.0  0.49540  0.73000  0.30190  1.0000 0.0681161424
C   C36       1.0  0.91780  0.48540  0.78410  1.0000 0.2461101453
C   C37       1.0  0.41060  0.54760  0.26640  1.0000 0.0681161424
C   C38       1.0  0.07780  0.52320  0.90270  1.0000 -0.1209473122
C   C39       1.0  0.99470  0.45050  0.84660  1.0000 -0.2308890183
C   C40       1.0  0.32400  0.10120  0.89940  1.0000 -0.2015997019
C   C41       1.0  0.36190  0.22230  0.88720  1.0000 0.0606250282
C   C42       1.0  0.00850  0.66550  0.83590  1.0000 -0.1269441448
C   C43       1.0  0.92520  0.59360  0.78080  1.0000 -0.209372956
C   C44       1.0  0.81910  0.30790  0.73180  1.0000 -0.2420964051
C   C45       1.0  0.33190  0.76810  0.53380  1.0000 -0.2200000693
C   C46       1.0  0.29810  0.62190  0.66740  1.0000 0.0891681875
C   C47       1.0  0.28870  0.81870  0.45720  1.0000 0.1207328511
C   C48       1.0  0.25290  0.67730  0.58440  1.0000 0.2056998353
C   C49       1.0  0.16300  0.77280  0.43740  1.0000 -0.2454090935
C   C50       1.0  0.09060  0.68620  0.49210  1.0000 0.1987038146
C   C51       1.0  0.41420  0.63820  0.68960  1.0000 -0.1802308171
C   C52       1.0  0.88900  0.56720  0.53390  1.0000 -0.1706790772
C   C53       1.0  0.77090  0.53750  0.51810  1.0000 0.0681161424
C   C54       1.0  0.22670  0.55310  0.72550  1.0000 -0.1802308171
C   C55       1.0  0.36650  0.91150  0.39970  1.0000 0.0308664184
C   C56       1.0  0.95880  0.64180  0.47560  1.0000 0.0891681875
C   C57       1.0  0.27000  0.50460  0.80190  1.0000 0.0681161424
C   C58       1.0  0.51460  0.08220  0.28410  1.0000 0.2461101453
C   C59       1.0  0.45240  0.58940  0.76640  1.0000 0.0681161424
C   C60       1.0  0.47680  0.92220  0.40270  1.0000 -0.1209473122
C   C61       1.0  0.54950  0.00530  0.34660  1.0000 -0.2308890183
C   C62       1.0  0.89880  0.67600  0.39940  1.0000 -0.2015997019
C   C63       1.0  0.77770  0.63810  0.38720  1.0000 0.0606250282
C   C64       1.0  0.33450  0.99150  0.33590  1.0000 -0.1269441448
C   C65       1.0  0.40640  0.07480  0.28080  1.0000 -0.209372956
C   C66       1.0  0.69210  0.18090  0.23180  1.0000 -0.2420964051
C   C67       1.0  0.76810  0.33190  0.96620  1.0000 -0.2200000693
C   C68       1.0  0.62190  0.29810  0.83260  1.0000 0.0891681875
C   C69       1.0  0.81870  0.28870  0.04280  1.0000 0.1207328511
C   C70       1.0  0.67730  0.25290  0.91560  1.0000 0.2056998353
C   C71       1.0  0.77280  0.16300  0.06260  1.0000 -0.2454090935
C   C72       1.0  0.68620  0.09060  0.00790  1.0000 0.1987038146
C   C73       1.0  0.63820  0.41420  0.81040  1.0000 -0.1802308171
C   C74       1.0  0.56720  0.88900  0.96610  1.0000 -0.1706790772
C   C75       1.0  0.53750  0.77090  0.98190  1.0000 0.0681161424
C   C76       1.0  0.55310  0.22670  0.77450  1.0000 -0.1802308171
C   C77       1.0  0.91150  0.36650  0.10030  1.0000 0.0308664184
C   C78       1.0  0.64180  0.95880  0.02440  1.0000 0.0891681875
C   C79       1.0  0.50460  0.27000  0.69810  1.0000 0.0681161424
C   C80       1.0  0.08220  0.51460  0.21590  1.0000 0.2461101453
C   C81       1.0  0.58940  0.45240  0.73360  1.0000 0.0681161424
C   C82       1.0  0.92220  0.47680  0.09730  1.0000 -0.1209473122
C   C83       1.0  0.00530  0.54950  0.15340  1.0000 -0.2308890183
C   C84       1.0  0.67600  0.89880  0.10060  1.0000 -0.2015997019
C   C85       1.0  0.63810  0.77770  0.11280  1.0000 0.0606250282
C   C86       1.0  0.99150  0.33450  0.16410  1.0000 -0.1269441448
C   C87       1.0  0.07480  0.40640  0.21920  1.0000 -0.209372956
C   C88       1.0  0.18090  0.69210  0.26820  1.0000 -0.2420964051
I   I1        1.0  0.31339  0.40129  0.03480  1.0000 -0.4453218613
I   I2        1.0  0.40129  0.31339  0.46520  1.0000 -0.4453218613
I   I3        1.0  0.68661  0.59871  0.96520  1.0000 -0.4453218613
I   I4        1.0  0.59871  0.68661  0.53480  1.0000 -0.4453218613
N   N1        1.0  0.86510  0.36190  0.43390  1.0000 -0.3245655258
N   N2        1.0  0.28670  0.42690  0.55360  1.0000 -0.1706790772
N   N3        1.0  0.61690  0.47790  0.17680  1.0000 -0.1802308171
N   N4        1.0  0.36190  0.86510  0.06610  1.0000 -0.3245655258
N   N5        1.0  0.42690  0.28670  0.94640  1.0000 -0.1706790772
N   N6        1.0  0.47790  0.61690  0.32320  1.0000 -0.1802308171
N   N7        1.0  0.13490  0.63810  0.56610  1.0000 -0.3245655258
N   N8        1.0  0.71330  0.57310  0.44640  1.0000 -0.1706790772
N   N9        1.0  0.38310  0.52210  0.82320  1.0000 -0.1802308171
N   N10       1.0  0.63810  0.13490  0.93390  1.0000 -0.3245655258
N   N11       1.0  0.57310  0.71330  0.05360  1.0000 -0.1706790772
N   N12       1.0  0.52210  0.38310  0.67680  1.0000 -0.1802308171
O   O1        1.0  0.42250  0.83390  0.77420  1.0000 -0.1372867558
O   O2        1.0  0.83390  0.42250  0.72580  1.0000 -0.1372867558
O   O3        1.0  0.57750  0.16610  0.22580  1.0000 -0.1372867558
O   O4        1.0  0.16610  0.57750  0.27420  1.0000 -0.1372867558
