# DDEC6 charges by PACMAN v1.1 (https://github.com/mtap-research/PACMAN-charge/)
data_2020[Cu][nan]2[FSR]12
_chemical_formula_sum              "Cu4 H68 C88 I4 N12 O4"
_cell_length_a       13.5188
_cell_length_b       13.5188
_cell_length_c       17.6759
_cell_angle_alpha    70.2117
_cell_angle_beta     109.788
_cell_angle_gamma    123.857

_symmetry_space_group_name_H-M    "P 1"
_symmetry_Int_Tables_number       1

loop_
  _symmetry_equiv_pos_as_xyz
  'x, y, z'

loop_
  _atom_site_type_symbol
  _atom_site_label
  _atom_site_symmetry_multiplicity
  _atom_site_fract_x
  _atom_site_fract_y
  _atom_site_fract_z
  _atom_site_occupancy
  _atom_site_charge
Cu  Cu1       1.0  0.54633  0.55009  0.43449  1.0000 0.1805620751
Cu  Cu2       1.0  0.55009  0.54633  0.06551  1.0000 0.1805620751
Cu  Cu3       1.0  0.45367  0.44991  0.56551  1.0000 0.1805620751
Cu  Cu4       1.0  0.44991  0.45367  0.93449  1.0000 0.1805620751
H   H1        1.0  0.41715  0.79711  0.55016  1.0000 0.1203009495
H   H2        1.0  0.13045  0.81011  0.38388  1.0000 0.1203009495
H   H3        1.0  0.92391  0.53719  0.58357  1.0000 0.1271825561
H   H4        1.0  0.53107  0.60207  0.78016  1.0000 0.0912855819
H   H5        1.0  0.14189  0.53731  0.71179  1.0000 0.1271825561
H   H6        1.0  0.46429  0.68201  0.64912  1.0000 0.1203009495
H   H7        1.0  0.21710  0.45664  0.83968  1.0000 0.1001728561
H   H8        1.0  0.74077  0.67421  0.33587  1.0000 0.1001728561
H   H9        1.0  0.50619  0.87633  0.44693  1.0000 0.1118160485
H   H10       1.0  0.72186  0.47814  0.55744  1.0000 0.1001728561
H   H11       1.0  0.94246  0.73614  0.35508  1.0000 0.1203009495
H   H12       1.0  0.63022  0.01426  0.35251  1.0000 0.1203009495
H   H13       1.0  0.26584  0.99322  0.33211  1.0000 0.1118160485
H   H14       1.0  0.39074  0.13364  0.23867  1.0000 0.1375283635
H   H15       1.0  0.69075  0.10845  0.22745  1.0000 0.1118160485
H   H16       1.0  0.74209  0.25003  0.18945  1.0000 0.1203009495
H   H17       1.0  0.75143  0.20343  0.28641  1.0000 0.1203009495
H   H18       1.0  0.79711  0.41715  0.94984  1.0000 0.1203009495
H   H19       1.0  0.81011  0.13045  0.11612  1.0000 0.1203009495
H   H20       1.0  0.53719  0.92391  0.91643  1.0000 0.1271825561
H   H21       1.0  0.60207  0.53107  0.71984  1.0000 0.0912855819
H   H22       1.0  0.53731  0.14189  0.78821  1.0000 0.1271825561
H   H23       1.0  0.68201  0.46429  0.85088  1.0000 0.1203009495
H   H24       1.0  0.45664  0.21710  0.66032  1.0000 0.1001728561
H   H25       1.0  0.67421  0.74077  0.16413  1.0000 0.1001728561
H   H26       1.0  0.87633  0.50619  0.05307  1.0000 0.1118160485
H   H27       1.0  0.47814  0.72186  0.94256  1.0000 0.1001728561
H   H28       1.0  0.73614  0.94246  0.14492  1.0000 0.1271825561
H   H29       1.0  0.01426  0.63022  0.14749  1.0000 0.1203009495
H   H30       1.0  0.99322  0.26584  0.16789  1.0000 0.1118160485
H   H31       1.0  0.13364  0.39074  0.26133  1.0000 0.1375283635
H   H32       1.0  0.10845  0.69075  0.27255  1.0000 0.1118160485
H   H33       1.0  0.25003  0.74209  0.31055  1.0000 0.1203009495
H   H34       1.0  0.20343  0.75143  0.21359  1.0000 0.1203009495
H   H35       1.0  0.58285  0.20289  0.44984  1.0000 0.1203009495
H   H36       1.0  0.86955  0.18989  0.61612  1.0000 0.1203009495
H   H37       1.0  0.07609  0.46281  0.41642  1.0000 0.1271825561
H   H38       1.0  0.46893  0.39793  0.21984  1.0000 0.0912855819
H   H39       1.0  0.85811  0.46269  0.28821  1.0000 0.1271825561
H   H40       1.0  0.53571  0.31799  0.35088  1.0000 0.1203009495
H   H41       1.0  0.78290  0.54336  0.16032  1.0000 0.1001728561
H   H42       1.0  0.25923  0.32579  0.66413  1.0000 0.1001728561
H   H43       1.0  0.49381  0.12367  0.55307  1.0000 0.1118160485
H   H44       1.0  0.27814  0.52186  0.44256  1.0000 0.1001728561
H   H45       1.0  0.05754  0.26386  0.64492  1.0000 0.1203009495
H   H46       1.0  0.36978  0.98574  0.64749  1.0000 0.1203009495
H   H47       1.0  0.73416  0.00678  0.66789  1.0000 0.1118160485
H   H48       1.0  0.60926  0.86636  0.76133  1.0000 0.1375283635
H   H49       1.0  0.30925  0.89155  0.77255  1.0000 0.1118160485
H   H50       1.0  0.25791  0.74997  0.81055  1.0000 0.1203009495
H   H51       1.0  0.24857  0.79657  0.71359  1.0000 0.1203009495
H   H52       1.0  0.20289  0.58285  0.05016  1.0000 0.1203009495
H   H53       1.0  0.18989  0.86955  0.88388  1.0000 0.1203009495
H   H54       1.0  0.46281  0.07609  0.08357  1.0000 0.1271825561
H   H55       1.0  0.39793  0.46893  0.28016  1.0000 0.0912855819
H   H56       1.0  0.46269  0.85811  0.21179  1.0000 0.1271825561
H   H57       1.0  0.31799  0.53571  0.14912  1.0000 0.1203009495
H   H58       1.0  0.54336  0.78290  0.33968  1.0000 0.1001728561
H   H59       1.0  0.32579  0.25923  0.83587  1.0000 0.1001728561
H   H60       1.0  0.12367  0.49381  0.94693  1.0000 0.1118160485
H   H61       1.0  0.52186  0.27814  0.05744  1.0000 0.1001728561
H   H62       1.0  0.26386  0.05754  0.85508  1.0000 0.1203009495
H   H63       1.0  0.98574  0.36978  0.85251  1.0000 0.1203009495
H   H64       1.0  0.00678  0.73416  0.83211  1.0000 0.1118160485
H   H65       1.0  0.86636  0.60926  0.73867  1.0000 0.1375283635
H   H66       1.0  0.89155  0.30925  0.72745  1.0000 0.1118160485
H   H67       1.0  0.74997  0.25791  0.68945  1.0000 0.1203009495
H   H68       1.0  0.79657  0.24857  0.78641  1.0000 0.1203009495
C   C1        1.0  0.29651  0.62209  0.66580  1.0000 0.0912855819
C   C2        1.0  0.33288  0.77052  0.53300  1.0000 -0.2229427733
C   C3        1.0  0.25300  0.67980  0.58400  1.0000 0.2043591476
C   C4        1.0  0.28987  0.82313  0.45630  1.0000 0.1271825561
C   C5        1.0  0.16484  0.77916  0.43590  1.0000 -0.2477733606
C   C6        1.0  0.88860  0.56780  0.53190  1.0000 -0.1644561478
C   C7        1.0  0.09086  0.69094  0.49070  1.0000 0.210994128
C   C8        1.0  0.95910  0.64690  0.47310  1.0000 0.0912855819
C   C9        1.0  0.45060  0.58820  0.76590  1.0000 0.0691270566
C   C10       1.0  0.22250  0.55210  0.72420  1.0000 -0.1787940513
C   C11       1.0  0.41190  0.63770  0.68770  1.0000 -0.1787940513
C   C12       1.0  0.26860  0.50460  0.80060  1.0000 0.0691270566
C   C13       1.0  0.77870  0.64650  0.38750  1.0000 0.0645538101
C   C14       1.0  0.37190  0.91710  0.39950  1.0000 0.0335985999
C   C15       1.0  0.48120  0.92760  0.40380  1.0000 -0.1238167697
C   C16       1.0  0.76790  0.53330  0.51600  1.0000 0.0691270566
C   C17       1.0  0.89970  0.68430  0.39860  1.0000 -0.1959988178
C   C18       1.0  0.52090  0.08550  0.28520  1.0000 0.2391605711
C   C19       1.0  0.55580  0.00980  0.34790  1.0000 -0.2229427733
C   C20       1.0  0.33970  0.99670  0.33640  1.0000 -0.1315480584
C   C21       1.0  0.41350  0.07990  0.28060  1.0000 -0.2079165542
C   C22       1.0  0.70160  0.18400  0.23280  1.0000 -0.2397845053
C   C23       1.0  0.62209  0.29651  0.83420  1.0000 0.0912855819
C   C24       1.0  0.77052  0.33288  0.96700  1.0000 -0.2229427733
C   C25       1.0  0.67980  0.25300  0.91600  1.0000 0.2043591476
C   C26       1.0  0.82313  0.28987  0.04370  1.0000 0.1271825561
C   C27       1.0  0.77916  0.16484  0.06410  1.0000 -0.2477733606
C   C28       1.0  0.56780  0.88860  0.96810  1.0000 -0.1644561478
C   C29       1.0  0.69094  0.09086  0.00930  1.0000 0.210994128
C   C30       1.0  0.64690  0.95910  0.02690  1.0000 0.0912855819
C   C31       1.0  0.58820  0.45060  0.73410  1.0000 0.0691270566
C   C32       1.0  0.55210  0.22250  0.77580  1.0000 -0.1787940513
C   C33       1.0  0.63770  0.41190  0.81230  1.0000 -0.1787940513
C   C34       1.0  0.50460  0.26860  0.69940  1.0000 0.0691270566
C   C35       1.0  0.64650  0.77870  0.11250  1.0000 0.0645538101
C   C36       1.0  0.91710  0.37190  0.10050  1.0000 0.0335985999
C   C37       1.0  0.92760  0.48120  0.09620  1.0000 -0.1238167697
C   C38       1.0  0.53330  0.76790  0.98400  1.0000 0.0691270566
C   C39       1.0  0.68430  0.89970  0.10140  1.0000 -0.1959988178
C   C40       1.0  0.08550  0.52090  0.21480  1.0000 0.2391605711
C   C41       1.0  0.00980  0.55580  0.15210  1.0000 -0.2229427733
C   C42       1.0  0.99670  0.33970  0.16360  1.0000 -0.1315480584
C   C43       1.0  0.07990  0.41350  0.21940  1.0000 -0.2079165542
C   C44       1.0  0.18400  0.70160  0.26720  1.0000 -0.2397845053
C   C45       1.0  0.70349  0.37791  0.33420  1.0000 0.0912855819
C   C46       1.0  0.66712  0.22948  0.46700  1.0000 -0.2229427733
C   C47       1.0  0.74700  0.32020  0.41600  1.0000 0.2043591476
C   C48       1.0  0.71013  0.17687  0.54370  1.0000 0.1271825561
C   C49       1.0  0.83516  0.22084  0.56410  1.0000 -0.2477733606
C   C50       1.0  0.11140  0.43220  0.46810  1.0000 -0.1644561478
C   C51       1.0  0.90914  0.30906  0.50930  1.0000 0.210994128
C   C52       1.0  0.04090  0.35310  0.52690  1.0000 0.0912855819
C   C53       1.0  0.54940  0.41180  0.23410  1.0000 0.0691270566
C   C54       1.0  0.77750  0.44790  0.27580  1.0000 -0.1787940513
C   C55       1.0  0.58810  0.36230  0.31230  1.0000 -0.1787940513
C   C56       1.0  0.73140  0.49540  0.19940  1.0000 0.0691270566
C   C57       1.0  0.22130  0.35350  0.61250  1.0000 0.0645538101
C   C58       1.0  0.62810  0.08290  0.60050  1.0000 0.0335985999
C   C59       1.0  0.51880  0.07240  0.59620  1.0000 -0.1238167697
C   C60       1.0  0.23210  0.46670  0.48400  1.0000 0.0691270566
C   C61       1.0  0.10030  0.31570  0.60140  1.0000 -0.1959988178
C   C62       1.0  0.47910  0.91450  0.71480  1.0000 0.2391605711
C   C63       1.0  0.44420  0.99020  0.65210  1.0000 -0.2229427733
C   C64       1.0  0.66030  0.00330  0.66360  1.0000 -0.1315480584
C   C65       1.0  0.58650  0.92010  0.71940  1.0000 -0.2079165542
C   C66       1.0  0.29840  0.81600  0.76720  1.0000 -0.2397845053
C   C67       1.0  0.37791  0.70349  0.16580  1.0000 0.0912855819
C   C68       1.0  0.22948  0.66712  0.03300  1.0000 -0.2229427733
C   C69       1.0  0.32020  0.74700  0.08400  1.0000 0.2043591476
C   C70       1.0  0.17687  0.71013  0.95630  1.0000 0.1271825561
C   C71       1.0  0.22084  0.83516  0.93590  1.0000 -0.2477733606
C   C72       1.0  0.43220  0.11140  0.03190  1.0000 -0.1644561478
C   C73       1.0  0.30906  0.90914  0.99070  1.0000 0.210994128
C   C74       1.0  0.35310  0.04090  0.97310  1.0000 0.0912855819
C   C75       1.0  0.41180  0.54940  0.26590  1.0000 0.0691270566
C   C76       1.0  0.44790  0.77750  0.22420  1.0000 -0.1787940513
C   C77       1.0  0.36230  0.58810  0.18770  1.0000 -0.1787940513
C   C78       1.0  0.49540  0.73140  0.30060  1.0000 0.0691270566
C   C79       1.0  0.35350  0.22130  0.88750  1.0000 0.0645538101
C   C80       1.0  0.08290  0.62810  0.89950  1.0000 0.0335985999
C   C81       1.0  0.07240  0.51880  0.90380  1.0000 -0.1238167697
C   C82       1.0  0.46670  0.23210  0.01600  1.0000 0.0691270566
C   C83       1.0  0.31570  0.10030  0.89860  1.0000 -0.1959988178
C   C84       1.0  0.91450  0.47910  0.78520  1.0000 0.2391605711
C   C85       1.0  0.99020  0.44420  0.84790  1.0000 -0.2229427733
C   C86       1.0  0.00330  0.66030  0.83640  1.0000 -0.1315480584
C   C87       1.0  0.92010  0.58650  0.78060  1.0000 -0.2079165542
C   C88       1.0  0.81600  0.29840  0.73280  1.0000 -0.2397845053
I   I1        1.0  0.39819  0.31237  0.46314  1.0000 -0.4412431532
I   I2        1.0  0.31237  0.39819  0.03686  1.0000 -0.4412431532
I   I3        1.0  0.60181  0.68763  0.53686  1.0000 -0.4412431532
I   I4        1.0  0.68763  0.60181  0.96314  1.0000 -0.4412431532
N   N1        1.0  0.71183  0.57357  0.44490  1.0000 -0.1787940513
N   N2        1.0  0.38130  0.52210  0.82270  1.0000 -0.1894657575
N   N3        1.0  0.13304  0.64056  0.56440  1.0000 -0.3396941685
N   N4        1.0  0.57357  0.71183  0.05510  1.0000 -0.1787940513
N   N5        1.0  0.52210  0.38130  0.67730  1.0000 -0.1894657575
N   N6        1.0  0.64056  0.13304  0.93560  1.0000 -0.3396941685
N   N7        1.0  0.28817  0.42643  0.55510  1.0000 -0.1787940513
N   N8        1.0  0.61870  0.47790  0.17730  1.0000 -0.1894657575
N   N9        1.0  0.86696  0.35944  0.43560  1.0000 -0.3396941685
N   N10       1.0  0.42643  0.28817  0.94490  1.0000 -0.1787940513
N   N11       1.0  0.47790  0.61870  0.32270  1.0000 -0.1894657575
N   N12       1.0  0.35944  0.86696  0.06440  1.0000 -0.3396941685
O   O1        1.0  0.58670  0.16930  0.22570  1.0000 -0.1493710467
O   O2        1.0  0.16930  0.58670  0.27430  1.0000 -0.1493710467
O   O3        1.0  0.41330  0.83070  0.77430  1.0000 -0.1493710467
O   O4        1.0  0.83070  0.41330  0.72570  1.0000 -0.1493710467
