# DDEC6 charges by PACMAN v1.1 (https://github.com/mtap-research/PACMAN-charge/)
data_2020[Zn][cds]3[FSR]1
_chemical_formula_sum              "Zn4 H112 C152 N8 O24"
_cell_length_a       15.7539
_cell_length_b       15.7539
_cell_length_c       20.0775
_cell_angle_alpha    76.7996
_cell_angle_beta     103.2
_cell_angle_gamma    67.1136

_symmetry_space_group_name_H-M    "P 1"
_symmetry_Int_Tables_number       1

loop_
  _symmetry_equiv_pos_as_xyz
  'x, y, z'

loop_
  _atom_site_type_symbol
  _atom_site_label
  _atom_site_symmetry_multiplicity
  _atom_site_fract_x
  _atom_site_fract_y
  _atom_site_fract_z
  _atom_site_occupancy
  _atom_site_charge
Zn  Zn1       1.0  0.56978  0.39812  0.61445  1.0000 0.8109765322
Zn  Zn2       1.0  0.39812  0.56978  0.88555  1.0000 0.8109765322
Zn  Zn3       1.0  0.43022  0.60188  0.38555  1.0000 0.8109765322
Zn  Zn4       1.0  0.60188  0.43022  0.11445  1.0000 0.8109765322
H   H1        1.0  0.75375  0.38829  0.72108  1.0000 0.1117518587
H   H2        1.0  0.03893  0.27275  0.34468  1.0000 0.1117518587
H   H3        1.0  0.01409  0.36797  0.36529  1.0000 0.1117518587
H   H4        1.0  0.25535  0.48803  0.67537  1.0000 0.1299213837
H   H5        1.0  0.19390  0.13296  0.49161  1.0000 0.1299213837
H   H6        1.0  0.88252  0.32726  0.30721  1.0000 0.1299213837
H   H7        1.0  0.54237  0.59925  0.67157  1.0000 0.1299213837
H   H8        1.0  0.38171  0.82681  0.47992  1.0000 0.1456726164
H   H9        1.0  0.46859  0.87673  0.66553  1.0000 0.1117518587
H   H10       1.0  0.30339  0.28559  0.57861  1.0000 0.119747634
H   H11       1.0  0.32623  0.33047  0.40212  1.0000 0.1117518587
H   H12       1.0  0.44420  0.29382  0.57398  1.0000 0.1117518587
H   H13       1.0  0.39822  0.48986  0.66849  1.0000 0.1117518587
H   H14       1.0  0.93729  0.20903  0.52203  1.0000 0.1299213837
H   H15       1.0  0.67328  0.29062  0.37552  1.0000 0.1117518587
H   H16       1.0  0.16599  0.41621  0.72016  1.0000 0.119747634
H   H17       1.0  0.37439  0.02893  0.59813  1.0000 0.1117518587
H   H18       1.0  0.45695  0.01909  0.56412  1.0000 0.1117518587
H   H19       1.0  0.13320  0.35996  0.53327  1.0000 0.1117518587
H   H20       1.0  0.15775  0.38599  0.35698  1.0000 0.1117518587
H   H21       1.0  0.82586  0.43152  0.51226  1.0000 0.1299213837
H   H22       1.0  0.78168  0.22040  0.49599  1.0000 0.119747634
H   H23       1.0  0.98343  0.36757  0.53054  1.0000 0.1117518587
H   H24       1.0  0.54606  0.70890  0.73012  1.0000 0.1117518587
H   H25       1.0  0.01583  0.42461  0.71725  1.0000 0.1117518587
H   H26       1.0  0.90275  0.38319  0.72702  1.0000 0.119747634
H   H27       1.0  0.42937  0.17323  0.48721  1.0000 0.1117518587
H   H28       1.0  0.67954  0.43426  0.51274  1.0000 0.1117518587
H   H29       1.0  0.38829  0.75375  0.77892  1.0000 0.1117518587
H   H30       1.0  0.27275  0.03893  0.15532  1.0000 0.1117518587
H   H31       1.0  0.36797  0.01409  0.13471  1.0000 0.1117518587
H   H32       1.0  0.48803  0.25535  0.82463  1.0000 0.1299213837
H   H33       1.0  0.13296  0.19390  0.00839  1.0000 0.1299213837
H   H34       1.0  0.32726  0.88252  0.19279  1.0000 0.1299213837
H   H35       1.0  0.59925  0.54237  0.82843  1.0000 0.1299213837
H   H36       1.0  0.82681  0.38171  0.02008  1.0000 0.1456726164
H   H37       1.0  0.87673  0.46859  0.83447  1.0000 0.1117518587
H   H38       1.0  0.28559  0.30339  0.92139  1.0000 0.119747634
H   H39       1.0  0.33047  0.32623  0.09788  1.0000 0.1117518587
H   H40       1.0  0.29382  0.44420  0.92602  1.0000 0.1117518587
H   H41       1.0  0.48986  0.39822  0.83151  1.0000 0.1117518587
H   H42       1.0  0.20903  0.93729  0.97797  1.0000 0.1299213837
H   H43       1.0  0.29062  0.67328  0.12448  1.0000 0.1117518587
H   H44       1.0  0.41621  0.16599  0.77984  1.0000 0.119747634
H   H45       1.0  0.02893  0.37439  0.90187  1.0000 0.1117518587
H   H46       1.0  0.01909  0.45695  0.93588  1.0000 0.1117518587
H   H47       1.0  0.35996  0.13320  0.96673  1.0000 0.1117518587
H   H48       1.0  0.38599  0.15775  0.14302  1.0000 0.1117518587
H   H49       1.0  0.43152  0.82586  0.98774  1.0000 0.1299213837
H   H50       1.0  0.22040  0.78168  0.00401  1.0000 0.119747634
H   H51       1.0  0.36757  0.98343  0.96946  1.0000 0.1117518587
H   H52       1.0  0.70890  0.54606  0.76988  1.0000 0.1117518587
H   H53       1.0  0.42461  0.01583  0.78275  1.0000 0.1117518587
H   H54       1.0  0.38319  0.90275  0.77298  1.0000 0.119747634
H   H55       1.0  0.17323  0.42937  0.01279  1.0000 0.1117518587
H   H56       1.0  0.43426  0.67954  0.98726  1.0000 0.1117518587
H   H57       1.0  0.24625  0.61171  0.27892  1.0000 0.1117518587
H   H58       1.0  0.96107  0.72725  0.65532  1.0000 0.1117518587
H   H59       1.0  0.98591  0.63203  0.63471  1.0000 0.1117518587
H   H60       1.0  0.74465  0.51197  0.32463  1.0000 0.1299213837
H   H61       1.0  0.80610  0.86704  0.50839  1.0000 0.1299213837
H   H62       1.0  0.11748  0.67274  0.69279  1.0000 0.1299213837
H   H63       1.0  0.45763  0.40075  0.32843  1.0000 0.1299213837
H   H64       1.0  0.61829  0.17319  0.52008  1.0000 0.1456726164
H   H65       1.0  0.53141  0.12327  0.33447  1.0000 0.1117518587
H   H66       1.0  0.69661  0.71441  0.42139  1.0000 0.119747634
H   H67       1.0  0.67377  0.66953  0.59788  1.0000 0.1117518587
H   H68       1.0  0.55580  0.70618  0.42602  1.0000 0.1117518587
H   H69       1.0  0.60178  0.51014  0.33151  1.0000 0.1117518587
H   H70       1.0  0.06271  0.79097  0.47797  1.0000 0.1299213837
H   H71       1.0  0.32672  0.70938  0.62448  1.0000 0.1117518587
H   H72       1.0  0.83401  0.58379  0.27984  1.0000 0.119747634
H   H73       1.0  0.62561  0.97107  0.40187  1.0000 0.1117518587
H   H74       1.0  0.54305  0.98091  0.43588  1.0000 0.1117518587
H   H75       1.0  0.86680  0.64004  0.46673  1.0000 0.1117518587
H   H76       1.0  0.84225  0.61401  0.64302  1.0000 0.1117518587
H   H77       1.0  0.17414  0.56848  0.48774  1.0000 0.1299213837
H   H78       1.0  0.21832  0.77960  0.50401  1.0000 0.119747634
H   H79       1.0  0.01657  0.63243  0.46946  1.0000 0.1117518587
H   H80       1.0  0.45394  0.29110  0.26988  1.0000 0.1117518587
H   H81       1.0  0.98417  0.57539  0.28275  1.0000 0.1117518587
H   H82       1.0  0.09725  0.61681  0.27298  1.0000 0.119747634
H   H83       1.0  0.57063  0.82677  0.51279  1.0000 0.1117518587
H   H84       1.0  0.32046  0.56574  0.48726  1.0000 0.1117518587
H   H85       1.0  0.61171  0.24625  0.22108  1.0000 0.1117518587
H   H86       1.0  0.72725  0.96107  0.84468  1.0000 0.1117518587
H   H87       1.0  0.63203  0.98591  0.86529  1.0000 0.1117518587
H   H88       1.0  0.51197  0.74465  0.17537  1.0000 0.1299213837
H   H89       1.0  0.86704  0.80610  0.99161  1.0000 0.1299213837
H   H90       1.0  0.67274  0.11748  0.80721  1.0000 0.1299213837
H   H91       1.0  0.40075  0.45763  0.17157  1.0000 0.1299213837
H   H92       1.0  0.17319  0.61829  0.97992  1.0000 0.1456726164
H   H93       1.0  0.12327  0.53141  0.16553  1.0000 0.1117518587
H   H94       1.0  0.71441  0.69661  0.07861  1.0000 0.119747634
H   H95       1.0  0.66953  0.67377  0.90212  1.0000 0.1117518587
H   H96       1.0  0.70618  0.55580  0.07398  1.0000 0.1117518587
H   H97       1.0  0.51014  0.60178  0.16849  1.0000 0.1117518587
H   H98       1.0  0.79097  0.06271  0.02203  1.0000 0.1299213837
H   H99       1.0  0.70938  0.32672  0.87552  1.0000 0.1117518587
H   H100      1.0  0.58379  0.83401  0.22016  1.0000 0.119747634
H   H101      1.0  0.97107  0.62561  0.09813  1.0000 0.1117518587
H   H102      1.0  0.98091  0.54305  0.06412  1.0000 0.119747634
H   H103      1.0  0.64004  0.86680  0.03327  1.0000 0.1117518587
H   H104      1.0  0.61401  0.84225  0.85698  1.0000 0.1117518587
H   H105      1.0  0.56848  0.17414  0.01226  1.0000 0.1299213837
H   H106      1.0  0.77960  0.21832  0.99599  1.0000 0.119747634
H   H107      1.0  0.63243  0.01657  0.03054  1.0000 0.1117518587
H   H108      1.0  0.29110  0.45394  0.23012  1.0000 0.1117518587
H   H109      1.0  0.57539  0.98417  0.21725  1.0000 0.1117518587
H   H110      1.0  0.61681  0.09725  0.22702  1.0000 0.119747634
H   H111      1.0  0.82677  0.57063  0.98721  1.0000 0.1117518587
H   H112      1.0  0.56574  0.32046  0.01274  1.0000 0.1117518587
C   C1        1.0  0.76881  0.39615  0.67863  1.0000 0.0903696623
C   C2        1.0  0.69792  0.35948  0.25212  1.0000 0.5252970726
C   C3        1.0  0.05051  0.29661  0.38459  1.0000 -0.0846487462
C   C4        1.0  0.29219  0.44819  0.65413  1.0000 -0.1997753038
C   C5        1.0  0.22075  0.17153  0.47235  1.0000 -0.1864901103
C   C6        1.0  0.86190  0.30714  0.34501  1.0000 -0.2647846668
C   C7        1.0  0.88455  0.40433  0.62040  1.0000 0.119747634
C   C8        1.0  0.41707  0.86913  0.56588  1.0000 0.2567902476
C   C9        1.0  0.26053  0.38759  0.62658  1.0000 0.1117518587
C   C10       1.0  0.15901  0.26391  0.41853  1.0000 0.0903696623
C   C11       1.0  0.51141  0.66649  0.64510  1.0000 -0.1491326918
C   C12       1.0  0.46214  0.70278  0.56920  1.0000 -0.0136994302
C   C13       1.0  0.41493  0.80325  0.53013  1.0000 -0.2464158415
C   C14       1.0  0.46663  0.83343  0.64126  1.0000 -0.2464158415
C   C15       1.0  0.32047  0.32829  0.59672  1.0000 -0.2087600534
C   C16       1.0  0.29980  0.29004  0.41892  1.0000 -0.0923410721
C   C17       1.0  0.40544  0.33356  0.59431  1.0000 0.0903696623
C   C18       1.0  0.37851  0.44895  0.64982  1.0000 0.0962987755
C   C19       1.0  0.16568  0.38892  0.62642  1.0000 0.0573375252
C   C20       1.0  0.89455  0.23571  0.47376  1.0000 -0.2087600534
C   C21       1.0  0.45896  0.63284  0.52984  1.0000 0.5699768931
C   C22       1.0  0.73658  0.28420  0.38604  1.0000 -0.1491326918
C   C23       1.0  0.98167  0.39865  0.62279  1.0000 0.0573375252
C   C24       1.0  0.12911  0.40721  0.68164  1.0000 -0.1491326918
C   C25       1.0  0.32280  0.13610  0.49778  1.0000 0.0903696623
C   C26       1.0  0.38837  0.03409  0.55317  1.0000 -0.0923410721
C   C27       1.0  0.10969  0.37351  0.57009  1.0000 -0.1373733497
C   C28       1.0  0.76720  0.31558  0.32995  1.0000 0.0059894257
C   C29       1.0  0.19883  0.32363  0.39231  1.0000 -0.1805016353
C   C30       1.0  0.81371  0.42137  0.55586  1.0000 -0.1997753038
C   C31       1.0  0.80124  0.24300  0.45824  1.0000 -0.0717162296
C   C32       1.0  0.01947  0.37821  0.56846  1.0000 -0.1315958157
C   C33       1.0  0.92470  0.26814  0.41744  1.0000 0.2480956287
C   C34       1.0  0.51314  0.73248  0.67987  1.0000 -0.0717162296
C   C35       1.0  0.03876  0.41216  0.67997  1.0000 -0.1554016128
C   C36       1.0  0.85911  0.39295  0.68266  1.0000 -0.2087600534
C   C37       1.0  0.36157  0.19609  0.47064  1.0000 -0.1805016353
C   C38       1.0  0.72521  0.42321  0.55653  1.0000 0.0903696623
C   C39       1.0  0.39615  0.76881  0.82137  1.0000 0.0903696623
C   C40       1.0  0.35948  0.69792  0.24788  1.0000 0.5252970726
C   C41       1.0  0.29661  0.05051  0.11541  1.0000 -0.0846487462
C   C42       1.0  0.44819  0.29219  0.84587  1.0000 -0.1997753038
C   C43       1.0  0.17153  0.22075  0.02765  1.0000 -0.1864901103
C   C44       1.0  0.30714  0.86190  0.15499  1.0000 -0.2647846668
C   C45       1.0  0.40433  0.88455  0.87960  1.0000 0.119747634
C   C46       1.0  0.86913  0.41707  0.93412  1.0000 0.2567902476
C   C47       1.0  0.38759  0.26053  0.87342  1.0000 0.1117518587
C   C48       1.0  0.26391  0.15901  0.08147  1.0000 0.0903696623
C   C49       1.0  0.66649  0.51141  0.85490  1.0000 -0.1491326918
C   C50       1.0  0.70278  0.46214  0.93080  1.0000 -0.0136994302
C   C51       1.0  0.80325  0.41493  0.96987  1.0000 -0.2464158415
C   C52       1.0  0.83343  0.46663  0.85874  1.0000 -0.2464158415
C   C53       1.0  0.32829  0.32047  0.90328  1.0000 -0.2087600534
C   C54       1.0  0.29004  0.29980  0.08108  1.0000 -0.0923410721
C   C55       1.0  0.33356  0.40544  0.90569  1.0000 0.0903696623
C   C56       1.0  0.44895  0.37851  0.85018  1.0000 0.0962987755
C   C57       1.0  0.38892  0.16568  0.87358  1.0000 0.0573375252
C   C58       1.0  0.23571  0.89455  0.02624  1.0000 -0.2087600534
C   C59       1.0  0.63284  0.45896  0.97016  1.0000 0.5699768931
C   C60       1.0  0.28420  0.73658  0.11396  1.0000 -0.1491326918
C   C61       1.0  0.39865  0.98167  0.87721  1.0000 0.0573375252
C   C62       1.0  0.40721  0.12911  0.81836  1.0000 -0.1491326918
C   C63       1.0  0.13610  0.32280  0.00222  1.0000 0.0903696623
C   C64       1.0  0.03409  0.38837  0.94683  1.0000 -0.0923410721
C   C65       1.0  0.37351  0.10969  0.92991  1.0000 -0.1373733497
C   C66       1.0  0.31558  0.76720  0.17005  1.0000 0.0059894257
C   C67       1.0  0.32363  0.19883  0.10769  1.0000 -0.1805016353
C   C68       1.0  0.42137  0.81371  0.94414  1.0000 -0.1997753038
C   C69       1.0  0.24300  0.80124  0.04176  1.0000 -0.0717162296
C   C70       1.0  0.37821  0.01947  0.93154  1.0000 -0.1315958157
C   C71       1.0  0.26814  0.92470  0.08256  1.0000 0.2480956287
C   C72       1.0  0.73248  0.51314  0.82013  1.0000 -0.0717162296
C   C73       1.0  0.41216  0.03876  0.82003  1.0000 -0.1554016128
C   C74       1.0  0.39295  0.85911  0.81734  1.0000 -0.2087600534
C   C75       1.0  0.19609  0.36157  0.02936  1.0000 -0.1805016353
C   C76       1.0  0.42321  0.72521  0.94347  1.0000 0.0903696623
C   C77       1.0  0.23119  0.60385  0.32137  1.0000 0.0903696623
C   C78       1.0  0.30208  0.64052  0.74788  1.0000 0.5252970726
C   C79       1.0  0.94949  0.70339  0.61541  1.0000 -0.0846487462
C   C80       1.0  0.70781  0.55181  0.34587  1.0000 -0.1997753038
C   C81       1.0  0.77925  0.82847  0.52765  1.0000 -0.1864901103
C   C82       1.0  0.13810  0.69286  0.65499  1.0000 -0.2647846668
C   C83       1.0  0.11545  0.59567  0.37960  1.0000 0.119747634
C   C84       1.0  0.58293  0.13087  0.43412  1.0000 0.2567902476
C   C85       1.0  0.73947  0.61241  0.37342  1.0000 0.1117518587
C   C86       1.0  0.84099  0.73609  0.58147  1.0000 0.0903696623
C   C87       1.0  0.48859  0.33351  0.35490  1.0000 -0.1491326918
C   C88       1.0  0.53786  0.29722  0.43080  1.0000 -0.0136994302
C   C89       1.0  0.58507  0.19675  0.46987  1.0000 -0.2464158415
C   C90       1.0  0.53337  0.16657  0.35874  1.0000 -0.2464158415
C   C91       1.0  0.67953  0.67171  0.40328  1.0000 -0.2087600534
C   C92       1.0  0.70020  0.70996  0.58108  1.0000 -0.0923410721
C   C93       1.0  0.59456  0.66644  0.40569  1.0000 0.0903696623
C   C94       1.0  0.62149  0.55105  0.35018  1.0000 0.0962987755
C   C95       1.0  0.83432  0.61108  0.37358  1.0000 0.0573375252
C   C96       1.0  0.10545  0.76429  0.52624  1.0000 -0.2087600534
C   C97       1.0  0.54104  0.36716  0.47016  1.0000 0.5699768931
C   C98       1.0  0.26342  0.71580  0.61396  1.0000 -0.1491326918
C   C99       1.0  0.01833  0.60135  0.37721  1.0000 0.0573375252
C   C100      1.0  0.87089  0.59279  0.31836  1.0000 -0.1491326918
C   C101      1.0  0.67720  0.86390  0.50222  1.0000 0.0903696623
C   C102      1.0  0.61163  0.96591  0.44683  1.0000 -0.0923410721
C   C103      1.0  0.89031  0.62649  0.42991  1.0000 -0.1373733497
C   C104      1.0  0.23280  0.68442  0.67005  1.0000 0.0059894257
C   C105      1.0  0.80117  0.67637  0.60769  1.0000 -0.1805016353
C   C106      1.0  0.18629  0.57863  0.44414  1.0000 -0.1997753038
C   C107      1.0  0.19876  0.75700  0.54176  1.0000 -0.0717162296
C   C108      1.0  0.98053  0.62179  0.43154  1.0000 -0.1315958157
C   C109      1.0  0.07530  0.73186  0.58256  1.0000 0.2480956287
C   C110      1.0  0.48686  0.26752  0.32013  1.0000 -0.0717162296
C   C111      1.0  0.96124  0.58784  0.32003  1.0000 -0.1554016128
C   C112      1.0  0.14089  0.60705  0.31734  1.0000 -0.2087600534
C   C113      1.0  0.63843  0.80391  0.52936  1.0000 -0.1805016353
C   C114      1.0  0.27479  0.57679  0.44347  1.0000 0.0903696623
C   C115      1.0  0.60385  0.23119  0.17863  1.0000 0.0903696623
C   C116      1.0  0.64052  0.30208  0.75212  1.0000 0.5252970726
C   C117      1.0  0.70339  0.94949  0.88459  1.0000 -0.0846487462
C   C118      1.0  0.55181  0.70781  0.15413  1.0000 -0.1997753038
C   C119      1.0  0.82847  0.77925  0.97235  1.0000 -0.1864901103
C   C120      1.0  0.69286  0.13810  0.84501  1.0000 -0.2647846668
C   C121      1.0  0.59567  0.11545  0.12040  1.0000 0.119747634
C   C122      1.0  0.13087  0.58293  0.06588  1.0000 0.2567902476
C   C123      1.0  0.61241  0.73947  0.12658  1.0000 0.1117518587
C   C124      1.0  0.73609  0.84099  0.91853  1.0000 0.0903696623
C   C125      1.0  0.33351  0.48859  0.14510  1.0000 -0.1491326918
C   C126      1.0  0.29722  0.53786  0.06920  1.0000 -0.0136994302
C   C127      1.0  0.19675  0.58507  0.03013  1.0000 -0.2464158415
C   C128      1.0  0.16657  0.53337  0.14126  1.0000 -0.2464158415
C   C129      1.0  0.67171  0.67953  0.09672  1.0000 -0.2087600534
C   C130      1.0  0.70996  0.70020  0.91892  1.0000 -0.0923410721
C   C131      1.0  0.66644  0.59456  0.09431  1.0000 0.0903696623
C   C132      1.0  0.55105  0.62149  0.14982  1.0000 0.0962987755
C   C133      1.0  0.61108  0.83432  0.12642  1.0000 0.0573375252
C   C134      1.0  0.76429  0.10545  0.97376  1.0000 -0.2087600534
C   C135      1.0  0.36716  0.54104  0.02984  1.0000 0.5699768931
C   C136      1.0  0.71580  0.26342  0.88604  1.0000 -0.1491326918
C   C137      1.0  0.60135  0.01833  0.12279  1.0000 0.0573375252
C   C138      1.0  0.59279  0.87089  0.18164  1.0000 -0.1491326918
C   C139      1.0  0.86390  0.67720  0.99778  1.0000 0.0903696623
C   C140      1.0  0.96591  0.61163  0.05317  1.0000 -0.0923410721
C   C141      1.0  0.62649  0.89031  0.07009  1.0000 -0.1373733497
C   C142      1.0  0.68442  0.23280  0.82995  1.0000 0.0059894257
C   C143      1.0  0.67637  0.80117  0.89231  1.0000 -0.1805016353
C   C144      1.0  0.57863  0.18629  0.05586  1.0000 -0.1997753038
C   C145      1.0  0.75700  0.19876  0.95824  1.0000 -0.0717162296
C   C146      1.0  0.62179  0.98053  0.06846  1.0000 -0.1315958157
C   C147      1.0  0.73186  0.07530  0.91744  1.0000 0.2480956287
C   C148      1.0  0.26752  0.48686  0.17987  1.0000 -0.0717162296
C   C149      1.0  0.58784  0.96124  0.17997  1.0000 -0.1554016128
C   C150      1.0  0.60705  0.14089  0.18266  1.0000 -0.2087600534
C   C151      1.0  0.80391  0.63843  0.97064  1.0000 -0.1805016353
C   C152      1.0  0.57679  0.27479  0.05653  1.0000 0.0903696623
N   N1        1.0  0.43485  0.39309  0.61981  1.0000 -0.2239928424
N   N2        1.0  0.70208  0.40994  0.61681  1.0000 -0.2239928424
N   N3        1.0  0.39309  0.43485  0.88019  1.0000 -0.2239928424
N   N4        1.0  0.40994  0.70208  0.88319  1.0000 -0.2239928424
N   N5        1.0  0.56515  0.60691  0.38019  1.0000 -0.2239928424
N   N6        1.0  0.29792  0.59006  0.38319  1.0000 -0.2239928424
N   N7        1.0  0.60691  0.56515  0.11981  1.0000 -0.2239928424
N   N8        1.0  0.59006  0.29792  0.11681  1.0000 -0.2239928424
O   O1        1.0  0.60672  0.39872  0.23751  1.0000 -0.5490200176
O   O2        1.0  0.73573  0.35417  0.20268  1.0000 -0.5313721627
O   O3        1.0  0.48486  0.54582  0.56737  1.0000 -0.5490200176
O   O4        1.0  0.42741  0.66807  0.46083  1.0000 -0.5438576668
O   O5        1.0  0.36915  0.96645  0.52226  1.0000 -0.1805016353
O   O6        1.0  0.01851  0.25775  0.43949  1.0000 -0.1864901103
O   O7        1.0  0.39872  0.60672  0.26249  1.0000 -0.5490200176
O   O8        1.0  0.35417  0.73573  0.29732  1.0000 -0.5313721627
O   O9        1.0  0.54582  0.48486  0.93263  1.0000 -0.5490200176
O   O10       1.0  0.66807  0.42741  0.03917  1.0000 -0.5438576668
O   O11       1.0  0.96645  0.36915  0.97774  1.0000 -0.1805016353
O   O12       1.0  0.25775  0.01851  0.06051  1.0000 -0.1864901103
O   O13       1.0  0.39328  0.60128  0.76249  1.0000 -0.5490200176
O   O14       1.0  0.26427  0.64583  0.79732  1.0000 -0.5313721627
O   O15       1.0  0.51514  0.45418  0.43263  1.0000 -0.5490200176
O   O16       1.0  0.57259  0.33193  0.53917  1.0000 -0.5438576668
O   O17       1.0  0.63085  0.03355  0.47774  1.0000 -0.1805016353
O   O18       1.0  0.98149  0.74225  0.56051  1.0000 -0.1864901103
O   O19       1.0  0.60128  0.39328  0.73751  1.0000 -0.5490200176
O   O20       1.0  0.64583  0.26427  0.70268  1.0000 -0.5313721627
O   O21       1.0  0.45418  0.51514  0.06737  1.0000 -0.5490200176
O   O22       1.0  0.33193  0.57259  0.96083  1.0000 -0.5438576668
O   O23       1.0  0.03355  0.63085  0.02226  1.0000 -0.1805016353
O   O24       1.0  0.74225  0.98149  0.93949  1.0000 -0.1864901103
