# DDEC6 charges by PACMAN v1.1 (https://github.com/mtap-research/PACMAN-charge/)
data_2020[Cd][sql]2[FSR]6
_chemical_formula_sum              "Cd4 H80 C112 N24 O24"
_cell_length_a       10.4038
_cell_length_b       14.9986
_cell_length_c       24.4598
_cell_angle_alpha    82.566
_cell_angle_beta     86.756
_cell_angle_gamma    74.118

_symmetry_space_group_name_H-M    "P 1"
_symmetry_Int_Tables_number       1

loop_
  _symmetry_equiv_pos_as_xyz
  'x, y, z'

loop_
  _atom_site_type_symbol
  _atom_site_label
  _atom_site_symmetry_multiplicity
  _atom_site_fract_x
  _atom_site_fract_y
  _atom_site_fract_z
  _atom_site_occupancy
  _atom_site_charge
Cd  Cd1       1.0  0.39487  0.64126  0.63006  1.0000 0.8583211397
Cd  Cd2       1.0  0.59637  0.83160  0.63414  1.0000 0.8583211397
Cd  Cd3       1.0  0.60513  0.35874  0.36994  1.0000 0.8583211397
Cd  Cd4       1.0  0.40363  0.16840  0.36586  1.0000 0.8583211397
H   H1        1.0  0.44945  0.91551  0.34613  1.0000 0.2729323004
H   H2        1.0  0.56561  0.61961  0.34324  1.0000 0.2729323004
H   H3        1.0  0.44422  0.88325  0.91815  1.0000 0.2529204086
H   H4        1.0  0.56508  0.59414  0.91441  1.0000 0.255162785
H   H5        1.0  0.56140  0.54321  0.74063  1.0000 0.1103179627
H   H6        1.0  0.56794  0.54843  0.83378  1.0000 0.1290044784
H   H7        1.0  0.23456  0.74181  0.72786  1.0000 0.1174608336
H   H8        1.0  0.22397  0.74684  0.82114  1.0000 0.1375884125
H   H9        1.0  0.58233  0.58845  0.52204  1.0000 0.1103179627
H   H10       1.0  0.58704  0.60232  0.42812  1.0000 0.1375884125
H   H11       1.0  0.20448  0.74994  0.43177  1.0000 0.1375884125
H   H12       1.0  0.21404  0.73037  0.52632  1.0000 0.1174608336
H   H13       1.0  0.41824  0.90970  0.52539  1.0000 0.1103179627
H   H14       1.0  0.41994  0.91308  0.43245  1.0000 0.1375884125
H   H15       1.0  0.80489  0.77378  0.43967  1.0000 0.1375884125
H   H16       1.0  0.79231  0.78030  0.53201  1.0000 0.1174608336
H   H17       1.0  0.73879  0.70806  0.74129  1.0000 0.1174608336
H   H18       1.0  0.76499  0.70627  0.83315  1.0000 0.1290044784
H   H19       1.0  0.43284  0.91690  0.83183  1.0000 0.1290044784
H   H20       1.0  0.42186  0.91541  0.73981  1.0000 0.1103179627
H   H21       1.0  0.91491  0.63946  0.63328  1.0000 0.1375884125
H   H22       1.0  0.78839  0.40788  0.65229  1.0000 0.1103179627
H   H23       1.0  0.19827  0.05440  0.65693  1.0000 0.1174608336
H   H24       1.0  0.07177  0.83666  0.62896  1.0000 0.1375884125
H   H25       1.0  0.66588  0.59742  0.26238  1.0000 0.1174608336
H   H26       1.0  0.38924  0.68991  0.17238  1.0000 0.1290044784
H   H27       1.0  0.62752  0.84741  0.17897  1.0000 0.1174608336
H   H28       1.0  0.23782  0.97833  0.17681  1.0000 0.1290044784
H   H29       1.0  0.80537  0.07887  0.65613  1.0000 0.1103179627
H   H30       1.0  0.66422  0.57638  0.99428  1.0000 0.1103179627
H   H31       1.0  0.78006  0.55608  0.17542  1.0000 0.1290044784
H   H32       1.0  0.77564  0.53974  0.08238  1.0000 0.1290044784
H   H33       1.0  0.62791  0.83991  0.08565  1.0000 0.1290044784
H   H34       1.0  0.24686  0.97843  0.08062  1.0000 0.1290044784
H   H35       1.0  0.35026  0.92452  0.99735  1.0000 0.1103179627
H   H36       1.0  0.35234  0.94787  0.26599  1.0000 0.1103179627
H   H37       1.0  0.18019  0.38517  0.65470  1.0000 0.1174608336
H   H38       1.0  0.98256  0.14332  0.66478  1.0000 0.1174608336
H   H39       1.0  0.38832  0.67877  0.08155  1.0000 0.1290044784
H   H40       1.0  0.01213  0.31707  0.66225  1.0000 0.1290044784
H   H41       1.0  0.55055  0.08449  0.65387  1.0000 0.2729323004
H   H42       1.0  0.43439  0.38039  0.65676  1.0000 0.2729323004
H   H43       1.0  0.55578  0.11675  0.08185  1.0000 0.2529204086
H   H44       1.0  0.43492  0.40586  0.08559  1.0000 0.2529204086
H   H45       1.0  0.43860  0.45679  0.25937  1.0000 0.1103179627
H   H46       1.0  0.43206  0.45157  0.16622  1.0000 0.1290044784
H   H47       1.0  0.76544  0.25819  0.27214  1.0000 0.1174608336
H   H48       1.0  0.77603  0.25316  0.17886  1.0000 0.1375884125
H   H49       1.0  0.41767  0.41155  0.47796  1.0000 0.1103179627
H   H50       1.0  0.41296  0.39768  0.57188  1.0000 0.1375884125
H   H51       1.0  0.79552  0.25006  0.56823  1.0000 0.1375884125
H   H52       1.0  0.78596  0.26963  0.47368  1.0000 0.1174608336
H   H53       1.0  0.58176  0.09030  0.47461  1.0000 0.1103179627
H   H54       1.0  0.58006  0.08692  0.56755  1.0000 0.1375884125
H   H55       1.0  0.19511  0.22622  0.56033  1.0000 0.1375884125
H   H56       1.0  0.20769  0.21970  0.46799  1.0000 0.1174608336
H   H57       1.0  0.26121  0.29194  0.25871  1.0000 0.1174608336
H   H58       1.0  0.23501  0.29373  0.16685  1.0000 0.1290044784
H   H59       1.0  0.56716  0.08310  0.16817  1.0000 0.1290044784
H   H60       1.0  0.57814  0.08459  0.26019  1.0000 0.1103179627
H   H61       1.0  0.08509  0.36054  0.36672  1.0000 0.1375884125
H   H62       1.0  0.21161  0.59212  0.34771  1.0000 0.1103179627
H   H63       1.0  0.80173  0.94560  0.34307  1.0000 0.1174608336
H   H64       1.0  0.92823  0.16334  0.37104  1.0000 0.1375884125
H   H65       1.0  0.33412  0.40258  0.73762  1.0000 0.1103179627
H   H66       1.0  0.61076  0.31009  0.82762  1.0000 0.1290044784
H   H67       1.0  0.37248  0.15259  0.82103  1.0000 0.1174608336
H   H68       1.0  0.76218  0.02167  0.82319  1.0000 0.1290044784
H   H69       1.0  0.19463  0.92113  0.34387  1.0000 0.1103179627
H   H70       1.0  0.33578  0.42362  0.00572  1.0000 0.1103179627
H   H71       1.0  0.21994  0.44392  0.82458  1.0000 0.1290044784
H   H72       1.0  0.22436  0.46026  0.91762  1.0000 0.1290044784
H   H73       1.0  0.37209  0.16009  0.91435  1.0000 0.1290044784
H   H74       1.0  0.75314  0.02157  0.91938  1.0000 0.1290044784
H   H75       1.0  0.64974  0.07548  0.00265  1.0000 0.1103179627
H   H76       1.0  0.64766  0.05213  0.73401  1.0000 0.1103179627
H   H77       1.0  0.81981  0.61483  0.34530  1.0000 0.1174608336
H   H78       1.0  0.01744  0.85668  0.33522  1.0000 0.1174608336
H   H79       1.0  0.61168  0.32123  0.91845  1.0000 0.1290044784
H   H80       1.0  0.98787  0.68293  0.33775  1.0000 0.1290044784
C   C1        1.0  0.49280  0.58580  0.75710  1.0000 0.0785169956
C   C2        1.0  0.49670  0.58710  0.81340  1.0000 -0.1927827503
C   C3        1.0  0.30120  0.70080  0.74960  1.0000 0.0724630848
C   C4        1.0  0.29510  0.70460  0.80570  1.0000 -0.1512922908
C   C5        1.0  0.39210  0.64730  0.83860  1.0000 0.0114770072
C   C6        1.0  0.37780  0.65550  0.89800  1.0000 0.4294544255
C   C7        1.0  0.50470  0.62120  0.50360  1.0000 0.0626683454
C   C8        1.0  0.50870  0.62930  0.44700  1.0000 -0.1702222134
C   C9        1.0  0.39700  0.67720  0.41870  1.0000 0.0306262108
C   C10       1.0  0.28320  0.71630  0.44920  1.0000 -0.1702222134
C   C11       1.0  0.29030  0.70390  0.50610  1.0000 0.0785169956
C   C12       1.0  0.38620  0.69550  0.35620  1.0000 0.4294544255
C   C13       1.0  0.49800  0.88200  0.50770  1.0000 0.0785169956
C   C14       1.0  0.49800  0.88450  0.45170  1.0000 -0.1832015942
C   C15       1.0  0.61430  0.84420  0.42370  1.0000 0.0248099716
C   C16       1.0  0.72420  0.80340  0.45600  1.0000 -0.1702222134
C   C17       1.0  0.71540  0.80600  0.51160  1.0000 0.0626683454
C   C18       1.0  0.62810  0.83630  0.36350  1.0000 0.4294544255
C   C19       1.0  0.67790  0.75240  0.75980  1.0000 0.0785169956
C   C20       1.0  0.69370  0.74950  0.81510  1.0000 -0.1702222134
C   C21       1.0  0.60030  0.81310  0.84370  1.0000 0.0114770072
C   C22       1.0  0.49840  0.87420  0.81400  1.0000 -0.1927827503
C   C23       1.0  0.49210  0.87300  0.75890  1.0000 0.0626683454
C   C24       1.0  0.68600  0.58850  0.63490  1.0000 0.5435503219
C   C25       1.0  0.83260  0.53320  0.64090  1.0000 -0.0287809287
C   C26       1.0  0.93390  0.57470  0.63810  1.0000 -0.1164082939
C   C27       1.0  0.85790  0.43620  0.65000  1.0000 -0.106879426
C   C28       1.0  0.30170  0.88450  0.63290  1.0000 0.5507668351
C   C29       1.0  0.15630  0.93690  0.64130  1.0000 -0.0287809287
C   C30       1.0  0.12820  0.02860  0.65270  1.0000 -0.106879426
C   C31       1.0  0.05340  0.89810  0.63660  1.0000 -0.106879426
C   C32       1.0  0.80760  0.91010  0.63840  1.0000 0.5435503219
C   C33       1.0  0.92090  0.95000  0.64320  1.0000 -0.0405220556
C   C34       1.0  0.18020  0.56440  0.63750  1.0000 0.5330346917
C   C35       1.0  0.06830  0.52020  0.64260  1.0000 -0.0287809287
C   C36       1.0  0.58630  0.62320  0.24370  1.0000 -0.0037185447
C   C37       1.0  0.58470  0.62080  0.18430  1.0000 0.0724630848
C   C38       1.0  0.46740  0.65980  0.15450  1.0000 -0.129388981
C   C39       1.0  0.43210  0.91240  0.18820  1.0000 0.0785169956
C   C40       1.0  0.54850  0.87230  0.15980  1.0000 -0.1385141234
C   C41       1.0  0.31770  0.95120  0.15900  1.0000 -0.1512922908
C   C42       1.0  0.89320  0.04300  0.65300  1.0000 -0.106879426
C   C43       1.0  0.62170  0.81250  0.90370  1.0000 0.4294544255
C   C44       1.0  0.58420  0.60240  0.01230  1.0000 0.0027825398
C   C45       1.0  0.58310  0.61130  0.07100  1.0000 0.0785169956
C   C46       1.0  0.70040  0.57920  0.15650  1.0000 -0.1385141234
C   C47       1.0  0.69870  0.57160  0.10020  1.0000 -0.1512922908
C   C48       1.0  0.54920  0.86870  0.10360  1.0000 -0.1512922908
C   C49       1.0  0.43360  0.90750  0.07370  1.0000 0.0724630848
C   C50       1.0  0.32350  0.94920  0.10060  1.0000 -0.1512922908
C   C51       1.0  0.43040  0.89980  0.01580  1.0000 -0.0095616657
C   C52       1.0  0.42980  0.91650  0.24820  1.0000 0.0027825398
C   C53       1.0  0.09260  0.42220  0.65160  1.0000 -0.1010982672
C   C54       1.0  0.99950  0.08150  0.65790  1.0000 -0.0890050772
C   C55       1.0  0.46770  0.65380  0.10040  1.0000 -0.1385141234
C   C56       1.0  0.99320  0.38180  0.65560  1.0000 -0.0829095523
C   C57       1.0  0.50720  0.41420  0.24290  1.0000 0.0785169956
C   C58       1.0  0.50330  0.41290  0.18660  1.0000 -0.1927827503
C   C59       1.0  0.69880  0.29920  0.25040  1.0000 0.0724630848
C   C60       1.0  0.70490  0.29540  0.19430  1.0000 -0.1512922908
C   C61       1.0  0.60790  0.35270  0.16140  1.0000 0.0114770072
C   C62       1.0  0.62220  0.34450  0.10200  1.0000 0.4294544255
C   C63       1.0  0.49530  0.37880  0.49640  1.0000 0.0626683454
C   C64       1.0  0.49130  0.37070  0.55300  1.0000 -0.1702222134
C   C65       1.0  0.60300  0.32280  0.58130  1.0000 0.0306262108
C   C66       1.0  0.71680  0.28370  0.55080  1.0000 -0.1702222134
C   C67       1.0  0.70970  0.29610  0.49390  1.0000 0.0785169956
C   C68       1.0  0.61380  0.30450  0.64380  1.0000 0.4294544255
C   C69       1.0  0.50200  0.11800  0.49230  1.0000 0.0785169956
C   C70       1.0  0.50200  0.11550  0.54830  1.0000 -0.1832015942
C   C71       1.0  0.38570  0.15580  0.57630  1.0000 0.0306262108
C   C72       1.0  0.27580  0.19660  0.54400  1.0000 -0.1649625207
C   C73       1.0  0.28460  0.19400  0.48840  1.0000 0.0626683454
C   C74       1.0  0.37190  0.16370  0.63650  1.0000 0.4294544255
C   C75       1.0  0.32210  0.24760  0.24020  1.0000 0.0785169956
C   C76       1.0  0.30630  0.25050  0.18490  1.0000 -0.1702222134
C   C77       1.0  0.39970  0.18690  0.15630  1.0000 0.0114770072
C   C78       1.0  0.50160  0.12580  0.18600  1.0000 -0.1927827503
C   C79       1.0  0.50790  0.12700  0.24110  1.0000 0.0626683454
C   C80       1.0  0.31400  0.41150  0.36510  1.0000 0.5435503219
C   C81       1.0  0.16740  0.46680  0.35910  1.0000 -0.0287809287
C   C82       1.0  0.06610  0.42530  0.36190  1.0000 -0.1164082939
C   C83       1.0  0.14210  0.56380  0.35000  1.0000 -0.106879426
C   C84       1.0  0.69830  0.11550  0.36710  1.0000 0.5507668351
C   C85       1.0  0.84370  0.06310  0.35870  1.0000 -0.0287809287
C   C86       1.0  0.87180  0.97140  0.34730  1.0000 -0.106879426
C   C87       1.0  0.94660  0.10190  0.36340  1.0000 -0.106879426
C   C88       1.0  0.19240  0.08990  0.36160  1.0000 0.5435503219
C   C89       1.0  0.07910  0.05000  0.35680  1.0000 -0.0405220556
C   C90       1.0  0.81980  0.43560  0.36250  1.0000 0.5330346917
C   C91       1.0  0.93170  0.47980  0.35740  1.0000 -0.0287809287
C   C92       1.0  0.41370  0.37680  0.75630  1.0000 -0.0037185447
C   C93       1.0  0.41530  0.37920  0.81570  1.0000 0.0724630848
C   C94       1.0  0.53260  0.34020  0.84550  1.0000 -0.129388981
C   C95       1.0  0.56790  0.08760  0.81180  1.0000 0.0785169956
C   C96       1.0  0.45150  0.12770  0.84020  1.0000 -0.1385141234
C   C97       1.0  0.68230  0.04880  0.84100  1.0000 -0.1512922908
C   C98       1.0  0.10680  0.95700  0.34700  1.0000 -0.106879426
C   C99       1.0  0.37830  0.18750  0.09630  1.0000 0.4294544255
C   C100      1.0  0.41580  0.39760  0.98770  1.0000 0.0027825398
C   C101      1.0  0.41690  0.38870  0.92900  1.0000 0.0785169956
C   C102      1.0  0.29960  0.42080  0.84350  1.0000 -0.1385141234
C   C103      1.0  0.30130  0.42840  0.89980  1.0000 -0.1512922908
C   C104      1.0  0.45080  0.13130  0.89640  1.0000 -0.1512922908
C   C105      1.0  0.56640  0.09250  0.92630  1.0000 0.0724630848
C   C106      1.0  0.67650  0.05080  0.89940  1.0000 -0.1512922908
C   C107      1.0  0.56960  0.10020  0.98420  1.0000 -0.0095616657
C   C108      1.0  0.57020  0.08350  0.75180  1.0000 0.0027825398
C   C109      1.0  0.90740  0.57780  0.34840  1.0000 -0.1010982672
C   C110      1.0  0.00050  0.91850  0.34210  1.0000 -0.0890050772
C   C111      1.0  0.53230  0.34620  0.89960  1.0000 -0.1385141234
C   C112      1.0  0.00680  0.61820  0.34440  1.0000 -0.0829095523
N   N1        1.0  0.39880  0.64070  0.72550  1.0000 -0.2188800658
N   N2        1.0  0.58330  0.81300  0.73090  1.0000 -0.2188800658
N   N3        1.0  0.60240  0.84340  0.53800  1.0000 -0.2188800658
N   N4        1.0  0.39770  0.65710  0.53340  1.0000 -0.2123641799
N   N5        1.0  0.52210  0.88300  0.33200  1.0000 -0.2188800658
N   N6        1.0  0.53660  0.87580  0.27580  1.0000 -0.1385141234
N   N7        1.0  0.49300  0.65150  0.32720  1.0000 -0.2188800658
N   N8        1.0  0.48150  0.65950  0.27030  1.0000 -0.129388981
N   N9        1.0  0.51980  0.85660  0.93340  1.0000 -0.2493669147
N   N10       1.0  0.53360  0.86040  0.98930  1.0000 -0.129388981
N   N11       1.0  0.48940  0.62080  0.92890  1.0000 -0.2583017553
N   N12       1.0  0.47560  0.63040  0.98560  1.0000 -0.1385141234
N   N13       1.0  0.60120  0.35930  0.27450  1.0000 -0.2188800658
N   N14       1.0  0.41670  0.18700  0.26910  1.0000 -0.2188800658
N   N15       1.0  0.39760  0.15660  0.46200  1.0000 -0.2188800658
N   N16       1.0  0.60230  0.34290  0.46660  1.0000 -0.2123641799
N   N17       1.0  0.47790  0.11700  0.66800  1.0000 -0.2188800658
N   N18       1.0  0.46340  0.12420  0.72420  1.0000 -0.1385141234
N   N19       1.0  0.50700  0.34850  0.67280  1.0000 -0.2188800658
N   N20       1.0  0.51850  0.34050  0.72970  1.0000 -0.129388981
N   N21       1.0  0.48020  0.14340  0.06660  1.0000 -0.2493669147
N   N22       1.0  0.46640  0.13960  0.01070  1.0000 -0.129388981
N   N23       1.0  0.51060  0.37920  0.07110  1.0000 -0.2583017553
N   N24       1.0  0.52440  0.36960  0.01440  1.0000 -0.1385141234
O   O1        1.0  0.65660  0.67360  0.63350  1.0000 -0.5489940549
O   O2        1.0  0.60360  0.54420  0.63100  1.0000 -0.5238732999
O   O3        1.0  0.38710  0.92700  0.63540  1.0000 -0.5302221085
O   O4        1.0  0.32770  0.80140  0.62270  1.0000 -0.5770555641
O   O5        1.0  0.82820  0.82440  0.63520  1.0000 -0.5351170207
O   O6        1.0  0.68770  0.96220  0.63880  1.0000 -0.5918939169
O   O7        1.0  0.16060  0.65000  0.63580  1.0000 -0.5238732999
O   O8        1.0  0.30050  0.51180  0.63570  1.0000 -0.5918939169
O   O9        1.0  0.73120  0.78740  0.34440  1.0000 -0.4589143301
O   O10       1.0  0.28400  0.74770  0.33550  1.0000 -0.4589143301
O   O11       1.0  0.72750  0.76820  0.92430  1.0000 -0.4158760513
O   O12       1.0  0.26920  0.69370  0.91930  1.0000 -0.4346097613
O   O13       1.0  0.34340  0.32640  0.36650  1.0000 -0.5489940549
O   O14       1.0  0.39640  0.45580  0.36900  1.0000 -0.5302221085
O   O15       1.0  0.61290  0.07300  0.36460  1.0000 -0.5302221085
O   O16       1.0  0.67230  0.19860  0.37730  1.0000 -0.5770555641
O   O17       1.0  0.17180  0.17560  0.36480  1.0000 -0.5351170207
O   O18       1.0  0.31230  0.03780  0.36120  1.0000 -0.5918939169
O   O19       1.0  0.83940  0.35000  0.36420  1.0000 -0.5238732999
O   O20       1.0  0.69950  0.48820  0.36430  1.0000 -0.5918939169
O   O21       1.0  0.26880  0.21260  0.65560  1.0000 -0.4589143301
O   O22       1.0  0.71600  0.25230  0.66450  1.0000 -0.4589143301
O   O23       1.0  0.27250  0.23180  0.07570  1.0000 -0.4158760513
O   O24       1.0  0.73080  0.30630  0.08070  1.0000 -0.4346097613
