# DDEC6 charges by PACMAN v1.1 (https://github.com/mtap-research/PACMAN-charge/)
data_2020[Cd][kgd]2[FSR]4
_chemical_formula_sum              "Cd2 H18 C26 N2 O10"
_cell_length_a       8.5615
_cell_length_b       8.7057
_cell_length_c       9.8084
_cell_angle_alpha    96.329
_cell_angle_beta     101.329
_cell_angle_gamma    103.058

_symmetry_space_group_name_H-M    "P 1"
_symmetry_Int_Tables_number       1

loop_
  _symmetry_equiv_pos_as_xyz
  'x, y, z'

loop_
  _atom_site_type_symbol
  _atom_site_label
  _atom_site_symmetry_multiplicity
  _atom_site_fract_x
  _atom_site_fract_y
  _atom_site_fract_z
  _atom_site_occupancy
  _atom_site_charge
Cd  Cd1       1.0  0.71414  0.11995  0.99210  1.0000 0.9343021353
Cd  Cd2       1.0  0.28586  0.88005  0.00790  1.0000 0.9343021353
H   H1        1.0  0.04280  0.16010  0.21540  1.0000 0.1036910702
H   H2        1.0  0.43260  0.45670  0.12680  1.0000 0.1284729083
H   H3        1.0  0.25620  0.48400  0.92330  1.0000 0.1361041357
H   H4        1.0  0.98320  0.34420  0.86980  1.0000 0.1126781245
H   H5        1.0  0.69040  0.19210  0.47540  1.0000 0.1361041357
H   H6        1.0  0.34010  0.29180  0.66060  1.0000 0.1183757697
H   H7        1.0  0.19740  0.33140  0.44710  1.0000 0.1183757697
H   H8        1.0  0.87690  0.93640  0.15540  1.0000 0.3784174164
H   H9        1.0  0.69270  0.83790  0.10400  1.0000 0.3994748433
H   H10       1.0  0.95720  0.83990  0.78460  1.0000 0.1036910702
H   H11       1.0  0.56740  0.54330  0.87320  1.0000 0.1284729083
H   H12       1.0  0.74380  0.51600  0.07670  1.0000 0.1361041357
H   H13       1.0  0.01680  0.65580  0.13020  1.0000 0.1126781245
H   H14       1.0  0.30960  0.80790  0.52460  1.0000 0.1361041357
H   H15       1.0  0.65990  0.70820  0.33940  1.0000 0.1183757697
H   H16       1.0  0.80260  0.66860  0.55290  1.0000 0.1183757697
H   H17       1.0  0.12310  0.06360  0.84460  1.0000 0.3784174164
H   H18       1.0  0.30730  0.16210  0.89600  1.0000 0.3994748433
C   C1        1.0  0.08670  0.22510  0.15600  1.0000 0.0168483545
C   C2        1.0  0.25640  0.30520  0.19500  1.0000 0.0471305762
C   C3        1.0  0.32160  0.40310  0.10530  1.0000 -0.0839540969
C   C4        1.0  0.21670  0.41810  0.98400  1.0000 -0.1383432756
C   C5        1.0  0.05170  0.33410  0.95270  1.0000 0.0471305762
C   C6        1.0  0.35640  0.28350  0.33180  1.0000 0.0471305762
C   C7        1.0  0.50800  0.24300  0.34300  1.0000 -0.0471137586
C   C8        1.0  0.59070  0.21970  0.46960  1.0000 -0.1144842814
C   C9        1.0  0.52940  0.23630  0.58990  1.0000 -0.0159672025
C   C10       1.0  0.38200  0.27890  0.58060  1.0000 -0.0994204442
C   C11       1.0  0.29630  0.30250  0.45230  1.0000 -0.1383432756
C   C12       1.0  0.57600  0.21500  0.21250  1.0000 0.5658305128
C   C13       1.0  0.61200  0.19810  0.72720  1.0000 0.5435423692
C   C14       1.0  0.91330  0.77490  0.84400  1.0000 0.0168483545
C   C15       1.0  0.74360  0.69480  0.80500  1.0000 0.0471305762
C   C16       1.0  0.67840  0.59690  0.89470  1.0000 -0.0839540969
C   C17       1.0  0.78330  0.58190  0.01600  1.0000 -0.1383432756
C   C18       1.0  0.94830  0.66590  0.04730  1.0000 0.0471305762
C   C19       1.0  0.64360  0.71650  0.66820  1.0000 0.0471305762
C   C20       1.0  0.49200  0.75700  0.65700  1.0000 -0.0471137586
C   C21       1.0  0.40930  0.78030  0.53040  1.0000 -0.1144842814
C   C22       1.0  0.47060  0.76370  0.41010  1.0000 -0.0159672025
C   C23       1.0  0.61800  0.72110  0.41940  1.0000 -0.0994204442
C   C24       1.0  0.70370  0.69750  0.54770  1.0000 -0.1383432756
C   C25       1.0  0.42400  0.78500  0.78750  1.0000 0.5658305128
C   C26       1.0  0.38800  0.80190  0.27280  1.0000 0.5435423692
N   N1        1.0  0.98760  0.23920  0.03750  1.0000 -0.2702894668
N   N2        1.0  0.01240  0.76080  0.96250  1.0000 -0.2702894668
O   O1        1.0  0.48760  0.11630  0.10880  1.0000 -0.5392001133
O   O2        1.0  0.71990  0.28590  0.21540  1.0000 -0.5392001133
O   O3        1.0  0.55280  0.22700  0.83540  1.0000 -0.5681937496
O   O4        1.0  0.72960  0.13550  0.73580  1.0000 -0.5681937496
O   O5        1.0  0.76430  0.94170  0.14330  1.0000 -0.7109057467
O   O6        1.0  0.51240  0.88370  0.89120  1.0000 -0.5392001133
O   O7        1.0  0.28010  0.71410  0.78460  1.0000 -0.5392001133
O   O8        1.0  0.44720  0.77300  0.16460  1.0000 -0.5681937496
O   O9        1.0  0.27040  0.86450  0.26420  1.0000 -0.5681937496
O   O10       1.0  0.23570  0.05830  0.85670  1.0000 -0.7109057467
