# DDEC6 charges by PACMAN v1.1 (https://github.com/mtap-research/PACMAN-charge/)
data_2020[Zn][rob]3[FSR]1
_chemical_formula_sum              "Zn4 H72 C96 N4 O16"
_cell_length_a       12.4234
_cell_length_b       12.4234
_cell_length_c       22.415
_cell_angle_alpha    81.1773
_cell_angle_beta     98.8227
_cell_angle_gamma    135.466

_symmetry_space_group_name_H-M    "P 1"
_symmetry_Int_Tables_number       1

loop_
  _symmetry_equiv_pos_as_xyz
  'x, y, z'

loop_
  _atom_site_type_symbol
  _atom_site_label
  _atom_site_symmetry_multiplicity
  _atom_site_fract_x
  _atom_site_fract_y
  _atom_site_fract_z
  _atom_site_occupancy
  _atom_site_charge
Zn  Zn1       1.0  0.34301  0.94793  0.50902  1.0000 0.8354666567
Zn  Zn2       1.0  0.94793  0.34301  0.99098  1.0000 0.8354666567
Zn  Zn3       1.0  0.65699  0.05207  0.49098  1.0000 0.8354666567
Zn  Zn4       1.0  0.05207  0.65699  0.00902  1.0000 0.8354666567
H   H1        1.0  0.87850  0.56370  0.54730  1.0000 0.139306113
H   H2        1.0  0.78120  0.53080  0.44480  1.0000 0.1228257464
H   H3        1.0  0.37060  0.26280  0.18810  1.0000 0.331957165
H   H4        1.0  0.00040  0.71620  0.36130  1.0000 0.1228257464
H   H5        1.0  0.59300  0.43660  0.36860  1.0000 0.1098849954
H   H6        1.0  0.41370  0.30650  0.28990  1.0000 0.1228257464
H   H7        1.0  0.74440  0.50660  0.18080  1.0000 0.139306113
H   H8        1.0  0.92630  0.63930  0.25930  1.0000 0.1228257464
H   H9        1.0  0.93090  0.57650  0.65480  1.0000 0.1228257464
H   H10       1.0  0.23570  0.81070  0.68980  1.0000 0.1228257464
H   H11       1.0  0.87100  0.50940  0.75480  1.0000 0.1098849954
H   H12       1.0  0.83250  0.43570  0.85640  1.0000 0.1309027512
H   H13       1.0  0.28810  0.77110  0.89500  1.0000 0.1309027512
H   H14       1.0  0.32520  0.84200  0.79310  1.0000 0.1098849954
H   H15       1.0  0.29330  0.13010  0.42550  1.0000 0.1228257464
H   H16       1.0  0.33910  0.34270  0.42540  1.0000 0.1309027512
H   H17       1.0  0.60250  0.45550  0.57500  1.0000 0.1309027512
H   H18       1.0  0.53140  0.22680  0.57560  1.0000 0.1098849954
H   H19       1.0  0.56370  0.87850  0.95270  1.0000 0.139306113
H   H20       1.0  0.53080  0.78120  0.05520  1.0000 0.1228257464
H   H21       1.0  0.26280  0.37060  0.31190  1.0000 0.331957165
H   H22       1.0  0.71620  0.00040  0.13870  1.0000 0.1228257464
H   H23       1.0  0.43660  0.59300  0.13140  1.0000 0.1098849954
H   H24       1.0  0.30650  0.41370  0.21010  1.0000 0.1228257464
H   H25       1.0  0.50660  0.74440  0.31920  1.0000 0.139306113
H   H26       1.0  0.63930  0.92630  0.24070  1.0000 0.1228257464
H   H27       1.0  0.57650  0.93090  0.84520  1.0000 0.1228257464
H   H28       1.0  0.81070  0.23570  0.81020  1.0000 0.1228257464
H   H29       1.0  0.50940  0.87100  0.74520  1.0000 0.1098849954
H   H30       1.0  0.43570  0.83250  0.64360  1.0000 0.1309027512
H   H31       1.0  0.77110  0.28810  0.60500  1.0000 0.1309027512
H   H32       1.0  0.84200  0.32520  0.70690  1.0000 0.1098849954
H   H33       1.0  0.13010  0.29330  0.07450  1.0000 0.1228257464
H   H34       1.0  0.34270  0.33910  0.07460  1.0000 0.1309027512
H   H35       1.0  0.45550  0.60250  0.92500  1.0000 0.1309027512
H   H36       1.0  0.22680  0.53140  0.92440  1.0000 0.1098849954
H   H37       1.0  0.12150  0.43630  0.45270  1.0000 0.139306113
H   H38       1.0  0.21880  0.46920  0.55520  1.0000 0.1228257464
H   H39       1.0  0.62940  0.73720  0.81190  1.0000 0.331957165
H   H40       1.0  0.99960  0.28380  0.63870  1.0000 0.1228257464
H   H41       1.0  0.40700  0.56340  0.63140  1.0000 0.1098849954
H   H42       1.0  0.58630  0.69350  0.71010  1.0000 0.1228257464
H   H43       1.0  0.25560  0.49340  0.81920  1.0000 0.139306113
H   H44       1.0  0.07370  0.36070  0.74070  1.0000 0.1228257464
H   H45       1.0  0.06910  0.42350  0.34520  1.0000 0.1228257464
H   H46       1.0  0.76430  0.18930  0.31020  1.0000 0.1228257464
H   H47       1.0  0.12900  0.49060  0.24520  1.0000 0.1098849954
H   H48       1.0  0.16750  0.56430  0.14360  1.0000 0.1309027512
H   H49       1.0  0.71190  0.22890  0.10500  1.0000 0.1309027512
H   H50       1.0  0.67480  0.15800  0.20690  1.0000 0.1098849954
H   H51       1.0  0.70670  0.86990  0.57450  1.0000 0.1228257464
H   H52       1.0  0.66090  0.65730  0.57460  1.0000 0.1309027512
H   H53       1.0  0.39750  0.54450  0.42500  1.0000 0.1309027512
H   H54       1.0  0.46860  0.77320  0.42440  1.0000 0.1098849954
H   H55       1.0  0.43630  0.12150  0.04730  1.0000 0.139306113
H   H56       1.0  0.46920  0.21880  0.94480  1.0000 0.1228257464
H   H57       1.0  0.73720  0.62940  0.68810  1.0000 0.331957165
H   H58       1.0  0.28380  0.99960  0.86130  1.0000 0.1228257464
H   H59       1.0  0.56340  0.40700  0.86860  1.0000 0.1098849954
H   H60       1.0  0.69350  0.58630  0.78990  1.0000 0.1228257464
H   H61       1.0  0.49340  0.25560  0.68080  1.0000 0.139306113
H   H62       1.0  0.36070  0.07370  0.75930  1.0000 0.1228257464
H   H63       1.0  0.42350  0.06910  0.15480  1.0000 0.1228257464
H   H64       1.0  0.18930  0.76430  0.18980  1.0000 0.1228257464
H   H65       1.0  0.49060  0.12900  0.25480  1.0000 0.1098849954
H   H66       1.0  0.56430  0.16750  0.35640  1.0000 0.1309027512
H   H67       1.0  0.22890  0.71190  0.39500  1.0000 0.1309027512
H   H68       1.0  0.15800  0.67480  0.29310  1.0000 0.1098849954
H   H69       1.0  0.86990  0.70670  0.92550  1.0000 0.1228257464
H   H70       1.0  0.65730  0.66090  0.92540  1.0000 0.1309027512
H   H71       1.0  0.54450  0.39750  0.07500  1.0000 0.1309027512
H   H72       1.0  0.77320  0.46860  0.07560  1.0000 0.1098849954
C   C1        1.0  0.97960  0.65200  0.53863  1.0000 -0.4808088853
C   C2        1.0  0.01000  0.70180  0.47745  1.0000 0.4276322609
C   C3        1.0  0.88030  0.61010  0.43174  1.0000 -0.2191833632
C   C4        1.0  0.89960  0.63640  0.37252  1.0000 -0.0959053972
C   C5        1.0  0.78140  0.55500  0.32331  1.0000 0.0911001142
C   C6        1.0  0.62550  0.45270  0.33063  1.0000 -0.1085479037
C   C7        1.0  0.51760  0.37460  0.28343  1.0000 -0.2376930231
C   C8        1.0  0.56180  0.39620  0.22656  1.0000 0.2578162289
C   C9        1.0  0.71330  0.49310  0.21870  1.0000 -0.2071683557
C   C10       1.0  0.82270  0.57270  0.26607  1.0000 -0.1195534916
C   C11       1.0  0.08848  0.72372  0.58758  1.0000 0.4276322609
C   C12       1.0  0.03510  0.66170  0.64957  1.0000 -0.2191833632
C   C13       1.0  0.13330  0.72550  0.69796  1.0000 -0.1085479037
C   C14       1.0  0.10360  0.68120  0.76201  1.0000 0.08166318
C   C15       1.0  0.95542  0.56078  0.78266  1.0000 -0.1418400818
C   C16       1.0  0.93184  0.51656  0.84380  1.0000 -0.2071683557
C   C17       1.0  0.05708  0.59332  0.88632  1.0000 0.3118945098
C   C18       1.0  0.20408  0.71672  0.86693  1.0000 -0.2295693161
C   C19       1.0  0.22600  0.75920  0.80548  1.0000 -0.1418400818
C   C20       1.0  0.35030  0.19230  0.45810  1.0000 0.0650759226
C   C21       1.0  0.38260  0.32320  0.45690  1.0000 -0.2071683557
C   C22       1.0  0.47724  0.42676  0.50087  1.0000 0.1098849954
C   C23       1.0  0.53400  0.38900  0.54450  1.0000 -0.2009752338
C   C24       1.0  0.49060  0.24980  0.54440  1.0000 0.0911001142
C   C25       1.0  0.65200  0.97960  0.96137  1.0000 -0.4808088853
C   C26       1.0  0.70180  0.01000  0.02255  1.0000 0.4276322609
C   C27       1.0  0.61010  0.88030  0.06826  1.0000 -0.2191833632
C   C28       1.0  0.63640  0.89960  0.12748  1.0000 -0.0945902605
C   C29       1.0  0.55500  0.78140  0.17669  1.0000 0.0911001142
C   C30       1.0  0.45270  0.62550  0.16937  1.0000 -0.1085479037
C   C31       1.0  0.37460  0.51760  0.21657  1.0000 -0.2376930231
C   C32       1.0  0.39620  0.56180  0.27344  1.0000 0.2578162289
C   C33       1.0  0.49310  0.71330  0.28130  1.0000 -0.2071683557
C   C34       1.0  0.57270  0.82270  0.23393  1.0000 -0.1195534916
C   C35       1.0  0.72372  0.08848  0.91242  1.0000 0.4276322609
C   C36       1.0  0.66170  0.03510  0.85043  1.0000 -0.2191833632
C   C37       1.0  0.72550  0.13330  0.80204  1.0000 -0.1085479037
C   C38       1.0  0.68120  0.10360  0.73799  1.0000 0.08166318
C   C39       1.0  0.56078  0.95542  0.71734  1.0000 -0.1418400818
C   C40       1.0  0.51656  0.93184  0.65620  1.0000 -0.2071683557
C   C41       1.0  0.59332  0.05708  0.61368  1.0000 0.3118945098
C   C42       1.0  0.71672  0.20408  0.63307  1.0000 -0.2295693161
C   C43       1.0  0.75920  0.22600  0.69452  1.0000 -0.1418400818
C   C44       1.0  0.19230  0.35030  0.04190  1.0000 0.0650759226
C   C45       1.0  0.32320  0.38260  0.04310  1.0000 -0.2071683557
C   C46       1.0  0.42676  0.47724  0.99913  1.0000 0.1098849954
C   C47       1.0  0.38900  0.53400  0.95550  1.0000 -0.2009752338
C   C48       1.0  0.24980  0.49060  0.95560  1.0000 0.0911001142
C   C49       1.0  0.02040  0.34800  0.46137  1.0000 -0.4808088853
C   C50       1.0  0.99000  0.29820  0.52255  1.0000 0.4276322609
C   C51       1.0  0.11970  0.38990  0.56826  1.0000 -0.2191833632
C   C52       1.0  0.10040  0.36360  0.62748  1.0000 -0.0945902605
C   C53       1.0  0.21860  0.44500  0.67669  1.0000 0.0911001142
C   C54       1.0  0.37450  0.54730  0.66937  1.0000 -0.1085479037
C   C55       1.0  0.48240  0.62540  0.71657  1.0000 -0.2376930231
C   C56       1.0  0.43820  0.60380  0.77344  1.0000 0.2578162289
C   C57       1.0  0.28670  0.50690  0.78130  1.0000 -0.2071683557
C   C58       1.0  0.17730  0.42730  0.73393  1.0000 -0.1195534916
C   C59       1.0  0.91152  0.27628  0.41242  1.0000 0.4276322609
C   C60       1.0  0.96490  0.33830  0.35043  1.0000 -0.2191833632
C   C61       1.0  0.86670  0.27450  0.30204  1.0000 -0.1085479037
C   C62       1.0  0.89640  0.31880  0.23799  1.0000 0.08166318
C   C63       1.0  0.04458  0.43922  0.21734  1.0000 -0.1418400818
C   C64       1.0  0.06816  0.48344  0.15620  1.0000 -0.2071683557
C   C65       1.0  0.94292  0.40668  0.11368  1.0000 0.3118945098
C   C66       1.0  0.79592  0.28328  0.13307  1.0000 -0.2295693161
C   C67       1.0  0.77400  0.24080  0.19452  1.0000 -0.1418400818
C   C68       1.0  0.64970  0.80770  0.54190  1.0000 0.0650759226
C   C69       1.0  0.61740  0.67680  0.54310  1.0000 -0.2071683557
C   C70       1.0  0.52276  0.57324  0.49913  1.0000 0.1098849954
C   C71       1.0  0.46600  0.61100  0.45550  1.0000 -0.2009752338
C   C72       1.0  0.50940  0.75020  0.45560  1.0000 0.0911001142
C   C73       1.0  0.34800  0.02040  0.03863  1.0000 -0.4808088853
C   C74       1.0  0.29820  0.99000  0.97745  1.0000 0.4276322609
C   C75       1.0  0.38990  0.11970  0.93174  1.0000 -0.2191833632
C   C76       1.0  0.36360  0.10040  0.87252  1.0000 -0.0945902605
C   C77       1.0  0.44500  0.21860  0.82331  1.0000 0.0911001142
C   C78       1.0  0.54730  0.37450  0.83063  1.0000 -0.1085479037
C   C79       1.0  0.62540  0.48240  0.78343  1.0000 -0.2376930231
C   C80       1.0  0.60380  0.43820  0.72656  1.0000 0.2578162289
C   C81       1.0  0.50690  0.28670  0.71870  1.0000 -0.2071683557
C   C82       1.0  0.42730  0.17730  0.76607  1.0000 -0.1195534916
C   C83       1.0  0.27628  0.91152  0.08758  1.0000 0.4276322609
C   C84       1.0  0.33830  0.96490  0.14957  1.0000 -0.2191833632
C   C85       1.0  0.27450  0.86670  0.19796  1.0000 -0.1085479037
C   C86       1.0  0.31880  0.89640  0.26201  1.0000 0.08166318
C   C87       1.0  0.43922  0.04458  0.28266  1.0000 -0.1418400818
C   C88       1.0  0.48344  0.06816  0.34380  1.0000 -0.2071683557
C   C89       1.0  0.40668  0.94292  0.38632  1.0000 0.3118945098
C   C90       1.0  0.28328  0.79592  0.36693  1.0000 -0.2295693161
C   C91       1.0  0.24080  0.77400  0.30548  1.0000 -0.1418400818
C   C92       1.0  0.80770  0.64970  0.95810  1.0000 0.0650759226
C   C93       1.0  0.67680  0.61740  0.95690  1.0000 -0.2071683557
C   C94       1.0  0.57324  0.52276  0.00087  1.0000 0.1098849954
C   C95       1.0  0.61100  0.46600  0.04450  1.0000 -0.2009752338
C   C96       1.0  0.75020  0.50940  0.04440  1.0000 0.0911001142
N   N1        1.0  0.39736  0.15124  0.50384  1.0000 -0.2009752338
N   N2        1.0  0.15124  0.39736  0.99616  1.0000 -0.2009752338
N   N3        1.0  0.60264  0.84876  0.49616  1.0000 -0.2009752338
N   N4        1.0  0.84876  0.60264  0.00384  1.0000 -0.2009752338
O   O1        1.0  0.14104  0.82216  0.45843  1.0000 -0.4808088853
O   O2        1.0  0.23116  0.84044  0.58346  1.0000 -0.4808088853
O   O3        1.0  0.45826  0.31754  0.17795  1.0000 -0.4587323406
O   O4        1.0  0.03475  0.54785  0.94558  1.0000 -0.5872747415
O   O5        1.0  0.82216  0.14104  0.04157  1.0000 -0.4808088853
O   O6        1.0  0.84044  0.23116  0.91654  1.0000 -0.4808088853
O   O7        1.0  0.31754  0.45826  0.32205  1.0000 -0.4587323406
O   O8        1.0  0.54785  0.03475  0.55442  1.0000 -0.5872747415
O   O9        1.0  0.85896  0.17784  0.54157  1.0000 -0.4808088853
O   O10       1.0  0.76884  0.15956  0.41654  1.0000 -0.4808088853
O   O11       1.0  0.54174  0.68246  0.82205  1.0000 -0.4587323406
O   O12       1.0  0.96525  0.45215  0.05442  1.0000 -0.5872747415
O   O13       1.0  0.17784  0.85896  0.95843  1.0000 -0.4808088853
O   O14       1.0  0.15956  0.76884  0.08346  1.0000 -0.4808088853
O   O15       1.0  0.68246  0.54174  0.67795  1.0000 -0.4587323406
O   O16       1.0  0.45215  0.96525  0.44558  1.0000 -0.5872747415
