# DDEC6 charges by PACMAN v1.1 (https://github.com/mtap-research/PACMAN-charge/)
data_2020[Cu][nan]2[FSR]8
_chemical_formula_sum              "Cu4 H68 C88 I4 N12 O4"
_cell_length_a       13.6909
_cell_length_b       13.6909
_cell_length_c       17.7632
_cell_angle_alpha    69.7107
_cell_angle_beta     110.289
_cell_angle_gamma    125.05

_symmetry_space_group_name_H-M    "P 1"
_symmetry_Int_Tables_number       1

loop_
  _symmetry_equiv_pos_as_xyz
  'x, y, z'

loop_
  _atom_site_type_symbol
  _atom_site_label
  _atom_site_symmetry_multiplicity
  _atom_site_fract_x
  _atom_site_fract_y
  _atom_site_fract_z
  _atom_site_occupancy
  _atom_site_charge
Cu  Cu1       1.0  0.94959  0.94557  0.06513  1.0000 0.1847997445
Cu  Cu2       1.0  0.94557  0.94959  0.43487  1.0000 0.1847997445
Cu  Cu3       1.0  0.05041  0.05443  0.93487  1.0000 0.1847997445
Cu  Cu4       1.0  0.05443  0.05041  0.56513  1.0000 0.1847997445
H   H1        1.0  0.29235  0.91587  0.44703  1.0000 0.1204315793
H   H2        1.0  0.09373  0.02503  0.22005  1.0000 0.0907636304
H   H3        1.0  0.17462  0.95860  0.35112  1.0000 0.1204315793
H   H4        1.0  0.98008  0.22126  0.44248  1.0000 0.100224618
H   H5        1.0  0.03392  0.42126  0.41643  1.0000 0.1273677337
H   H6        1.0  0.30750  0.63294  0.61443  1.0000 0.1204315793
H   H7        1.0  0.03706  0.64214  0.28660  1.0000 0.1273677337
H   H8        1.0  0.95490  0.71484  0.15819  1.0000 0.100224618
H   H9        1.0  0.23484  0.44542  0.64442  1.0000 0.1204315793
H   H10       1.0  0.36931  0.00347  0.55198  1.0000 0.1119250488
H   H11       1.0  0.17748  0.24522  0.66376  1.0000 0.100224618
H   H12       1.0  0.49449  0.77363  0.66358  1.0000 0.1119250488
H   H13       1.0  0.51182  0.13132  0.64493  1.0000 0.1204315793
H   H14       1.0  0.63254  0.89806  0.75769  1.0000 0.1368417132
H   H15       1.0  0.75325  0.25119  0.80252  1.0000 0.1204315793
H   H16       1.0  0.69647  0.25403  0.70696  1.0000 0.1204315793
H   H17       1.0  0.60966  0.19362  0.77132  1.0000 0.1119250488
H   H18       1.0  0.91587  0.29235  0.05297  1.0000 0.1204315793
H   H19       1.0  0.02503  0.09373  0.27995  1.0000 0.0907636304
H   H20       1.0  0.95860  0.17462  0.14888  1.0000 0.1204315793
H   H21       1.0  0.22126  0.98008  0.05752  1.0000 0.100224618
H   H22       1.0  0.42126  0.03392  0.08357  1.0000 0.1273677337
H   H23       1.0  0.63294  0.30750  0.88557  1.0000 0.1204315793
H   H24       1.0  0.64214  0.03706  0.21340  1.0000 0.1273677337
H   H25       1.0  0.71484  0.95490  0.34181  1.0000 0.100224618
H   H26       1.0  0.44542  0.23484  0.85558  1.0000 0.1204315793
H   H27       1.0  0.00347  0.36931  0.94802  1.0000 0.1119250488
H   H28       1.0  0.24522  0.17748  0.83624  1.0000 0.100224618
H   H29       1.0  0.77363  0.49449  0.83642  1.0000 0.1119250488
H   H30       1.0  0.13132  0.51182  0.85507  1.0000 0.1204315793
H   H31       1.0  0.89806  0.63254  0.74231  1.0000 0.1368417132
H   H32       1.0  0.25119  0.75325  0.69748  1.0000 0.1204315793
H   H33       1.0  0.25403  0.69647  0.79304  1.0000 0.1204315793
H   H34       1.0  0.19362  0.60966  0.72868  1.0000 0.1119250488
H   H35       1.0  0.70765  0.08413  0.55297  1.0000 0.1204315793
H   H36       1.0  0.90627  0.97497  0.77995  1.0000 0.0907636304
H   H37       1.0  0.82538  0.04140  0.64888  1.0000 0.1204315793
H   H38       1.0  0.01992  0.77874  0.55752  1.0000 0.100224618
H   H39       1.0  0.96608  0.57874  0.58357  1.0000 0.1273677337
H   H40       1.0  0.69250  0.36706  0.38557  1.0000 0.1204315793
H   H41       1.0  0.96294  0.35786  0.71340  1.0000 0.1273677337
H   H42       1.0  0.04510  0.28516  0.84181  1.0000 0.100224618
H   H43       1.0  0.76516  0.55458  0.35558  1.0000 0.1204315793
H   H44       1.0  0.63069  0.99653  0.44802  1.0000 0.1119250488
H   H45       1.0  0.82252  0.75478  0.33624  1.0000 0.100224618
H   H46       1.0  0.50551  0.22637  0.33642  1.0000 0.1119250488
H   H47       1.0  0.48818  0.86868  0.35507  1.0000 0.1204315793
H   H48       1.0  0.36746  0.10194  0.24231  1.0000 0.1368417132
H   H49       1.0  0.24675  0.74881  0.19748  1.0000 0.1204315793
H   H50       1.0  0.30353  0.74597  0.29304  1.0000 0.1204315793
H   H51       1.0  0.39034  0.80638  0.22868  1.0000 0.1119250488
H   H52       1.0  0.08413  0.70765  0.94703  1.0000 0.1204315793
H   H53       1.0  0.97497  0.90627  0.72005  1.0000 0.0907636304
H   H54       1.0  0.04140  0.82538  0.85112  1.0000 0.1204315793
H   H55       1.0  0.77874  0.01992  0.94248  1.0000 0.100224618
H   H56       1.0  0.57874  0.96608  0.91643  1.0000 0.1273677337
H   H57       1.0  0.36706  0.69250  0.11443  1.0000 0.1204315793
H   H58       1.0  0.35786  0.96294  0.78660  1.0000 0.1273677337
H   H59       1.0  0.28516  0.04510  0.65819  1.0000 0.100224618
H   H60       1.0  0.55458  0.76516  0.14442  1.0000 0.1204315793
H   H61       1.0  0.99653  0.63069  0.05198  1.0000 0.1119250488
H   H62       1.0  0.75478  0.82252  0.16376  1.0000 0.100224618
H   H63       1.0  0.22637  0.50551  0.16358  1.0000 0.1119250488
H   H64       1.0  0.86868  0.48818  0.14493  1.0000 0.1204315793
H   H65       1.0  0.10194  0.36746  0.25769  1.0000 0.1368417132
H   H66       1.0  0.74881  0.24675  0.30252  1.0000 0.1204315793
H   H67       1.0  0.74597  0.30353  0.20696  1.0000 0.1204315793
H   H68       1.0  0.80638  0.39034  0.27132  1.0000 0.1119250488
C   C1        1.0  0.26590  0.83190  0.46500  1.0000 -0.2221681487
C   C2        1.0  0.17500  0.75020  0.41520  1.0000 0.2095208753
C   C3        1.0  0.31920  0.79120  0.54140  1.0000 0.1273677337
C   C4        1.0  0.08150  0.94570  0.23360  1.0000 0.0717800863
C   C5        1.0  0.13110  0.90710  0.31210  1.0000 -0.181616146
C   C6        1.0  0.11690  0.79310  0.33290  1.0000 0.0907636304
C   C7        1.0  0.03470  0.26810  0.48370  1.0000 0.0717800863
C   C8        1.0  0.06630  0.38770  0.46780  1.0000 -0.1710945081
C   C9        1.0  0.27570  0.66610  0.56260  1.0000 -0.2479420577
C   C10       1.0  0.14510  0.45930  0.52650  1.0000 0.0907636304
C   C11       1.0  0.05010  0.72150  0.27450  1.0000 -0.1710945081
C   C12       1.0  0.18630  0.59070  0.50810  1.0000 0.2095208753
C   C13       1.0  0.00160  0.76600  0.19750  1.0000 0.0717800863
C   C14       1.0  0.18400  0.40200  0.60100  1.0000 -0.1952061367
C   C15       1.0  0.41450  0.87370  0.59790  1.0000 0.0350948374
C   C16       1.0  0.42280  0.98140  0.59380  1.0000 -0.1214816284
C   C17       1.0  0.14890  0.28190  0.61220  1.0000 0.0610631209
C   C18       1.0  0.58380  0.02560  0.71030  1.0000 0.2292873252
C   C19       1.0  0.49620  0.84540  0.65990  1.0000 -0.1312538919
C   C20       1.0  0.50730  0.05770  0.64930  1.0000 -0.2266227019
C   C21       1.0  0.57880  0.91960  0.71560  1.0000 -0.2061558079
C   C22       1.0  0.68330  0.20670  0.76210  1.0000 -0.2479420577
C   C23       1.0  0.83190  0.26590  0.03500  1.0000 -0.2221681487
C   C24       1.0  0.75020  0.17500  0.08480  1.0000 0.2095208753
C   C25       1.0  0.79120  0.31920  0.95860  1.0000 0.1273677337
C   C26       1.0  0.94570  0.08150  0.26640  1.0000 0.0717800863
C   C27       1.0  0.90710  0.13110  0.18790  1.0000 -0.181616146
C   C28       1.0  0.79310  0.11690  0.16710  1.0000 0.0907636304
C   C29       1.0  0.26810  0.03470  0.01630  1.0000 0.0717800863
C   C30       1.0  0.38770  0.06630  0.03220  1.0000 -0.1710945081
C   C31       1.0  0.66610  0.27570  0.93740  1.0000 -0.2479420577
C   C32       1.0  0.45930  0.14510  0.97350  1.0000 0.0907636304
C   C33       1.0  0.72150  0.05010  0.22550  1.0000 -0.1710945081
C   C34       1.0  0.59070  0.18630  0.99190  1.0000 0.2095208753
C   C35       1.0  0.76600  0.00160  0.30250  1.0000 0.0717800863
C   C36       1.0  0.40200  0.18400  0.89900  1.0000 -0.1952061367
C   C37       1.0  0.87370  0.41450  0.90210  1.0000 0.0349502664
C   C38       1.0  0.98140  0.42280  0.90620  1.0000 -0.1214816284
C   C39       1.0  0.28190  0.14890  0.88780  1.0000 0.0610631209
C   C40       1.0  0.02560  0.58380  0.78970  1.0000 0.2292873252
C   C41       1.0  0.84540  0.49620  0.84010  1.0000 -0.1312538919
C   C42       1.0  0.05770  0.50730  0.85070  1.0000 -0.2266227019
C   C43       1.0  0.91960  0.57880  0.78440  1.0000 -0.2061558079
C   C44       1.0  0.20670  0.68330  0.73790  1.0000 -0.2479420577
C   C45       1.0  0.73410  0.16810  0.53500  1.0000 -0.2221681487
C   C46       1.0  0.82500  0.24980  0.58480  1.0000 0.2095208753
C   C47       1.0  0.68080  0.20880  0.45860  1.0000 0.1273677337
C   C48       1.0  0.91850  0.05430  0.76640  1.0000 0.0717800863
C   C49       1.0  0.86890  0.09290  0.68790  1.0000 -0.181616146
C   C50       1.0  0.88310  0.20690  0.66710  1.0000 0.0907636304
C   C51       1.0  0.96530  0.73190  0.51630  1.0000 0.0717800863
C   C52       1.0  0.93370  0.61230  0.53220  1.0000 -0.1710945081
C   C53       1.0  0.72430  0.33390  0.43740  1.0000 -0.2479420577
C   C54       1.0  0.85490  0.54070  0.47350  1.0000 0.0907636304
C   C55       1.0  0.94990  0.27850  0.72550  1.0000 -0.1710945081
C   C56       1.0  0.81370  0.40930  0.49190  1.0000 0.2095208753
C   C57       1.0  0.99840  0.23400  0.80250  1.0000 0.0717800863
C   C58       1.0  0.81600  0.59800  0.39900  1.0000 -0.1948623818
C   C59       1.0  0.58550  0.12630  0.40210  1.0000 0.0349502664
C   C60       1.0  0.57720  0.01860  0.40620  1.0000 -0.1214816284
C   C61       1.0  0.85110  0.71810  0.38780  1.0000 0.0610631209
C   C62       1.0  0.41620  0.97440  0.28970  1.0000 0.2292873252
C   C63       1.0  0.50380  0.15460  0.34010  1.0000 -0.1312538919
C   C64       1.0  0.49270  0.94230  0.35070  1.0000 -0.2266227019
C   C65       1.0  0.42120  0.08040  0.28440  1.0000 -0.2061558079
C   C66       1.0  0.31670  0.79330  0.23790  1.0000 -0.2479420577
C   C67       1.0  0.16810  0.73410  0.96500  1.0000 -0.2221681487
C   C68       1.0  0.24980  0.82500  0.91520  1.0000 0.2095208753
C   C69       1.0  0.20880  0.68080  0.04140  1.0000 0.1273677337
C   C70       1.0  0.05430  0.91850  0.73360  1.0000 0.0717800863
C   C71       1.0  0.09290  0.86890  0.81210  1.0000 -0.181616146
C   C72       1.0  0.20690  0.88310  0.83290  1.0000 0.0907636304
C   C73       1.0  0.73190  0.96530  0.98370  1.0000 0.0717800863
C   C74       1.0  0.61230  0.93370  0.96780  1.0000 -0.1710945081
C   C75       1.0  0.33390  0.72430  0.06260  1.0000 -0.2479420577
C   C76       1.0  0.54070  0.85490  0.02650  1.0000 0.0907636304
C   C77       1.0  0.27850  0.94990  0.77450  1.0000 -0.1710945081
C   C78       1.0  0.40930  0.81370  0.00810  1.0000 0.2095208753
C   C79       1.0  0.23400  0.99840  0.69750  1.0000 0.0717800863
C   C80       1.0  0.59800  0.81600  0.10100  1.0000 -0.1952061367
C   C81       1.0  0.12630  0.58550  0.09790  1.0000 0.0349502664
C   C82       1.0  0.01860  0.57720  0.09380  1.0000 -0.1214816284
C   C83       1.0  0.71810  0.85110  0.11220  1.0000 0.0610631209
C   C84       1.0  0.97440  0.41620  0.21030  1.0000 0.2292873252
C   C85       1.0  0.15460  0.50380  0.15990  1.0000 -0.1312538919
C   C86       1.0  0.94230  0.49270  0.14930  1.0000 -0.2266227019
C   C87       1.0  0.08040  0.42120  0.21560  1.0000 -0.2061558079
C   C88       1.0  0.79330  0.31670  0.26210  1.0000 -0.2479420577
I   I1        1.0  0.89833  0.81489  0.96105  1.0000 -0.4445445549
I   I2        1.0  0.81489  0.89833  0.53895  1.0000 -0.4445445549
I   I3        1.0  0.10167  0.18511  0.03895  1.0000 -0.4445445549
I   I4        1.0  0.18511  0.10167  0.46105  1.0000 -0.4445445549
N   N1        1.0  0.01760  0.87760  0.17640  1.0000 -0.181616146
N   N2        1.0  0.07700  0.21440  0.55440  1.0000 -0.181616146
N   N3        1.0  0.13600  0.63160  0.43520  1.0000 -0.3257754456
N   N4        1.0  0.87760  0.01760  0.32360  1.0000 -0.181616146
N   N5        1.0  0.21440  0.07700  0.94560  1.0000 -0.181616146
N   N6        1.0  0.63160  0.13600  0.06480  1.0000 -0.3257754456
N   N7        1.0  0.98240  0.12240  0.82360  1.0000 -0.181616146
N   N8        1.0  0.92300  0.78560  0.44560  1.0000 -0.181616146
N   N9        1.0  0.86400  0.36840  0.56480  1.0000 -0.3257754456
N   N10       1.0  0.12240  0.98240  0.67640  1.0000 -0.181616146
N   N11       1.0  0.78560  0.92300  0.05440  1.0000 -0.181616146
N   N12       1.0  0.36840  0.86400  0.93520  1.0000 -0.3257754456
O   O1        1.0  0.66910  0.09150  0.77020  1.0000 -0.1591805231
O   O2        1.0  0.09150  0.66910  0.72980  1.0000 -0.1591805231
O   O3        1.0  0.33090  0.90850  0.22980  1.0000 -0.1591805231
O   O4        1.0  0.90850  0.33090  0.27020  1.0000 -0.1591805231
