# DDEC6 charges by PACMAN v1.1 (https://github.com/mtap-research/PACMAN-charge/)
data_2020[Co][ins]3[FSR]1
_chemical_formula_sum              "Co4 H64 C92 N16 O16"
_cell_length_a       12.387
_cell_length_b       17.129
_cell_length_c       13.133
_cell_angle_alpha    90
_cell_angle_beta     97.606
_cell_angle_gamma    90

_symmetry_space_group_name_H-M    "P 1"
_symmetry_Int_Tables_number       1

loop_
  _symmetry_equiv_pos_as_xyz
  'x, y, z'

loop_
  _atom_site_type_symbol
  _atom_site_label
  _atom_site_symmetry_multiplicity
  _atom_site_fract_x
  _atom_site_fract_y
  _atom_site_fract_z
  _atom_site_occupancy
  _atom_site_charge
Co  Co1       1.0  0.01437  0.89485  0.18250  1.0000 0.7693020787
Co  Co2       1.0  0.48563  0.39485  0.81750  1.0000 0.7693020787
Co  Co3       1.0  0.98563  0.10515  0.81750  1.0000 0.7693020787
Co  Co4       1.0  0.51437  0.60515  0.18250  1.0000 0.7693020787
H   H1        1.0  0.36320  0.08370  0.30870  1.0000 0.1028740759
H   H2        1.0  0.23570  0.97660  0.26960  1.0000 0.128543577
H   H3        1.0  0.96660  0.08790  0.19340  1.0000 0.1102509411
H   H4        1.0  0.48680  0.15580  0.41790  1.0000 0.1177361188
H   H5        1.0  0.52620  0.23250  0.56040  1.0000 0.1177361188
H   H6        1.0  0.21140  0.28270  0.55380  1.0000 0.1177361188
H   H7        1.0  0.17290  0.21050  0.40240  1.0000 0.1177361188
H   H8        1.0  0.47970  0.11080  0.19550  1.0000 0.1102509411
H   H9        1.0  0.53900  0.18280  0.06630  1.0000 0.1177361188
H   H10       1.0  0.28330  0.32450  0.06050  1.0000 0.1177361188
H   H11       1.0  0.22190  0.25080  0.19140  1.0000 0.1177361188
H   H12       1.0  0.88020  0.00360  0.03230  1.0000 0.1102509411
H   H13       1.0  0.70280  0.03380  0.97540  1.0000 0.1368847171
H   H14       1.0  0.61270  0.87100  0.16490  1.0000 0.1503804785
H   H15       1.0  0.79170  0.84580  0.21720  1.0000 0.128543577
H   H16       1.0  0.46980  0.94660  0.06770  1.0000 0.1177361188
H   H17       1.0  0.13680  0.58370  0.69130  1.0000 0.1028740759
H   H18       1.0  0.26430  0.47660  0.73040  1.0000 0.128543577
H   H19       1.0  0.53340  0.58790  0.80660  1.0000 0.1102509411
H   H20       1.0  0.01320  0.65580  0.58210  1.0000 0.1177361188
H   H21       1.0  0.97380  0.73250  0.43960  1.0000 0.1177361188
H   H22       1.0  0.28860  0.78270  0.44620  1.0000 0.1177361188
H   H23       1.0  0.32710  0.71050  0.59760  1.0000 0.1177361188
H   H24       1.0  0.02030  0.61080  0.80450  1.0000 0.1102509411
H   H25       1.0  0.96100  0.68280  0.93370  1.0000 0.1177361188
H   H26       1.0  0.21670  0.82450  0.93950  1.0000 0.1177361188
H   H27       1.0  0.27810  0.75080  0.80860  1.0000 0.1177361188
H   H28       1.0  0.61980  0.50360  0.96770  1.0000 0.1102509411
H   H29       1.0  0.79720  0.53380  0.02460  1.0000 0.128543577
H   H30       1.0  0.88730  0.37100  0.83510  1.0000 0.1503804785
H   H31       1.0  0.70830  0.34580  0.78280  1.0000 0.128543577
H   H32       1.0  0.03020  0.44660  0.93230  1.0000 0.1177361188
H   H33       1.0  0.63680  0.91630  0.69130  1.0000 0.1028740759
H   H34       1.0  0.76430  0.02340  0.73040  1.0000 0.128543577
H   H35       1.0  0.03340  0.91210  0.80660  1.0000 0.1102509411
H   H36       1.0  0.51320  0.84420  0.58210  1.0000 0.1177361188
H   H37       1.0  0.47380  0.76750  0.43960  1.0000 0.1177361188
H   H38       1.0  0.78860  0.71730  0.44620  1.0000 0.1177361188
H   H39       1.0  0.82710  0.78950  0.59760  1.0000 0.1177361188
H   H40       1.0  0.52030  0.88920  0.80450  1.0000 0.1102509411
H   H41       1.0  0.46100  0.81720  0.93370  1.0000 0.1177361188
H   H42       1.0  0.71670  0.67550  0.93950  1.0000 0.1177361188
H   H43       1.0  0.77810  0.74920  0.80860  1.0000 0.1177361188
H   H44       1.0  0.11980  0.99640  0.96770  1.0000 0.1102509411
H   H45       1.0  0.29720  0.96620  0.02460  1.0000 0.1368847171
H   H46       1.0  0.38730  0.12900  0.83510  1.0000 0.1503804785
H   H47       1.0  0.20830  0.15420  0.78280  1.0000 0.128543577
H   H48       1.0  0.53020  0.05340  0.93230  1.0000 0.1177361188
H   H49       1.0  0.86320  0.41630  0.30870  1.0000 0.1028740759
H   H50       1.0  0.73570  0.52340  0.26960  1.0000 0.128543577
H   H51       1.0  0.46660  0.41210  0.19340  1.0000 0.1102509411
H   H52       1.0  0.98680  0.34420  0.41790  1.0000 0.1177361188
H   H53       1.0  0.02620  0.26750  0.56040  1.0000 0.1177361188
H   H54       1.0  0.71140  0.21730  0.55380  1.0000 0.1177361188
H   H55       1.0  0.67290  0.28950  0.40240  1.0000 0.1177361188
H   H56       1.0  0.97970  0.38920  0.19550  1.0000 0.1102509411
H   H57       1.0  0.03900  0.31720  0.06630  1.0000 0.1177361188
H   H58       1.0  0.78330  0.17550  0.06050  1.0000 0.1177361188
H   H59       1.0  0.72190  0.24920  0.19140  1.0000 0.1177361188
H   H60       1.0  0.38020  0.49640  0.03230  1.0000 0.1102509411
H   H61       1.0  0.20280  0.46620  0.97540  1.0000 0.1368847171
H   H62       1.0  0.11270  0.62900  0.16490  1.0000 0.1503804785
H   H63       1.0  0.29170  0.65420  0.21720  1.0000 0.128543577
H   H64       1.0  0.96980  0.55340  0.06770  1.0000 0.1177361188
C   C1        1.0  0.31170  0.12716  0.29680  1.0000 -0.0357983846
C   C2        1.0  0.18360  0.01575  0.25690  1.0000 0.1028740759
C   C3        1.0  0.03950  0.07750  0.21600  1.0000 0.1368847171
C   C4        1.0  0.32620  0.17553  0.39520  1.0000 0.0674085355
C   C5        1.0  0.43090  0.18230  0.44380  1.0000 -0.1577537645
C   C6        1.0  0.45440  0.22750  0.52990  1.0000 -0.0919436988
C   C7        1.0  0.37280  0.26575  0.57220  1.0000 -0.0135878397
C   C8        1.0  0.26760  0.25830  0.52560  1.0000 -0.0986046109
C   C9        1.0  0.24410  0.21390  0.43510  1.0000 -0.1577537645
C   C10       1.0  0.40160  0.31544  0.66590  1.0000 0.5401500698
C   C11       1.0  0.34580  0.17326  0.20650  1.0000 0.0674085355
C   C12       1.0  0.43950  0.15366  0.16870  1.0000 -0.1690030608
C   C13       1.0  0.47490  0.19683  0.09130  1.0000 -0.0986046109
C   C14       1.0  0.41660  0.26063  0.05030  1.0000 -0.0205267656
C   C15       1.0  0.32280  0.28130  0.08740  1.0000 -0.1054514263
C   C16       1.0  0.28610  0.23710  0.16620  1.0000 -0.141138826
C   C17       1.0  0.45500  0.30598  0.96460  1.0000 0.5401500698
C   C18       1.0  0.82540  0.97727  0.06030  1.0000 0.0634280368
C   C19       1.0  0.71890  0.99561  0.02540  1.0000 -0.1901127227
C   C20       1.0  0.63580  0.95685  0.06500  1.0000 0.1503804785
C   C21       1.0  0.66580  0.89949  0.13740  1.0000 -0.1901127227
C   C22       1.0  0.77370  0.88471  0.16860  1.0000 0.1028740759
C   C23       1.0  0.51960  0.97433  0.03470  1.0000 -0.141138826
C   C24       1.0  0.18830  0.62716  0.70320  1.0000 -0.0344891239
C   C25       1.0  0.31640  0.51575  0.74310  1.0000 0.1028740759
C   C26       1.0  0.46050  0.57750  0.78400  1.0000 0.1368847171
C   C27       1.0  0.17380  0.67553  0.60480  1.0000 0.0674085355
C   C28       1.0  0.06910  0.68230  0.55620  1.0000 -0.1577537645
C   C29       1.0  0.04560  0.72750  0.47010  1.0000 -0.0919436988
C   C30       1.0  0.12720  0.76575  0.42780  1.0000 -0.0135878397
C   C31       1.0  0.23240  0.75830  0.47440  1.0000 -0.0986046109
C   C32       1.0  0.25590  0.71390  0.56490  1.0000 -0.1577537645
C   C33       1.0  0.09840  0.81544  0.33410  1.0000 0.5401500698
C   C34       1.0  0.15420  0.67326  0.79350  1.0000 0.0674085355
C   C35       1.0  0.06050  0.65366  0.83130  1.0000 -0.1690030608
C   C36       1.0  0.02510  0.69683  0.90870  1.0000 -0.0986046109
C   C37       1.0  0.08340  0.76063  0.94970  1.0000 -0.0205267656
C   C38       1.0  0.17720  0.78130  0.91260  1.0000 -0.1054514263
C   C39       1.0  0.21390  0.73710  0.83380  1.0000 -0.1451513383
C   C40       1.0  0.04500  0.80598  0.03540  1.0000 0.5401500698
C   C41       1.0  0.67460  0.47727  0.93970  1.0000 0.0634280368
C   C42       1.0  0.78110  0.49561  0.97460  1.0000 -0.1901127227
C   C43       1.0  0.86420  0.45685  0.93500  1.0000 0.1503804785
C   C44       1.0  0.83420  0.39949  0.86260  1.0000 -0.1901127227
C   C45       1.0  0.72630  0.38471  0.83140  1.0000 0.1028740759
C   C46       1.0  0.98040  0.47433  0.96530  1.0000 -0.141138826
C   C47       1.0  0.68830  0.87284  0.70320  1.0000 -0.0357983846
C   C48       1.0  0.81640  0.98425  0.74310  1.0000 0.1028740759
C   C49       1.0  0.96050  0.92250  0.78400  1.0000 0.1368847171
C   C50       1.0  0.67380  0.82447  0.60480  1.0000 0.0674085355
C   C51       1.0  0.56910  0.81770  0.55620  1.0000 -0.1577537645
C   C52       1.0  0.54560  0.77250  0.47010  1.0000 -0.0919436988
C   C53       1.0  0.62720  0.73425  0.42780  1.0000 -0.0135878397
C   C54       1.0  0.73240  0.74170  0.47440  1.0000 -0.0986046109
C   C55       1.0  0.75590  0.78610  0.56490  1.0000 -0.1577537645
C   C56       1.0  0.59840  0.68456  0.33410  1.0000 0.5401500698
C   C57       1.0  0.65420  0.82674  0.79350  1.0000 0.0634280368
C   C58       1.0  0.56050  0.84634  0.83130  1.0000 -0.1690030608
C   C59       1.0  0.52510  0.80317  0.90870  1.0000 -0.1054514263
C   C60       1.0  0.58340  0.73937  0.94970  1.0000 -0.0205267656
C   C61       1.0  0.67720  0.71870  0.91260  1.0000 -0.1054514263
C   C62       1.0  0.71390  0.76290  0.83380  1.0000 -0.141138826
C   C63       1.0  0.54500  0.69402  0.03540  1.0000 0.5401500698
C   C64       1.0  0.17460  0.02273  0.93970  1.0000 0.0634280368
C   C65       1.0  0.28110  0.00439  0.97460  1.0000 -0.195241085
C   C66       1.0  0.36420  0.04315  0.93500  1.0000 0.1503804785
C   C67       1.0  0.33420  0.10051  0.86260  1.0000 -0.1901127227
C   C68       1.0  0.22630  0.11529  0.83140  1.0000 0.1028740759
C   C69       1.0  0.48040  0.02567  0.96530  1.0000 -0.141138826
C   C70       1.0  0.81170  0.37284  0.29680  1.0000 -0.0344891239
C   C71       1.0  0.68360  0.48425  0.25690  1.0000 0.1028740759
C   C72       1.0  0.53950  0.42250  0.21600  1.0000 0.1368847171
C   C73       1.0  0.82620  0.32447  0.39520  1.0000 0.0674085355
C   C74       1.0  0.93090  0.31770  0.44380  1.0000 -0.1577537645
C   C75       1.0  0.95440  0.27250  0.52990  1.0000 -0.0919436988
C   C76       1.0  0.87280  0.23425  0.57220  1.0000 -0.0135878397
C   C77       1.0  0.76760  0.24170  0.52560  1.0000 -0.0986046109
C   C78       1.0  0.74410  0.28610  0.43510  1.0000 -0.1577537645
C   C79       1.0  0.90160  0.18456  0.66590  1.0000 0.5401500698
C   C80       1.0  0.84580  0.32674  0.20650  1.0000 0.0634280368
C   C81       1.0  0.93950  0.34634  0.16870  1.0000 -0.1690030608
C   C82       1.0  0.97490  0.30317  0.09130  1.0000 -0.1054514263
C   C83       1.0  0.91660  0.23937  0.05030  1.0000 -0.0205267656
C   C84       1.0  0.82280  0.21870  0.08740  1.0000 -0.1054514263
C   C85       1.0  0.78610  0.26290  0.16620  1.0000 -0.141138826
C   C86       1.0  0.95500  0.19402  0.96460  1.0000 0.5401500698
C   C87       1.0  0.32540  0.52273  0.06030  1.0000 0.0634280368
C   C88       1.0  0.21890  0.50439  0.02540  1.0000 -0.1901127227
C   C89       1.0  0.13580  0.54315  0.06500  1.0000 0.1503804785
C   C90       1.0  0.16580  0.60051  0.13740  1.0000 -0.1901127227
C   C91       1.0  0.27370  0.61529  0.16860  1.0000 0.1028740759
C   C92       1.0  0.01960  0.52567  0.03470  1.0000 -0.141138826
N   N1        1.0  0.20302  0.09136  0.27051  1.0000 0.128543577
N   N2        1.0  0.11050  0.13287  0.24370  1.0000 -0.2333909336
N   N3        1.0  0.08080  0.00394  0.22293  1.0000 -0.3288106088
N   N4        1.0  0.85436  0.92321  0.13289  1.0000 -0.2520525221
N   N5        1.0  0.29698  0.59136  0.72949  1.0000 0.128543577
N   N6        1.0  0.38950  0.63287  0.75630  1.0000 -0.2333909336
N   N7        1.0  0.41920  0.50394  0.77707  1.0000 -0.3288106088
N   N8        1.0  0.64564  0.42321  0.86711  1.0000 -0.2520525221
N   N9        1.0  0.79698  0.90864  0.72949  1.0000 0.128543577
N   N10       1.0  0.88950  0.86713  0.75630  1.0000 -0.2333909336
N   N11       1.0  0.91920  0.99606  0.77707  1.0000 -0.3288106088
N   N12       1.0  0.14564  0.07679  0.86711  1.0000 -0.2520525221
N   N13       1.0  0.70302  0.40864  0.27051  1.0000 0.128543577
N   N14       1.0  0.61050  0.36713  0.24370  1.0000 -0.2333909336
N   N15       1.0  0.58080  0.49606  0.22293  1.0000 -0.3288106088
N   N16       1.0  0.35436  0.57679  0.13289  1.0000 -0.2520525221
O   O1        1.0  0.33037  0.33681  0.71852  1.0000 -0.5562238607
O   O2        1.0  0.50033  0.33558  0.68822  1.0000 -0.5329357151
O   O3        1.0  0.51909  0.27648  0.91059  1.0000 -0.5185323421
O   O4        1.0  0.41835  0.37447  0.94727  1.0000 -0.5466659132
O   O5        1.0  0.16963  0.83681  0.28148  1.0000 -0.5562238607
O   O6        1.0  0.99967  0.83558  0.31178  1.0000 -0.5329357151
O   O7        1.0  0.98091  0.77648  0.08941  1.0000 -0.5185323421
O   O8        1.0  0.08165  0.87447  0.05273  1.0000 -0.5466659132
O   O9        1.0  0.66963  0.66319  0.28148  1.0000 -0.5562238607
O   O10       1.0  0.49967  0.66442  0.31178  1.0000 -0.5329357151
O   O11       1.0  0.48091  0.72352  0.08941  1.0000 -0.5185323421
O   O12       1.0  0.58165  0.62553  0.05273  1.0000 -0.5466659132
O   O13       1.0  0.83037  0.16319  0.71852  1.0000 -0.5562238607
O   O14       1.0  0.00033  0.16442  0.68822  1.0000 -0.5329357151
O   O15       1.0  0.01909  0.22352  0.91059  1.0000 -0.5185323421
O   O16       1.0  0.91835  0.12553  0.94727  1.0000 -0.5466659132
