# DDEC6 charges by PACMAN v1.1 (https://github.com/mtap-research/PACMAN-charge/)
data_2020[Zn][pcu]3[FSR]12
_chemical_formula_sum              "Zn4 H34 C36 N4 O14"
_cell_length_a       8.3953
_cell_length_b       9.769
_cell_length_c       14.2096
_cell_angle_alpha    102.584
_cell_angle_beta     101.421
_cell_angle_gamma    92.328

_symmetry_space_group_name_H-M    "P 1"
_symmetry_Int_Tables_number       1

loop_
  _symmetry_equiv_pos_as_xyz
  'x, y, z'

loop_
  _atom_site_type_symbol
  _atom_site_label
  _atom_site_symmetry_multiplicity
  _atom_site_fract_x
  _atom_site_fract_y
  _atom_site_fract_z
  _atom_site_occupancy
  _atom_site_charge
Zn  Zn1       1.0  0.33117  0.13392  0.66518  1.0000 0.8328822766
Zn  Zn2       1.0  0.67247  0.07826  0.53501  1.0000 0.9185612713
Zn  Zn3       1.0  0.66883  0.86608  0.33482  1.0000 0.8328822766
Zn  Zn4       1.0  0.32753  0.92174  0.46499  1.0000 0.9185612713
H   H1        1.0  0.46383  0.11894  0.87442  1.0000 0.1192262013
H   H2        1.0  0.67717  0.22472  0.99996  1.0000 0.137268885
H   H3        1.0  0.70189  0.54324  0.86699  1.0000 0.137268885
H   H4        1.0  0.48242  0.42892  0.74654  1.0000 0.1192262013
H   H5        1.0  0.09865  0.65185  0.37293  1.0000 0.1192262013
H   H6        1.0  0.95931  0.52693  0.21918  1.0000 0.137268885
H   H7        1.0  0.04933  0.85734  0.11129  1.0000 0.1289812601
H   H8        1.0  0.18877  0.97232  0.26454  1.0000 0.1192262013
H   H9        1.0  0.87625  0.64849  0.00109  1.0000 0.0992390317
H   H10       1.0  0.90335  0.40455  0.07262  1.0000 0.0992390317
H   H11       1.0  0.14599  0.38113  0.42659  1.0000 0.1289812601
H   H12       1.0  0.01012  0.35981  0.48496  1.0000 0.1289812601
H   H13       1.0  0.89560  0.28550  0.31745  1.0000 0.1289812601
H   H14       1.0  0.03438  0.18558  0.30164  1.0000 0.1192262013
H   H15       1.0  0.40923  0.46444  0.40193  1.0000 0.1116234724
H   H16       1.0  0.59698  0.50882  0.43065  1.0000 0.1192262013
H   H17       1.0  0.50543  0.95560  0.63332  1.0000 0.3661929284
H   H18       1.0  0.53617  0.88106  0.12558  1.0000 0.1192262013
H   H19       1.0  0.32283  0.77528  0.00004  1.0000 0.137268885
H   H20       1.0  0.29811  0.45676  0.13301  1.0000 0.137268885
H   H21       1.0  0.51758  0.57108  0.25346  1.0000 0.1192262013
H   H22       1.0  0.90135  0.34815  0.62707  1.0000 0.1192262013
H   H23       1.0  0.04069  0.47307  0.78082  1.0000 0.137268885
H   H24       1.0  0.95067  0.14266  0.88871  1.0000 0.1289812601
H   H25       1.0  0.81123  0.02768  0.73546  1.0000 0.1192262013
H   H26       1.0  0.12375  0.35151  0.99891  1.0000 0.0992390317
H   H27       1.0  0.09665  0.59545  0.92738  1.0000 0.0992390317
H   H28       1.0  0.85401  0.61887  0.57341  1.0000 0.1289812601
H   H29       1.0  0.98988  0.64019  0.51504  1.0000 0.1289812601
H   H30       1.0  0.10440  0.71450  0.68255  1.0000 0.1289812601
H   H31       1.0  0.96562  0.81442  0.69836  1.0000 0.1192262013
H   H32       1.0  0.59077  0.53556  0.59807  1.0000 0.1116234724
H   H33       1.0  0.40302  0.49118  0.56935  1.0000 0.1192262013
H   H34       1.0  0.49457  0.04440  0.36668  1.0000 0.3661929284
C   C1        1.0  0.51430  0.20410  0.87180  1.0000 0.0622365837
C   C2        1.0  0.64350  0.26700  0.94760  1.0000 -0.211260973
C   C3        1.0  0.72290  0.39320  0.94560  1.0000 0.137268885
C   C4        1.0  0.65790  0.45550  0.86950  1.0000 -0.211260973
C   C5        1.0  0.52560  0.38510  0.79670  1.0000 0.0862549756
C   C6        1.0  0.09300  0.69260  0.31920  1.0000 0.1289812601
C   C7        1.0  0.00940  0.61640  0.22650  1.0000 -0.2244790505
C   C8        1.0  0.00160  0.67490  0.14620  1.0000 0.1289812601
C   C9        1.0  0.06300  0.81120  0.16270  1.0000 -0.1928647246
C   C10       1.0  0.14470  0.88020  0.25510  1.0000 0.0837916684
C   C11       1.0  0.95160  0.59630  0.03890  1.0000 -0.1049385454
C   C12       1.0  0.89270  0.44070  0.01270  1.0000 -0.1087202763
C   C13       1.0  0.18280  0.21890  0.49620  1.0000 0.6487272297
C   C14       1.0  0.07710  0.31100  0.44240  1.0000 -0.2930223431
C   C15       1.0  0.96750  0.22450  0.34760  1.0000 -0.3007098595
C   C16       1.0  0.86700  0.10690  0.36670  1.0000 0.6487272297
C   C17       1.0  0.54260  0.30790  0.44230  1.0000 0.6251906072
C   C18       1.0  0.50880  0.46080  0.44920  1.0000 -0.3007098595
C   C19       1.0  0.48570  0.79590  0.12820  1.0000 0.0622365837
C   C20       1.0  0.35650  0.73300  0.05240  1.0000 -0.211260973
C   C21       1.0  0.27710  0.60680  0.05440  1.0000 0.137268885
C   C22       1.0  0.34210  0.54450  0.13050  1.0000 -0.211260973
C   C23       1.0  0.47440  0.61490  0.20330  1.0000 0.0862549756
C   C24       1.0  0.90700  0.30740  0.68080  1.0000 0.1289812601
C   C25       1.0  0.99060  0.38360  0.77350  1.0000 -0.2244790505
C   C26       1.0  0.99840  0.32510  0.85380  1.0000 0.1289812601
C   C27       1.0  0.93700  0.18880  0.83730  1.0000 -0.1928647246
C   C28       1.0  0.85530  0.11980  0.74490  1.0000 0.0837916684
C   C29       1.0  0.04840  0.40370  0.96110  1.0000 -0.1087202763
C   C30       1.0  0.10730  0.55930  0.98730  1.0000 -0.1087202763
C   C31       1.0  0.81720  0.78110  0.50380  1.0000 0.6487272297
C   C32       1.0  0.92290  0.68900  0.55760  1.0000 -0.2930223431
C   C33       1.0  0.03250  0.77550  0.65240  1.0000 -0.3007098595
C   C34       1.0  0.13300  0.89310  0.63330  1.0000 0.6487272297
C   C35       1.0  0.45740  0.69210  0.55770  1.0000 0.6251906072
C   C36       1.0  0.49120  0.53920  0.55080  1.0000 -0.3007098595
N   N1        1.0  0.45850  0.25960  0.79510  1.0000 -0.231437334
N   N2        1.0  0.16420  0.82030  0.33333  1.0000 -0.211260973
N   N3        1.0  0.54150  0.74040  0.20490  1.0000 -0.231437334
N   N4        1.0  0.83580  0.17970  0.66667  1.0000 -0.211260973
O   O1        1.0  0.59430  0.27180  0.52150  1.0000 -0.5725184168
O   O2        1.0  0.51790  0.22800  0.35760  1.0000 -0.5783456351
O   O3        1.0  0.21980  0.25890  0.59040  1.0000 -0.5725184168
O   O4        1.0  0.22570  0.11180  0.44620  1.0000 -0.5397301997
O   O5        1.0  0.85480  0.10950  0.45220  1.0000 -0.5476061191
O   O6        1.0  0.79960  0.00690  0.29220  1.0000 -0.5783456351
O   O7        1.0  0.48460  0.02750  0.59940  1.0000 -0.8393664147
O   O8        1.0  0.40570  0.72820  0.47850  1.0000 -0.5725184168
O   O9        1.0  0.48210  0.77200  0.64240  1.0000 -0.5783456351
O   O10       1.0  0.78020  0.74110  0.40960  1.0000 -0.5725184168
O   O11       1.0  0.77430  0.88820  0.55380  1.0000 -0.5397301997
O   O12       1.0  0.14520  0.89050  0.54780  1.0000 -0.5476061191
O   O13       1.0  0.20040  0.99310  0.70780  1.0000 -0.5783456351
O   O14       1.0  0.51540  0.97250  0.40060  1.0000 -0.8393664147
