# DDEC6 charges by PACMAN v1.1 (https://github.com/mtap-research/PACMAN-charge/)
data_2020[U][hcb]2[FSR]1
_chemical_formula_sum              "U4 H48 C48 N12 O44"
_cell_length_a       8.9863
_cell_length_b       20.6215
_cell_length_c       15.984
_cell_angle_alpha    90
_cell_angle_beta     121.513
_cell_angle_gamma    90

_symmetry_space_group_name_H-M    "P 1"
_symmetry_Int_Tables_number       1

loop_
  _symmetry_equiv_pos_as_xyz
  'x, y, z'

loop_
  _atom_site_type_symbol
  _atom_site_label
  _atom_site_symmetry_multiplicity
  _atom_site_fract_x
  _atom_site_fract_y
  _atom_site_fract_z
  _atom_site_occupancy
  _atom_site_charge
U   U1        1.0  0.01907  0.16185  0.90949  1.0000 2.3166600833
U   U2        1.0  0.01907  0.33815  0.40949  1.0000 2.3166600833
U   U3        1.0  0.98093  0.66185  0.59051  1.0000 2.3124271999
U   U4        1.0  0.98093  0.83815  0.09051  1.0000 2.3166600833
H   H1        1.0  0.75700  0.96460  0.93510  1.0000 0.1630343552
H   H2        1.0  0.63540  0.98590  0.82480  1.0000 0.1658791821
H   H3        1.0  0.60040  0.01090  0.97980  1.0000 0.1184728029
H   H4        1.0  0.45480  0.00540  0.86930  1.0000 0.1303396258
H   H5        1.0  0.25990  0.26700  0.74560  1.0000 0.1184728029
H   H6        1.0  0.20760  0.20140  0.68730  1.0000 0.1184728029
H   H7        1.0  0.49980  0.27690  0.72790  1.0000 0.1630343552
H   H8        1.0  0.45710  0.20910  0.67450  1.0000 0.1630343552
H   H9        1.0  0.66270  0.20150  0.14090  1.0000 0.1130889873
H   H10       1.0  0.60740  0.26790  0.08450  1.0000 0.1184728029
H   H11       1.0  0.86810  0.27040  0.08410  1.0000 0.1630343552
H   H12       1.0  0.92340  0.20330  0.13950  1.0000 0.1630343552
H   H13       1.0  0.75700  0.53540  0.43510  1.0000 0.1630343552
H   H14       1.0  0.63540  0.51410  0.32480  1.0000 0.1658791821
H   H15       1.0  0.60040  0.48910  0.47980  1.0000 0.1184728029
H   H16       1.0  0.45480  0.49460  0.36930  1.0000 0.1303396258
H   H17       1.0  0.25990  0.23300  0.24560  1.0000 0.1184728029
H   H18       1.0  0.20760  0.29860  0.18730  1.0000 0.1184728029
H   H19       1.0  0.49980  0.22310  0.22790  1.0000 0.1630343552
H   H20       1.0  0.45710  0.29090  0.17450  1.0000 0.1630343552
H   H21       1.0  0.66270  0.29850  0.64090  1.0000 0.1130889873
H   H22       1.0  0.60740  0.23210  0.58450  1.0000 0.1184728029
H   H23       1.0  0.86810  0.22960  0.58410  1.0000 0.1630343552
H   H24       1.0  0.92340  0.29670  0.63950  1.0000 0.1630343552
H   H25       1.0  0.24300  0.46460  0.56490  1.0000 0.1630343552
H   H26       1.0  0.36460  0.48590  0.67520  1.0000 0.1658791821
H   H27       1.0  0.39960  0.51090  0.52020  1.0000 0.1184728029
H   H28       1.0  0.54520  0.50540  0.63070  1.0000 0.1303396258
H   H29       1.0  0.74010  0.76700  0.75440  1.0000 0.1184728029
H   H30       1.0  0.79240  0.70140  0.81270  1.0000 0.1184728029
H   H31       1.0  0.50020  0.77690  0.77210  1.0000 0.1630343552
H   H32       1.0  0.54290  0.70910  0.82550  1.0000 0.1630343552
H   H33       1.0  0.33730  0.70150  0.35910  1.0000 0.1130889873
H   H34       1.0  0.39260  0.76790  0.41550  1.0000 0.1184728029
H   H35       1.0  0.13190  0.77040  0.41590  1.0000 0.1630343552
H   H36       1.0  0.07660  0.70330  0.36050  1.0000 0.1630343552
H   H37       1.0  0.24300  0.03540  0.06490  1.0000 0.1630343552
H   H38       1.0  0.36460  0.01410  0.17520  1.0000 0.1658791821
H   H39       1.0  0.39960  0.98910  0.02020  1.0000 0.1184728029
H   H40       1.0  0.54520  0.99460  0.13070  1.0000 0.1303396258
H   H41       1.0  0.74010  0.73300  0.25440  1.0000 0.1184728029
H   H42       1.0  0.79240  0.79860  0.31270  1.0000 0.1184728029
H   H43       1.0  0.50020  0.72310  0.27210  1.0000 0.1630343552
H   H44       1.0  0.54290  0.79090  0.32550  1.0000 0.1630343552
H   H45       1.0  0.33730  0.79850  0.85910  1.0000 0.1130889873
H   H46       1.0  0.39260  0.73210  0.91550  1.0000 0.1184728029
H   H47       1.0  0.13190  0.72960  0.91590  1.0000 0.1630343552
H   H48       1.0  0.07660  0.79670  0.86050  1.0000 0.1630343552
C   C1        1.0  0.81620  0.05440  0.90790  1.0000 0.6187670152
C   C2        1.0  0.69380  0.00080  0.89230  1.0000 -0.3310968732
C   C3        1.0  0.56580  0.02590  0.91460  1.0000 -0.0222993118
C   C4        1.0  0.43060  0.12470  0.82310  1.0000 0.5615686248
C   C5        1.0  0.50480  0.22830  0.91200  1.0000 0.569109417
C   C6        1.0  0.60320  0.12570  0.00080  1.0000 0.5615686248
C   C7        1.0  0.30570  0.22830  0.73240  1.0000 -0.0259147868
C   C8        1.0  0.40650  0.24710  0.68600  1.0000 -0.3355242838
C   C9        1.0  0.27880  0.27900  0.59120  1.0000 0.6187670152
C   C10       1.0  0.67050  0.22780  0.09310  1.0000 -0.0222993118
C   C11       1.0  0.85800  0.24280  0.13000  1.0000 -0.3310968732
C   C12       1.0  0.92380  0.27690  0.22530  1.0000 0.6187670152
C   C13       1.0  0.81620  0.44560  0.40790  1.0000 0.6187670152
C   C14       1.0  0.69380  0.49920  0.39230  1.0000 -0.3310968732
C   C15       1.0  0.56580  0.47410  0.41460  1.0000 -0.0222993118
C   C16       1.0  0.43060  0.37530  0.32310  1.0000 0.5615686248
C   C17       1.0  0.50480  0.27170  0.41200  1.0000 0.569109417
C   C18       1.0  0.60320  0.37430  0.50080  1.0000 0.5615686248
C   C19       1.0  0.30570  0.27170  0.23240  1.0000 -0.0259147868
C   C20       1.0  0.40650  0.25290  0.18600  1.0000 -0.3355242838
C   C21       1.0  0.27880  0.22100  0.09120  1.0000 0.6187670152
C   C22       1.0  0.67050  0.27220  0.59310  1.0000 -0.0222993118
C   C23       1.0  0.85800  0.25720  0.63000  1.0000 -0.3310968732
C   C24       1.0  0.92380  0.22310  0.72530  1.0000 0.6187670152
C   C25       1.0  0.18380  0.55440  0.59210  1.0000 0.6187670152
C   C26       1.0  0.30620  0.50080  0.60770  1.0000 -0.3310968732
C   C27       1.0  0.43420  0.52590  0.58540  1.0000 -0.0222993118
C   C28       1.0  0.56940  0.62470  0.67690  1.0000 0.5615686248
C   C29       1.0  0.49520  0.72830  0.58800  1.0000 0.569109417
C   C30       1.0  0.39680  0.62570  0.49920  1.0000 0.5615686248
C   C31       1.0  0.69430  0.72830  0.76760  1.0000 -0.0259147868
C   C32       1.0  0.59350  0.74710  0.81400  1.0000 -0.3355242838
C   C33       1.0  0.72120  0.77900  0.90880  1.0000 0.6187670152
C   C34       1.0  0.32950  0.72780  0.40690  1.0000 -0.0222993118
C   C35       1.0  0.14200  0.74280  0.37000  1.0000 -0.3310968732
C   C36       1.0  0.07620  0.77690  0.27470  1.0000 0.6187670152
C   C37       1.0  0.18380  0.94560  0.09210  1.0000 0.6187670152
C   C38       1.0  0.30620  0.99920  0.10770  1.0000 -0.3310968732
C   C39       1.0  0.43420  0.97410  0.08540  1.0000 -0.0222993118
C   C40       1.0  0.56940  0.87530  0.17690  1.0000 0.5615686248
C   C41       1.0  0.49520  0.77170  0.08800  1.0000 0.569109417
C   C42       1.0  0.39680  0.87430  0.99920  1.0000 0.5615686248
C   C43       1.0  0.69430  0.77170  0.26760  1.0000 -0.0259147868
C   C44       1.0  0.59350  0.75290  0.31400  1.0000 -0.3355242838
C   C45       1.0  0.72120  0.72100  0.40880  1.0000 0.6187670152
C   C46       1.0  0.32950  0.77220  0.90690  1.0000 -0.0222993118
C   C47       1.0  0.14200  0.75720  0.87000  1.0000 -0.3310968732
C   C48       1.0  0.07620  0.72310  0.77470  1.0000 0.6187670152
N   N1        1.0  0.53400  0.09490  0.91170  1.0000 -0.2505684797
N   N2        1.0  0.41870  0.19190  0.82680  1.0000 -0.2505684797
N   N3        1.0  0.58850  0.19200  0.99630  1.0000 -0.2426337418
N   N4        1.0  0.53400  0.40510  0.41170  1.0000 -0.2505684797
N   N5        1.0  0.41870  0.30810  0.32680  1.0000 -0.2505684797
N   N6        1.0  0.58850  0.30800  0.49630  1.0000 -0.2426337418
N   N7        1.0  0.46600  0.59490  0.58830  1.0000 -0.2505684797
N   N8        1.0  0.58130  0.69190  0.67320  1.0000 -0.2505684797
N   N9        1.0  0.41150  0.69200  0.50370  1.0000 -0.2426337418
N   N10       1.0  0.46600  0.90510  0.08830  1.0000 -0.2505684797
N   N11       1.0  0.58130  0.80810  0.17320  1.0000 -0.2505684797
N   N12       1.0  0.41150  0.80800  0.00370  1.0000 -0.2426337418
O   O1        1.0  0.80460  0.07610  0.82880  1.0000 -0.5201822422
O   O2        1.0  0.94080  0.07550  0.98720  1.0000 -0.5201822422
O   O3        1.0  0.24510  0.25800  0.50930  1.0000 -0.5114487787
O   O4        1.0  0.20470  0.33200  0.59130  1.0000 -0.5537441601
O   O5        1.0  0.86330  0.33200  0.22720  1.0000 -0.4997693976
O   O6        1.0  0.04050  0.25340  0.30670  1.0000 -0.5201822422
O   O7        1.0  0.35720  0.09460  0.74750  1.0000 -0.4340952267
O   O8        1.0  0.50460  0.28590  0.91130  1.0000 -0.4111880739
O   O9        1.0  0.67530  0.09610  0.07830  1.0000 -0.4441051711
O   O10       1.0  0.17900  0.11300  0.90810  1.0000 -0.6637273659
O   O11       1.0  0.85780  0.21070  0.90970  1.0000 -0.6690242995
O   O12       1.0  0.80460  0.42390  0.32880  1.0000 -0.5201822422
O   O13       1.0  0.94080  0.42450  0.48720  1.0000 -0.5201822422
O   O14       1.0  0.24510  0.24200  0.00930  1.0000 -0.5114487787
O   O15       1.0  0.20470  0.16800  0.09130  1.0000 -0.5537441601
O   O16       1.0  0.86330  0.16800  0.72720  1.0000 -0.4997693976
O   O17       1.0  0.04050  0.24660  0.80670  1.0000 -0.5201822422
O   O18       1.0  0.35720  0.40540  0.24750  1.0000 -0.4340952267
O   O19       1.0  0.50460  0.21410  0.41130  1.0000 -0.4111880739
O   O20       1.0  0.67530  0.40390  0.57830  1.0000 -0.4441051711
O   O21       1.0  0.17900  0.38700  0.40810  1.0000 -0.6637273659
O   O22       1.0  0.85780  0.28930  0.40970  1.0000 -0.6690242995
O   O23       1.0  0.19540  0.57610  0.67120  1.0000 -0.5201822422
O   O24       1.0  0.05920  0.57550  0.51280  1.0000 -0.5201822422
O   O25       1.0  0.75490  0.75800  0.99070  1.0000 -0.5114487787
O   O26       1.0  0.79530  0.83200  0.90870  1.0000 -0.5537441601
O   O27       1.0  0.13670  0.83200  0.27280  1.0000 -0.4997693976
O   O28       1.0  0.95950  0.75340  0.19330  1.0000 -0.5253113736
O   O29       1.0  0.64280  0.59460  0.75250  1.0000 -0.4340952267
O   O30       1.0  0.49540  0.78590  0.58870  1.0000 -0.4111880739
O   O31       1.0  0.32470  0.59610  0.42170  1.0000 -0.4441051711
O   O32       1.0  0.82100  0.61300  0.59190  1.0000 -0.6637273659
O   O33       1.0  0.14220  0.71070  0.59030  1.0000 -0.6690242995
O   O34       1.0  0.19540  0.92390  0.17120  1.0000 -0.5201822422
O   O35       1.0  0.05920  0.92450  0.01280  1.0000 -0.5201822422
O   O36       1.0  0.75490  0.74200  0.49070  1.0000 -0.5114487787
O   O37       1.0  0.79530  0.66800  0.40870  1.0000 -0.5537441601
O   O38       1.0  0.13670  0.66800  0.77280  1.0000 -0.4997693976
O   O39       1.0  0.95950  0.74660  0.69330  1.0000 -0.5201822422
O   O40       1.0  0.64280  0.90540  0.25250  1.0000 -0.4340952267
O   O41       1.0  0.49540  0.71410  0.08870  1.0000 -0.4111880739
O   O42       1.0  0.32470  0.90390  0.92170  1.0000 -0.4451551666
O   O43       1.0  0.82100  0.88700  0.09190  1.0000 -0.6690242995
O   O44       1.0  0.14220  0.78930  0.09030  1.0000 -0.6690242995
