# DDEC6 charges by PACMAN v1.1 (https://github.com/mtap-research/PACMAN-charge/)
data_2020[Zn][dia]3[FSR]6
_chemical_formula_sum              "Zn4 H88 C132 N8 O24"
_cell_length_a       14.749
_cell_length_b       14.977
_cell_length_c       18.3709
_cell_angle_alpha    90
_cell_angle_beta     121.936
_cell_angle_gamma    90

_symmetry_space_group_name_H-M    "P 1"
_symmetry_Int_Tables_number       1

loop_
  _symmetry_equiv_pos_as_xyz
  'x, y, z'

loop_
  _atom_site_type_symbol
  _atom_site_label
  _atom_site_symmetry_multiplicity
  _atom_site_fract_x
  _atom_site_fract_y
  _atom_site_fract_z
  _atom_site_occupancy
  _atom_site_charge
Zn  Zn1       1.0  0.45365  0.95829  0.15369  1.0000 0.7410777473
Zn  Zn2       1.0  0.45365  0.54171  0.65369  1.0000 0.7410777473
Zn  Zn3       1.0  0.54635  0.45829  0.34631  1.0000 0.7410777473
Zn  Zn4       1.0  0.54635  0.04171  0.84631  1.0000 0.7410777473
H   H1        1.0  0.67520  0.32920  0.86500  1.0000 0.3302702868
H   H2        1.0  0.08080  0.00410  0.95500  1.0000 0.3378702143
H   H3        1.0  0.31960  0.68910  0.53070  1.0000 0.1176855021
H   H4        1.0  0.53960  0.70230  0.34860  1.0000 0.1396488781
H   H5        1.0  0.53010  0.78320  0.23990  1.0000 0.1118911324
H   H6        1.0  0.31900  0.78060  0.43050  1.0000 0.1396488781
H   H7        1.0  0.73910  0.43900  0.67710  1.0000 0.1176855021
H   H8        1.0  0.36770  0.89170  0.37460  1.0000 0.1396488781
H   H9        1.0  0.84560  0.17810  0.93060  1.0000 0.1176855021
H   H10       1.0  0.87630  0.12190  0.87500  1.0000 0.1176855021
H   H11       1.0  0.29170  0.19140  0.15330  1.0000 0.1118911324
H   H12       1.0  0.58630  0.57970  0.58180  1.0000 0.1118911324
H   H13       1.0  0.36770  0.96990  0.26730  1.0000 0.1176855021
H   H14       1.0  0.58970  0.66340  0.48020  1.0000 0.1396488781
H   H15       1.0  0.90960  0.33580  0.98000  1.0000 0.1118911324
H   H16       1.0  0.26580  0.33910  0.19850  1.0000 0.1118911324
H   H17       1.0  0.98170  0.45560  0.06800  1.0000 0.1176855021
H   H18       1.0  0.86650  0.40290  0.63460  1.0000 0.1176855021
H   H19       1.0  0.15870  0.45800  0.17670  1.0000 0.1176855021
H   H20       1.0  0.99140  0.16180  0.82230  1.0000 0.1118911324
H   H21       1.0  0.05800  0.19470  0.73660  1.0000 0.1118911324
H   H22       1.0  0.99840  0.31530  0.64560  1.0000 0.1118911324
H   H23       1.0  0.67520  0.17080  0.36500  1.0000 0.3302702868
H   H24       1.0  0.08080  0.49590  0.45500  1.0000 0.3378702143
H   H25       1.0  0.31960  0.81090  0.03070  1.0000 0.1176855021
H   H26       1.0  0.53960  0.79770  0.84860  1.0000 0.1396488781
H   H27       1.0  0.53010  0.71680  0.73990  1.0000 0.1118911324
H   H28       1.0  0.31900  0.71940  0.93050  1.0000 0.1396488781
H   H29       1.0  0.73910  0.06100  0.17710  1.0000 0.1176855021
H   H30       1.0  0.36770  0.60830  0.87460  1.0000 0.1396488781
H   H31       1.0  0.84560  0.32190  0.43060  1.0000 0.1176855021
H   H32       1.0  0.87630  0.37810  0.37500  1.0000 0.1176855021
H   H33       1.0  0.29170  0.30860  0.65330  1.0000 0.1118911324
H   H34       1.0  0.58630  0.92030  0.08180  1.0000 0.1118911324
H   H35       1.0  0.36770  0.53010  0.76730  1.0000 0.1176855021
H   H36       1.0  0.58970  0.83660  0.98020  1.0000 0.1396488781
H   H37       1.0  0.90960  0.16420  0.48000  1.0000 0.1118911324
H   H38       1.0  0.26580  0.16090  0.69850  1.0000 0.1118911324
H   H39       1.0  0.98170  0.04440  0.56800  1.0000 0.1176855021
H   H40       1.0  0.86650  0.09710  0.13460  1.0000 0.1176855021
H   H41       1.0  0.15870  0.04200  0.67670  1.0000 0.1176855021
H   H42       1.0  0.99140  0.33820  0.32230  1.0000 0.1118911324
H   H43       1.0  0.05800  0.30530  0.23660  1.0000 0.1118911324
H   H44       1.0  0.99840  0.18470  0.14560  1.0000 0.1118911324
H   H45       1.0  0.32480  0.82920  0.63500  1.0000 0.3302702868
H   H46       1.0  0.91920  0.50410  0.54500  1.0000 0.3378702143
H   H47       1.0  0.68040  0.18910  0.96930  1.0000 0.1176855021
H   H48       1.0  0.46040  0.20230  0.15140  1.0000 0.1396488781
H   H49       1.0  0.46990  0.28320  0.26010  1.0000 0.1118911324
H   H50       1.0  0.68100  0.28060  0.06950  1.0000 0.1396488781
H   H51       1.0  0.26090  0.93900  0.82290  1.0000 0.1176855021
H   H52       1.0  0.63230  0.39170  0.12540  1.0000 0.1396488781
H   H53       1.0  0.15440  0.67810  0.56940  1.0000 0.1176855021
H   H54       1.0  0.12370  0.62190  0.62500  1.0000 0.1176855021
H   H55       1.0  0.70830  0.69140  0.34670  1.0000 0.1118911324
H   H56       1.0  0.41370  0.07970  0.91820  1.0000 0.1118911324
H   H57       1.0  0.63230  0.46990  0.23270  1.0000 0.1176855021
H   H58       1.0  0.41030  0.16340  0.01980  1.0000 0.1396488781
H   H59       1.0  0.09040  0.83580  0.52000  1.0000 0.1118911324
H   H60       1.0  0.73420  0.83910  0.30150  1.0000 0.1118911324
H   H61       1.0  0.01830  0.95560  0.43200  1.0000 0.1176855021
H   H62       1.0  0.13350  0.90290  0.86540  1.0000 0.1176855021
H   H63       1.0  0.84130  0.95800  0.32330  1.0000 0.1176855021
H   H64       1.0  0.00860  0.66180  0.67770  1.0000 0.1118911324
H   H65       1.0  0.94200  0.69470  0.76340  1.0000 0.1118911324
H   H66       1.0  0.00160  0.81530  0.85440  1.0000 0.1118911324
H   H67       1.0  0.32480  0.67080  0.13500  1.0000 0.3302702868
H   H68       1.0  0.91920  0.99590  0.04500  1.0000 0.3378702143
H   H69       1.0  0.68040  0.31090  0.46930  1.0000 0.1176855021
H   H70       1.0  0.46040  0.29770  0.65140  1.0000 0.1396488781
H   H71       1.0  0.46990  0.21680  0.76010  1.0000 0.1118911324
H   H72       1.0  0.68100  0.21940  0.56950  1.0000 0.1396488781
H   H73       1.0  0.26090  0.56100  0.32290  1.0000 0.1176855021
H   H74       1.0  0.63230  0.10830  0.62540  1.0000 0.1396488781
H   H75       1.0  0.15440  0.82190  0.06940  1.0000 0.1176855021
H   H76       1.0  0.12370  0.87810  0.12500  1.0000 0.1176855021
H   H77       1.0  0.70830  0.80860  0.84670  1.0000 0.1118911324
H   H78       1.0  0.41370  0.42030  0.41820  1.0000 0.1118911324
H   H79       1.0  0.63230  0.03010  0.73270  1.0000 0.1176855021
H   H80       1.0  0.41030  0.33660  0.51980  1.0000 0.1396488781
H   H81       1.0  0.09040  0.66420  0.02000  1.0000 0.1118911324
H   H82       1.0  0.73420  0.66090  0.80150  1.0000 0.1118911324
H   H83       1.0  0.01830  0.54440  0.93200  1.0000 0.1176855021
H   H84       1.0  0.13350  0.59710  0.36540  1.0000 0.1176855021
H   H85       1.0  0.84130  0.54200  0.82330  1.0000 0.1176855021
H   H86       1.0  0.00860  0.83820  0.17770  1.0000 0.1118911324
H   H87       1.0  0.94200  0.80530  0.26340  1.0000 0.1118911324
H   H88       1.0  0.00160  0.68470  0.35440  1.0000 0.1118911324
C   C1        1.0  0.63100  0.43272  0.75292  1.0000 0.5679497385
C   C2        1.0  0.72161  0.37698  0.76512  1.0000 -0.1707681354
C   C3        1.0  0.45363  0.78707  0.37466  1.0000 0.1176855021
C   C4        1.0  0.37490  0.68442  0.52058  1.0000 0.0904063434
C   C5        1.0  0.50311  0.75634  0.33272  1.0000 -0.1707681354
C   C6        1.0  0.00534  0.18537  0.97493  1.0000 -0.0378035753
C   C7        1.0  0.45458  0.73326  0.44265  1.0000 0.1118911324
C   C8        1.0  0.15469  0.26223  0.09789  1.0000 0.0571823121
C   C9        1.0  0.49802  0.80564  0.26812  1.0000 0.0782383756
C   C10       1.0  0.07304  0.11526  0.98810  1.0000 0.2152239942
C   C11       1.0  0.18325  0.11833  0.05484  1.0000 -0.1500485693
C   C12       1.0  0.76346  0.30658  0.82666  1.0000 0.1956647002
C   C13       1.0  0.04559  0.26069  0.02974  1.0000 0.039668318
C   C14       1.0  0.37384  0.73942  0.45989  1.0000 -0.1792522581
C   C15       1.0  0.76539  0.39241  0.71648  1.0000 -0.1707681354
C   C16       1.0  0.40221  0.86836  0.34862  1.0000 -0.1792522581
C   C17       1.0  0.25747  0.04314  0.06769  1.0000 0.5609662199
C   C18       1.0  0.88772  0.17864  0.90412  1.0000 -0.2500604725
C   C19       1.0  0.84548  0.25251  0.83726  1.0000 -0.0342886963
C   C20       1.0  0.22052  0.19030  0.10849  1.0000 -0.1500485693
C   C21       1.0  0.53093  0.61980  0.54995  1.0000 0.0782383756
C   C22       1.0  0.40213  0.91492  0.28382  1.0000 0.0904063434
C   C23       1.0  0.53416  0.67060  0.48971  1.0000 -0.1792522581
C   C24       1.0  0.98193  0.33554  0.02223  1.0000 -0.1311163938
C   C25       1.0  0.88671  0.26720  0.78371  1.0000 0.039668318
C   C26       1.0  0.84818  0.34010  0.72462  1.0000 0.05352344
C   C27       1.0  0.19490  0.33820  0.15340  1.0000 -0.1500485693
C   C28       1.0  0.02490  0.40670  0.07570  1.0000 -0.0906125138
C   C29       1.0  0.89200  0.35550  0.67320  1.0000 -0.1394578553
C   C30       1.0  0.13120  0.40830  0.14110  1.0000 -0.0906125138
C   C31       1.0  0.96610  0.21120  0.78620  1.0000 -0.1394578553
C   C32       1.0  0.00540  0.23110  0.73410  1.0000 -0.0906125138
C   C33       1.0  0.96940  0.30310  0.67880  1.0000 -0.0906125138
C   C34       1.0  0.63100  0.06728  0.25292  1.0000 0.5679497385
C   C35       1.0  0.72161  0.12302  0.26512  1.0000 -0.1707681354
C   C36       1.0  0.45363  0.71293  0.87466  1.0000 0.1176855021
C   C37       1.0  0.37490  0.81558  0.02058  1.0000 0.0904063434
C   C38       1.0  0.50311  0.74366  0.83272  1.0000 -0.1707681354
C   C39       1.0  0.00534  0.31463  0.47493  1.0000 -0.0378035753
C   C40       1.0  0.45458  0.76674  0.94265  1.0000 0.1118911324
C   C41       1.0  0.15469  0.23777  0.59789  1.0000 0.0571823121
C   C42       1.0  0.49802  0.69436  0.76812  1.0000 0.0782383756
C   C43       1.0  0.07304  0.38474  0.48810  1.0000 0.2152239942
C   C44       1.0  0.18325  0.38167  0.55484  1.0000 -0.1500485693
C   C45       1.0  0.76346  0.19342  0.32666  1.0000 0.1956647002
C   C46       1.0  0.04559  0.23931  0.52974  1.0000 0.039668318
C   C47       1.0  0.37384  0.76058  0.95989  1.0000 -0.1792522581
C   C48       1.0  0.76539  0.10759  0.21648  1.0000 -0.1707681354
C   C49       1.0  0.40221  0.63164  0.84862  1.0000 -0.1792522581
C   C50       1.0  0.25747  0.45686  0.56769  1.0000 0.5609662199
C   C51       1.0  0.88772  0.32136  0.40412  1.0000 -0.2500604725
C   C52       1.0  0.84548  0.24749  0.33726  1.0000 -0.0342886963
C   C53       1.0  0.22052  0.30970  0.60849  1.0000 -0.1500485693
C   C54       1.0  0.53093  0.88020  0.04995  1.0000 0.0782383756
C   C55       1.0  0.40213  0.58508  0.78382  1.0000 0.0904063434
C   C56       1.0  0.53416  0.82940  0.98971  1.0000 -0.1792522581
C   C57       1.0  0.98193  0.16446  0.52223  1.0000 -0.1311163938
C   C58       1.0  0.88671  0.23280  0.28371  1.0000 0.039668318
C   C59       1.0  0.84818  0.15990  0.22462  1.0000 0.05352344
C   C60       1.0  0.19490  0.16180  0.65340  1.0000 -0.1500485693
C   C61       1.0  0.02490  0.09330  0.57570  1.0000 -0.0906125138
C   C62       1.0  0.89200  0.14450  0.17320  1.0000 -0.1394578553
C   C63       1.0  0.13120  0.09170  0.64110  1.0000 -0.0906125138
C   C64       1.0  0.96610  0.28880  0.28620  1.0000 -0.1394578553
C   C65       1.0  0.00540  0.26890  0.23410  1.0000 -0.0906125138
C   C66       1.0  0.96940  0.19690  0.17880  1.0000 -0.0906125138
C   C67       1.0  0.36900  0.93272  0.74708  1.0000 0.5679497385
C   C68       1.0  0.27839  0.87698  0.73488  1.0000 -0.1707681354
C   C69       1.0  0.54637  0.28707  0.12534  1.0000 0.1176855021
C   C70       1.0  0.62510  0.18442  0.97942  1.0000 0.0904063434
C   C71       1.0  0.49689  0.25634  0.16728  1.0000 -0.1707681354
C   C72       1.0  0.99466  0.68537  0.52507  1.0000 -0.0378035753
C   C73       1.0  0.54542  0.23326  0.05735  1.0000 0.1118911324
C   C74       1.0  0.84531  0.76223  0.40211  1.0000 0.0571823121
C   C75       1.0  0.50198  0.30564  0.23188  1.0000 0.0782383756
C   C76       1.0  0.92696  0.61526  0.51190  1.0000 0.2152239942
C   C77       1.0  0.81675  0.61833  0.44516  1.0000 -0.1500485693
C   C78       1.0  0.23654  0.80658  0.67334  1.0000 0.1956647002
C   C79       1.0  0.95441  0.76069  0.47026  1.0000 0.039668318
C   C80       1.0  0.62616  0.23942  0.04011  1.0000 -0.1792522581
C   C81       1.0  0.23461  0.89241  0.78352  1.0000 -0.1707681354
C   C82       1.0  0.59779  0.36836  0.15138  1.0000 -0.1792522581
C   C83       1.0  0.74253  0.54314  0.43231  1.0000 0.5609662199
C   C84       1.0  0.11228  0.67864  0.59588  1.0000 -0.2500604725
C   C85       1.0  0.15452  0.75251  0.66274  1.0000 -0.0342886963
C   C86       1.0  0.77948  0.69030  0.39151  1.0000 -0.1500485693
C   C87       1.0  0.46907  0.11980  0.95005  1.0000 0.0782383756
C   C88       1.0  0.59787  0.41492  0.21618  1.0000 0.0904063434
C   C89       1.0  0.46584  0.17060  0.01029  1.0000 -0.1792522581
C   C90       1.0  0.01807  0.83554  0.47777  1.0000 -0.1311163938
C   C91       1.0  0.11329  0.76720  0.71629  1.0000 0.039668318
C   C92       1.0  0.15182  0.84010  0.77538  1.0000 0.05352344
C   C93       1.0  0.80510  0.83820  0.34660  1.0000 -0.1500485693
C   C94       1.0  0.97510  0.90670  0.42430  1.0000 -0.0906125138
C   C95       1.0  0.10800  0.85550  0.82680  1.0000 -0.1394578553
C   C96       1.0  0.86880  0.90830  0.35890  1.0000 -0.0906125138
C   C97       1.0  0.03390  0.71120  0.71380  1.0000 -0.1500485693
C   C98       1.0  0.99460  0.73110  0.76590  1.0000 -0.0906125138
C   C99       1.0  0.03060  0.80310  0.82120  1.0000 -0.0906125138
C   C100      1.0  0.36900  0.56728  0.24708  1.0000 0.5679497385
C   C101      1.0  0.27839  0.62302  0.23488  1.0000 -0.1707681354
C   C102      1.0  0.54637  0.21293  0.62534  1.0000 0.1118911324
C   C103      1.0  0.62510  0.31558  0.47942  1.0000 0.0904063434
C   C104      1.0  0.49689  0.24366  0.66728  1.0000 -0.1707681354
C   C105      1.0  0.99466  0.81463  0.02507  1.0000 -0.0378035753
C   C106      1.0  0.54542  0.26674  0.55735  1.0000 0.1118911324
C   C107      1.0  0.84531  0.73777  0.90211  1.0000 0.0571823121
C   C108      1.0  0.50198  0.19436  0.73188  1.0000 0.0782383756
C   C109      1.0  0.92696  0.88474  0.01190  1.0000 0.2152239942
C   C110      1.0  0.81675  0.88167  0.94516  1.0000 -0.1500485693
C   C111      1.0  0.23654  0.69342  0.17334  1.0000 0.1956647002
C   C112      1.0  0.95441  0.73931  0.97026  1.0000 0.039668318
C   C113      1.0  0.62616  0.26058  0.54011  1.0000 -0.1792522581
C   C114      1.0  0.23461  0.60759  0.28352  1.0000 -0.1707681354
C   C115      1.0  0.59779  0.13164  0.65138  1.0000 -0.1792522581
C   C116      1.0  0.74253  0.95686  0.93231  1.0000 0.5609662199
C   C117      1.0  0.11228  0.82136  0.09588  1.0000 -0.2500604725
C   C118      1.0  0.15452  0.74749  0.16274  1.0000 -0.0342886963
C   C119      1.0  0.77948  0.80970  0.89151  1.0000 -0.1500485693
C   C120      1.0  0.46907  0.38020  0.45005  1.0000 0.0782383756
C   C121      1.0  0.59787  0.08508  0.71618  1.0000 0.0904063434
C   C122      1.0  0.46584  0.32940  0.51029  1.0000 -0.1792522581
C   C123      1.0  0.01807  0.66446  0.97777  1.0000 -0.1311163938
C   C124      1.0  0.11329  0.73280  0.21629  1.0000 0.039668318
C   C125      1.0  0.15182  0.65990  0.27538  1.0000 0.05352344
C   C126      1.0  0.80510  0.66180  0.84660  1.0000 -0.1500485693
C   C127      1.0  0.97510  0.59330  0.92430  1.0000 -0.0906125138
C   C128      1.0  0.10800  0.64450  0.32680  1.0000 -0.1394578553
C   C129      1.0  0.86880  0.59170  0.85890  1.0000 -0.0906125138
C   C130      1.0  0.03390  0.78880  0.21380  1.0000 -0.1500485693
C   C131      1.0  0.99460  0.76890  0.26590  1.0000 -0.0906125138
C   C132      1.0  0.03060  0.69690  0.32120  1.0000 -0.0906125138
N   N1        1.0  0.44933  0.88431  0.24394  1.0000 -0.2303273341
N   N2        1.0  0.45232  0.62476  0.56533  1.0000 -0.2401720768
N   N3        1.0  0.44933  0.61569  0.74394  1.0000 -0.2303273341
N   N4        1.0  0.45232  0.87524  0.06533  1.0000 -0.2401720768
N   N5        1.0  0.55067  0.38431  0.25606  1.0000 -0.2303273341
N   N6        1.0  0.54768  0.12476  0.93467  1.0000 -0.2401720768
N   N7        1.0  0.55067  0.11569  0.75606  1.0000 -0.2303273341
N   N8        1.0  0.54768  0.37524  0.43467  1.0000 -0.2401720768
O   O1        1.0  0.59610  0.42330  0.80079  1.0000 -0.5405690805
O   O2        1.0  0.59184  0.48777  0.69104  1.0000 -0.5502335763
O   O3        1.0  0.72257  0.29264  0.87707  1.0000 -0.4391511566
O   O4        1.0  0.35563  0.05567  0.12410  1.0000 -0.5405690805
O   O5        1.0  0.03513  0.04337  0.93613  1.0000 -0.417962823
O   O6        1.0  0.22362  0.97375  0.02556  1.0000 -0.5405690805
O   O7        1.0  0.59610  0.07670  0.30079  1.0000 -0.5405690805
O   O8        1.0  0.59184  0.01223  0.19104  1.0000 -0.5502335763
O   O9        1.0  0.72257  0.20736  0.37707  1.0000 -0.4391511566
O   O10       1.0  0.35563  0.44433  0.62410  1.0000 -0.5405690805
O   O11       1.0  0.03513  0.45663  0.43613  1.0000 -0.417962823
O   O12       1.0  0.22362  0.52625  0.52556  1.0000 -0.5405690805
O   O13       1.0  0.40390  0.92330  0.69921  1.0000 -0.5405690805
O   O14       1.0  0.40816  0.98777  0.80896  1.0000 -0.5502335763
O   O15       1.0  0.27743  0.79264  0.62293  1.0000 -0.4391511566
O   O16       1.0  0.64437  0.55567  0.37590  1.0000 -0.5405690805
O   O17       1.0  0.96487  0.54337  0.56387  1.0000 -0.417962823
O   O18       1.0  0.77638  0.47375  0.47444  1.0000 -0.5405690805
O   O19       1.0  0.40390  0.57670  0.19921  1.0000 -0.5405690805
O   O20       1.0  0.40816  0.51223  0.30896  1.0000 -0.5502335763
O   O21       1.0  0.27743  0.70736  0.12293  1.0000 -0.4391511566
O   O22       1.0  0.64437  0.94433  0.87590  1.0000 -0.5405690805
O   O23       1.0  0.96487  0.95663  0.06387  1.0000 -0.417962823
O   O24       1.0  0.77638  0.02625  0.97444  1.0000 -0.5405690805
