# DDEC6 charges by PACMAN v1.1 (https://github.com/mtap-research/PACMAN-charge/)
data_2020[Cu][nan]2[FSR]10
_chemical_formula_sum              "Cu4 H68 C88 I4 N12 O4"
_cell_length_a       13.496
_cell_length_b       13.496
_cell_length_c       17.71
_cell_angle_alpha    71.0053
_cell_angle_beta     108.995
_cell_angle_gamma    122.778

_symmetry_space_group_name_H-M    "P 1"
_symmetry_Int_Tables_number       1

loop_
  _symmetry_equiv_pos_as_xyz
  'x, y, z'

loop_
  _atom_site_type_symbol
  _atom_site_label
  _atom_site_symmetry_multiplicity
  _atom_site_fract_x
  _atom_site_fract_y
  _atom_site_fract_z
  _atom_site_occupancy
  _atom_site_charge
Cu  Cu1       1.0  0.04850  0.04944  0.93462  1.0000 0.1792755583
Cu  Cu2       1.0  0.04944  0.04850  0.56538  1.0000 0.1792755583
Cu  Cu3       1.0  0.95150  0.95056  0.06538  1.0000 0.1792755583
Cu  Cu4       1.0  0.95056  0.95150  0.43462  1.0000 0.1792755583
H   H1        1.0  0.70551  0.08353  0.55285  1.0000 0.1213411498
H   H2        1.0  0.69148  0.36978  0.38921  1.0000 0.1109971152
H   H3        1.0  0.95570  0.57298  0.58868  1.0000 0.1261158595
H   H4        1.0  0.89294  0.96474  0.78229  1.0000 0.0918436941
H   H5        1.0  0.01009  0.77457  0.56167  1.0000 0.0996557856
H   H6        1.0  0.81239  0.03129  0.65288  1.0000 0.1213411498
H   H7        1.0  0.96087  0.35319  0.71481  1.0000 0.1261158595
H   H8        1.0  0.04488  0.28110  0.84014  1.0000 0.0996557856
H   H9        1.0  0.62218  0.99372  0.45014  1.0000 0.1109971152
H   H10       1.0  0.77971  0.55793  0.35774  1.0000 0.1213411498
H   H11       1.0  0.48551  0.87247  0.35495  1.0000 0.1213411498
H   H12       1.0  0.84011  0.75859  0.33648  1.0000 0.0996557856
H   H13       1.0  0.37862  0.12086  0.24000  1.0000 0.1367354998
H   H14       1.0  0.51507  0.24093  0.33281  1.0000 0.1109971152
H   H15       1.0  0.30528  0.75970  0.28418  1.0000 0.1213411498
H   H16       1.0  0.25851  0.77079  0.18795  1.0000 0.1213411498
H   H17       1.0  0.39858  0.81940  0.22460  1.0000 0.1109971152
H   H18       1.0  0.08353  0.70551  0.94715  1.0000 0.1213411498
H   H19       1.0  0.36978  0.69148  0.11079  1.0000 0.1109971152
H   H20       1.0  0.57298  0.95570  0.91132  1.0000 0.1261158595
H   H21       1.0  0.96474  0.89294  0.71771  1.0000 0.0918436941
H   H22       1.0  0.77457  0.01009  0.93833  1.0000 0.0996557856
H   H23       1.0  0.03129  0.81239  0.84712  1.0000 0.1213411498
H   H24       1.0  0.35319  0.96087  0.78519  1.0000 0.1261158595
H   H25       1.0  0.28110  0.04488  0.65986  1.0000 0.0996557856
H   H26       1.0  0.99372  0.62218  0.04986  1.0000 0.1109971152
H   H27       1.0  0.55793  0.77971  0.14226  1.0000 0.1213411498
H   H28       1.0  0.87247  0.48551  0.14505  1.0000 0.1213411498
H   H29       1.0  0.75859  0.84011  0.16352  1.0000 0.0996557856
H   H30       1.0  0.12086  0.37862  0.26000  1.0000 0.1367354998
H   H31       1.0  0.24093  0.51507  0.16719  1.0000 0.1109971152
H   H32       1.0  0.75970  0.30528  0.21582  1.0000 0.1213411498
H   H33       1.0  0.77079  0.25851  0.31205  1.0000 0.1213411498
H   H34       1.0  0.81940  0.39858  0.27540  1.0000 0.1109971152
H   H35       1.0  0.29449  0.91647  0.44715  1.0000 0.1213411498
H   H36       1.0  0.30852  0.63022  0.61079  1.0000 0.1109971152
H   H37       1.0  0.04430  0.42702  0.41132  1.0000 0.1261158595
H   H38       1.0  0.10706  0.03526  0.21771  1.0000 0.0918436941
H   H39       1.0  0.98991  0.22543  0.43833  1.0000 0.0996557856
H   H40       1.0  0.18761  0.96871  0.34712  1.0000 0.1213411498
H   H41       1.0  0.03913  0.64681  0.28519  1.0000 0.1261158595
H   H42       1.0  0.95512  0.71890  0.15986  1.0000 0.0996557856
H   H43       1.0  0.37782  0.00628  0.54986  1.0000 0.1109971152
H   H44       1.0  0.22029  0.44207  0.64226  1.0000 0.1213411498
H   H45       1.0  0.51449  0.12753  0.64505  1.0000 0.1213411498
H   H46       1.0  0.15989  0.24141  0.66352  1.0000 0.0996557856
H   H47       1.0  0.62137  0.87913  0.76000  1.0000 0.1367354998
H   H48       1.0  0.48493  0.75907  0.66719  1.0000 0.1109971152
H   H49       1.0  0.69472  0.24030  0.71582  1.0000 0.1213411498
H   H50       1.0  0.74149  0.22921  0.81205  1.0000 0.1213411498
H   H51       1.0  0.60142  0.18060  0.77540  1.0000 0.1109971152
H   H52       1.0  0.91647  0.29449  0.05285  1.0000 0.1213411498
H   H53       1.0  0.63022  0.30852  0.88921  1.0000 0.1109971152
H   H54       1.0  0.42702  0.04430  0.08868  1.0000 0.1261158595
H   H55       1.0  0.03526  0.10706  0.28229  1.0000 0.0918436941
H   H56       1.0  0.22543  0.98991  0.06167  1.0000 0.0996557856
H   H57       1.0  0.96871  0.18761  0.15288  1.0000 0.1213411498
H   H58       1.0  0.64681  0.03913  0.21481  1.0000 0.1261158595
H   H59       1.0  0.71890  0.95512  0.34014  1.0000 0.0996557856
H   H60       1.0  0.00628  0.37782  0.95014  1.0000 0.1109971152
H   H61       1.0  0.44207  0.22029  0.85774  1.0000 0.1213411498
H   H62       1.0  0.12753  0.51449  0.85495  1.0000 0.1213411498
H   H63       1.0  0.24141  0.15989  0.83648  1.0000 0.0996557856
H   H64       1.0  0.87913  0.62138  0.74000  1.0000 0.1367354998
H   H65       1.0  0.75907  0.48493  0.83281  1.0000 0.1109971152
H   H66       1.0  0.24030  0.69472  0.78418  1.0000 0.1213411498
H   H67       1.0  0.22921  0.74149  0.68795  1.0000 0.1213411498
H   H68       1.0  0.18060  0.60142  0.72460  1.0000 0.1109971152
C   C1        1.0  0.73170  0.16710  0.53610  1.0000 -0.2218751898
C   C2        1.0  0.72260  0.33500  0.44020  1.0000 -0.249607577
C   C3        1.0  0.67980  0.21100  0.45950  1.0000 0.1213411498
C   C4        1.0  0.87670  0.20070  0.66870  1.0000 0.0918436941
C   C5        1.0  0.82020  0.24500  0.58660  1.0000 0.2011085869
C   C6        1.0  0.81030  0.40690  0.49520  1.0000 0.2120323861
C   C7        1.0  0.85360  0.53860  0.47730  1.0000 0.0918436941
C   C8        1.0  0.92760  0.60800  0.53650  1.0000 -0.1702693487
C   C9        1.0  0.58830  0.13230  0.40140  1.0000 0.0323631661
C   C10       1.0  0.90850  0.04550  0.76800  1.0000 0.069306757
C   C11       1.0  0.96070  0.72930  0.51970  1.0000 0.0765800038
C   C12       1.0  0.85860  0.08400  0.69070  1.0000 -0.182991433
C   C13       1.0  0.94680  0.27320  0.72680  1.0000 -0.182991433
C   C14       1.0  0.99590  0.22910  0.80190  1.0000 0.069306757
C   C15       1.0  0.57440  0.02140  0.40640  1.0000 -0.1215944579
C   C16       1.0  0.82530  0.59950  0.40180  1.0000 -0.19017353
C   C17       1.0  0.49250  0.94830  0.34960  1.0000 -0.2294879398
C   C18       1.0  0.42180  0.98620  0.28580  1.0000 0.2377858842
C   C19       1.0  0.86200  0.72000  0.38930  1.0000 0.069306757
C   C20       1.0  0.43000  0.09580  0.28190  1.0000 -0.2038760474
C   C21       1.0  0.51060  0.16660  0.33720  1.0000 -0.1272913674
C   C22       1.0  0.32420  0.80960  0.23110  1.0000 -0.2373450389
C   C23       1.0  0.16710  0.73170  0.96390  1.0000 -0.2218751898
C   C24       1.0  0.33500  0.72260  0.05980  1.0000 -0.249607577
C   C25       1.0  0.21100  0.67980  0.04050  1.0000 0.1213411498
C   C26       1.0  0.20070  0.87670  0.83130  1.0000 0.0918436941
C   C27       1.0  0.24500  0.82020  0.91340  1.0000 0.2011085869
C   C28       1.0  0.40690  0.81030  0.00480  1.0000 0.2120323861
C   C29       1.0  0.53860  0.85360  0.02270  1.0000 0.0918436941
C   C30       1.0  0.60800  0.92760  0.96350  1.0000 -0.1702693487
C   C31       1.0  0.13230  0.58830  0.09860  1.0000 0.0323631661
C   C32       1.0  0.04550  0.90850  0.73200  1.0000 0.069306757
C   C33       1.0  0.72930  0.96070  0.98030  1.0000 0.0765800038
C   C34       1.0  0.08400  0.85860  0.80930  1.0000 -0.182991433
C   C35       1.0  0.27320  0.94680  0.77320  1.0000 -0.182991433
C   C36       1.0  0.22910  0.99590  0.69810  1.0000 0.069306757
C   C37       1.0  0.02140  0.57440  0.09360  1.0000 -0.1215944579
C   C38       1.0  0.59950  0.82530  0.09820  1.0000 -0.19017353
C   C39       1.0  0.94830  0.49250  0.15040  1.0000 -0.2294879398
C   C40       1.0  0.98620  0.42180  0.21420  1.0000 0.2377858842
C   C41       1.0  0.72000  0.86200  0.11070  1.0000 0.069306757
C   C42       1.0  0.09580  0.43000  0.21810  1.0000 -0.2038760474
C   C43       1.0  0.16660  0.51060  0.16280  1.0000 -0.1272913674
C   C44       1.0  0.80960  0.32420  0.26890  1.0000 -0.2373450389
C   C45       1.0  0.26830  0.83290  0.46390  1.0000 -0.2218751898
C   C46       1.0  0.27740  0.66500  0.55980  1.0000 -0.249607577
C   C47       1.0  0.32020  0.78900  0.54050  1.0000 0.1213411498
C   C48       1.0  0.12330  0.79930  0.33130  1.0000 0.0918436941
C   C49       1.0  0.17980  0.75500  0.41340  1.0000 0.2011085869
C   C50       1.0  0.18970  0.59310  0.50480  1.0000 0.2120323861
C   C51       1.0  0.14640  0.46140  0.52270  1.0000 0.0918436941
C   C52       1.0  0.07240  0.39200  0.46350  1.0000 -0.1702693487
C   C53       1.0  0.41170  0.86770  0.59860  1.0000 0.0323631661
C   C54       1.0  0.09150  0.95450  0.23200  1.0000 0.069306757
C   C55       1.0  0.03930  0.27070  0.48030  1.0000 0.0765800038
C   C56       1.0  0.14140  0.91600  0.30930  1.0000 -0.182991433
C   C57       1.0  0.05320  0.72680  0.27320  1.0000 -0.182991433
C   C58       1.0  0.00410  0.77090  0.19810  1.0000 0.069306757
C   C59       1.0  0.42560  0.97860  0.59360  1.0000 -0.1215944579
C   C60       1.0  0.17470  0.40050  0.59820  1.0000 -0.19017353
C   C61       1.0  0.50750  0.05170  0.65040  1.0000 -0.2294879398
C   C62       1.0  0.57820  0.01380  0.71420  1.0000 0.2377858842
C   C63       1.0  0.13800  0.28000  0.61070  1.0000 0.069306757
C   C64       1.0  0.57000  0.90420  0.71810  1.0000 -0.2038760474
C   C65       1.0  0.48940  0.83340  0.66280  1.0000 -0.1272913674
C   C66       1.0  0.67580  0.19040  0.76890  1.0000 -0.2373450389
C   C67       1.0  0.83290  0.26830  0.03610  1.0000 -0.2218751898
C   C68       1.0  0.66500  0.27740  0.94020  1.0000 -0.249607577
C   C69       1.0  0.78900  0.32020  0.95950  1.0000 0.1213411498
C   C70       1.0  0.79930  0.12330  0.16870  1.0000 0.0918436941
C   C71       1.0  0.75500  0.17980  0.08660  1.0000 0.2011085869
C   C72       1.0  0.59310  0.18970  0.99520  1.0000 0.2120323861
C   C73       1.0  0.46140  0.14640  0.97730  1.0000 0.0918436941
C   C74       1.0  0.39200  0.07240  0.03650  1.0000 -0.1702693487
C   C75       1.0  0.86770  0.41170  0.90140  1.0000 0.0323631661
C   C76       1.0  0.95450  0.09150  0.26800  1.0000 0.069306757
C   C77       1.0  0.27070  0.03930  0.01970  1.0000 0.0765800038
C   C78       1.0  0.91600  0.14140  0.19070  1.0000 -0.182991433
C   C79       1.0  0.72680  0.05320  0.22680  1.0000 -0.182991433
C   C80       1.0  0.77090  0.00410  0.30190  1.0000 0.069306757
C   C81       1.0  0.97860  0.42560  0.90640  1.0000 -0.1215944579
C   C82       1.0  0.40050  0.17470  0.90180  1.0000 -0.19017353
C   C83       1.0  0.05170  0.50750  0.84960  1.0000 -0.2294879398
C   C84       1.0  0.01380  0.57820  0.78580  1.0000 0.2377858842
C   C85       1.0  0.28000  0.13800  0.88930  1.0000 0.069306757
C   C86       1.0  0.90420  0.57000  0.78190  1.0000 -0.2038760474
C   C87       1.0  0.83340  0.48940  0.83720  1.0000 -0.1272913674
C   C88       1.0  0.19040  0.67580  0.73110  1.0000 -0.2373450389
I   I1        1.0  0.90585  0.81473  0.96430  1.0000 -0.4466633639
I   I2        1.0  0.81473  0.90585  0.53570  1.0000 -0.4466633639
I   I3        1.0  0.09415  0.18527  0.03570  1.0000 -0.4466633639
I   I4        1.0  0.18527  0.09415  0.46430  1.0000 -0.4466633639
N   N1        1.0  0.92630  0.78450  0.44760  1.0000 -0.1702693487
N   N2        1.0  0.97780  0.11580  0.82380  1.0000 -0.19017353
N   N3        1.0  0.85920  0.36380  0.56800  1.0000 -0.3342522895
N   N4        1.0  0.78450  0.92630  0.05240  1.0000 -0.1702693487
N   N5        1.0  0.11580  0.97780  0.67620  1.0000 -0.19017353
N   N6        1.0  0.36380  0.85920  0.93200  1.0000 -0.3342522895
N   N7        1.0  0.07370  0.21550  0.55240  1.0000 -0.1702693487
N   N8        1.0  0.02220  0.88420  0.17620  1.0000 -0.19017353
N   N9        1.0  0.14080  0.63620  0.43200  1.0000 -0.3342522895
N   N10       1.0  0.21550  0.07370  0.94760  1.0000 -0.1702693487
N   N11       1.0  0.88420  0.02220  0.32380  1.0000 -0.19017353
N   N12       1.0  0.63620  0.14080  0.06800  1.0000 -0.3342522895
O   O1        1.0  0.33880  0.92340  0.22610  1.0000 -0.1450461289
O   O2        1.0  0.92340  0.33880  0.27390  1.0000 -0.1450461289
O   O3        1.0  0.66120  0.07660  0.77390  1.0000 -0.1450461289
O   O4        1.0  0.07660  0.66120  0.72610  1.0000 -0.1450461289
