# DDEC6 charges by PACMAN v1.1 (https://github.com/mtap-research/PACMAN-charge/)
data_2020[Zn][pcu]3[FSR]11
_chemical_formula_sum              "Zn4 H64 C44 N4 O16"
_cell_length_a       11.5141
_cell_length_b       12.6105
_cell_length_c       14.0347
_cell_angle_alpha    91.69
_cell_angle_beta     104.165
_cell_angle_gamma    115.309

_symmetry_space_group_name_H-M    "P 1"
_symmetry_Int_Tables_number       1

loop_
  _symmetry_equiv_pos_as_xyz
  'x, y, z'

loop_
  _atom_site_type_symbol
  _atom_site_label
  _atom_site_symmetry_multiplicity
  _atom_site_fract_x
  _atom_site_fract_y
  _atom_site_fract_z
  _atom_site_occupancy
  _atom_site_charge
Zn  Zn1       1.0  0.48695  0.91253  0.56719  1.0000 0.8085927634
Zn  Zn2       1.0  0.49361  0.41251  0.06626  1.0000 0.8085927634
Zn  Zn3       1.0  0.51305  0.08747  0.43281  1.0000 0.8085927634
Zn  Zn4       1.0  0.50639  0.58749  0.93374  1.0000 0.8085927634
H   H1        1.0  0.41560  0.65620  0.59060  1.0000 0.1113379767
H   H2        1.0  0.30320  0.68450  0.61740  1.0000 0.1160829948
H   H3        1.0  0.30310  0.58390  0.74230  1.0000 0.1113379767
H   H4        1.0  0.40600  0.54650  0.70980  1.0000 0.1160829948
H   H5        1.0  0.36940  0.85260  0.74270  1.0000 0.1113379767
H   H6        1.0  0.52500  0.94190  0.79070  1.0000 0.1113379767
H   H7        1.0  0.53690  0.83480  0.90980  1.0000 0.1113379767
H   H8        1.0  0.37970  0.74950  0.86500  1.0000 0.1160829948
H   H9        1.0  0.69370  0.90190  0.74640  1.0000 0.1113379767
H   H10       1.0  0.65170  0.79210  0.66320  1.0000 0.1160829948
H   H11       1.0  0.64620  0.67570  0.77700  1.0000 0.1160829948
H   H12       1.0  0.69690  0.78720  0.86080  1.0000 0.1113379767
H   H13       1.0  0.72440  0.85010  0.35670  1.0000 0.0998259419
H   H14       1.0  0.63550  0.93870  0.22900  1.0000 0.0998259419
H   H15       1.0  0.63230  0.81830  0.18560  1.0000 0.0998259419
H   H16       1.0  0.42580  0.81920  0.11050  1.0000 0.0998259419
H   H17       1.0  0.40510  0.83860  0.21730  1.0000 0.0998259419
H   H18       1.0  0.27490  0.63880  0.15190  1.0000 0.0998259419
H   H19       1.0  0.36320  0.54870  0.27950  1.0000 0.0998259419
H   H20       1.0  0.36480  0.66830  0.32330  1.0000 0.0998259419
H   H21       1.0  0.57310  0.67060  0.40030  1.0000 0.0998259419
H   H22       1.0  0.59490  0.64970  0.29410  1.0000 0.0998259419
H   H23       1.0  0.06260  0.72340  0.37810  1.0000 0.1113379767
H   H24       1.0  0.09220  0.92520  0.27840  1.0000 0.0998259419
H   H25       1.0  0.04270  0.90200  0.37630  1.0000 0.1113379767
H   H26       1.0  0.85700  0.84620  0.23190  1.0000 0.0998259419
H   H27       1.0  0.84500  0.73450  0.28750  1.0000 0.0998259419
H   H28       1.0  0.93680  0.78290  0.11320  1.0000 0.1113379767
H   H29       1.0  0.96030  0.60630  0.11650  1.0000 0.1113379767
H   H30       1.0  0.91080  0.58240  0.21440  1.0000 0.0998259419
H   H31       1.0  0.14700  0.66360  0.26080  1.0000 0.0998259419
H   H32       1.0  0.15740  0.77550  0.20580  1.0000 0.0998259419
H   H33       1.0  0.58440  0.34380  0.40940  1.0000 0.1160829948
H   H34       1.0  0.69680  0.31550  0.38260  1.0000 0.1160829948
H   H35       1.0  0.69690  0.41610  0.25770  1.0000 0.1113379767
H   H36       1.0  0.59400  0.45350  0.29020  1.0000 0.1160829948
H   H37       1.0  0.63060  0.14740  0.25730  1.0000 0.1113379767
H   H38       1.0  0.47500  0.05810  0.20930  1.0000 0.1113379767
H   H39       1.0  0.46310  0.16520  0.09020  1.0000 0.1160829948
H   H40       1.0  0.62030  0.25050  0.13500  1.0000 0.1160829948
H   H41       1.0  0.30630  0.09810  0.25360  1.0000 0.1113379767
H   H42       1.0  0.34830  0.20790  0.33680  1.0000 0.1160829948
H   H43       1.0  0.35380  0.32430  0.22300  1.0000 0.1160829948
H   H44       1.0  0.30310  0.21280  0.13920  1.0000 0.1113379767
H   H45       1.0  0.27560  0.14990  0.64330  1.0000 0.0998259419
H   H46       1.0  0.36450  0.06130  0.77100  1.0000 0.0998259419
H   H47       1.0  0.36770  0.18170  0.81440  1.0000 0.0998259419
H   H48       1.0  0.57420  0.18080  0.88950  1.0000 0.0998259419
H   H49       1.0  0.59490  0.16140  0.78270  1.0000 0.0998259419
H   H50       1.0  0.72510  0.36120  0.84810  1.0000 0.0998259419
H   H51       1.0  0.63680  0.45130  0.72050  1.0000 0.0998259419
H   H52       1.0  0.63520  0.33170  0.67670  1.0000 0.0998259419
H   H53       1.0  0.42690  0.32940  0.59970  1.0000 0.0998259419
H   H54       1.0  0.40510  0.35030  0.70590  1.0000 0.0947583361
H   H55       1.0  0.93740  0.27660  0.62190  1.0000 0.1113379767
H   H56       1.0  0.90780  0.07480  0.72160  1.0000 0.0998259419
H   H57       1.0  0.95730  0.09800  0.62370  1.0000 0.1113379767
H   H58       1.0  0.14300  0.15380  0.76810  1.0000 0.0998259419
H   H59       1.0  0.15500  0.26550  0.71250  1.0000 0.0998259419
H   H60       1.0  0.06320  0.21710  0.88680  1.0000 0.1113379767
H   H61       1.0  0.03970  0.39370  0.88350  1.0000 0.1113379767
H   H62       1.0  0.08920  0.41760  0.78560  1.0000 0.0998259419
H   H63       1.0  0.85300  0.33640  0.73920  1.0000 0.0998259419
H   H64       1.0  0.84260  0.22450  0.79420  1.0000 0.0998259419
C   C1        1.0  0.39320  0.68890  0.64470  1.0000 -0.1184610582
C   C2        1.0  0.39180  0.61500  0.72960  1.0000 -0.1184610582
C   C3        1.0  0.46040  0.85760  0.76550  1.0000 -0.1123600336
C   C4        1.0  0.46660  0.78320  0.84930  1.0000 -0.1184610582
C   C5        1.0  0.62660  0.81900  0.71850  1.0000 -0.1184610582
C   C6        1.0  0.62590  0.73950  0.79920  1.0000 -0.1184610582
C   C7        1.0  0.58740  0.88810  0.40400  1.0000 0.5906088718
C   C8        1.0  0.62550  0.82260  0.33230  1.0000 -0.1184610582
C   C9        1.0  0.59360  0.85150  0.22680  1.0000 -0.1896843234
C   C10       1.0  0.44300  0.80090  0.17910  1.0000 -0.1896843234
C   C11       1.0  0.37380  0.66610  0.17670  1.0000 -0.1184610582
C   C12       1.0  0.40460  0.63600  0.28230  1.0000 -0.1896843234
C   C13       1.0  0.55640  0.68790  0.33120  1.0000 -0.1896843234
C   C14       1.0  0.41220  0.60230  0.10520  1.0000 0.5906088718
C   C15       1.0  0.25630  0.85380  0.40090  1.0000 0.5958324043
C   C16       1.0  0.11140  0.78330  0.33900  1.0000 -0.1184610582
C   C17       1.0  0.04200  0.86270  0.31390  1.0000 -0.1825100513
C   C18       1.0  0.89750  0.79160  0.24930  1.0000 -0.1896843234
C   C19       1.0  0.89010  0.72400  0.15380  1.0000 -0.1184610582
C   C20       1.0  0.96060  0.64530  0.17880  1.0000 -0.1825100513
C   C21       1.0  0.10550  0.71750  0.24370  1.0000 -0.1896843234
C   C22       1.0  0.74370  0.65060  0.09380  1.0000 0.5906088718
C   C23       1.0  0.60680  0.31110  0.35530  1.0000 -0.1184610582
C   C24       1.0  0.60820  0.38500  0.27040  1.0000 -0.1184610582
C   C25       1.0  0.53960  0.14240  0.23450  1.0000 -0.1123600336
C   C26       1.0  0.53340  0.21680  0.15070  1.0000 -0.1184610582
C   C27       1.0  0.37340  0.18100  0.28150  1.0000 -0.1184610582
C   C28       1.0  0.37410  0.26050  0.20080  1.0000 -0.1184610582
C   C29       1.0  0.41260  0.11190  0.59600  1.0000 0.5906088718
C   C30       1.0  0.37450  0.17740  0.66770  1.0000 -0.1184610582
C   C31       1.0  0.40640  0.14850  0.77320  1.0000 -0.1896843234
C   C32       1.0  0.55700  0.19910  0.82090  1.0000 -0.1896843234
C   C33       1.0  0.62620  0.33390  0.82330  1.0000 -0.1184610582
C   C34       1.0  0.59540  0.36400  0.71770  1.0000 -0.1896843234
C   C35       1.0  0.44360  0.31210  0.66880  1.0000 -0.1896843234
C   C36       1.0  0.58780  0.39770  0.89480  1.0000 0.5906088718
C   C37       1.0  0.74370  0.14620  0.59910  1.0000 0.5958324043
C   C38       1.0  0.88860  0.21670  0.66100  1.0000 -0.1184610582
C   C39       1.0  0.95800  0.13730  0.68610  1.0000 -0.1825100513
C   C40       1.0  0.10250  0.20840  0.75070  1.0000 -0.1896843234
C   C41       1.0  0.10990  0.27600  0.84620  1.0000 -0.1184610582
C   C42       1.0  0.03940  0.35470  0.82120  1.0000 -0.1825100513
C   C43       1.0  0.89450  0.28250  0.75630  1.0000 -0.1896843234
C   C44       1.0  0.25630  0.34940  0.90620  1.0000 0.5906088718
N   N1        1.0  0.49280  0.81400  0.68076  1.0000 -0.1008308189
N   N2        1.0  0.49630  0.68630  0.82067  1.0000 -0.1008308189
N   N3        1.0  0.50720  0.18600  0.31924  1.0000 -0.1008308189
N   N4        1.0  0.50370  0.31370  0.17933  1.0000 -0.1008308189
O   O1        1.0  0.56000  0.84300  0.47878  1.0000 -0.5602144581
O   O2        1.0  0.58880  0.98460  0.38346  1.0000 -0.572409782
O   O3        1.0  0.43390  0.64690  0.02904  1.0000 -0.5602144581
O   O4        1.0  0.41780  0.50850  0.12594  1.0000 -0.5602144581
O   O5        1.0  0.29830  0.81240  0.47432  1.0000 -0.5602144581
O   O6        1.0  0.32580  0.94860  0.37345  1.0000 -0.572409782
O   O7        1.0  0.69680  0.69210  0.02279  1.0000 -0.5602144581
O   O8        1.0  0.67910  0.55530  0.12119  1.0000 -0.5602144581
O   O9        1.0  0.44000  0.15700  0.52122  1.0000 -0.5602144581
O   O10       1.0  0.41120  0.01540  0.61654  1.0000 -0.572409782
O   O11       1.0  0.56610  0.35310  0.97096  1.0000 -0.5602144581
O   O12       1.0  0.58220  0.49150  0.87406  1.0000 -0.5602144581
O   O13       1.0  0.70170  0.18760  0.52568  1.0000 -0.5602144581
O   O14       1.0  0.67420  0.05140  0.62655  1.0000 -0.572409782
O   O15       1.0  0.30320  0.30790  0.97721  1.0000 -0.5602144581
O   O16       1.0  0.32090  0.44470  0.87881  1.0000 -0.5602144581
