# DDEC6 charges by PACMAN v1.1 (https://github.com/mtap-research/PACMAN-charge/)
data_2020[Mn][sql]2[FSR]4
_chemical_formula_sum              "Mn2 H24 C36 N12 O8"
_cell_length_a       8.816
_cell_length_b       10.2543
_cell_length_c       12.373
_cell_angle_alpha    75.184
_cell_angle_beta     83.136
_cell_angle_gamma    79.668

_symmetry_space_group_name_H-M    "P 1"
_symmetry_Int_Tables_number       1

loop_
  _symmetry_equiv_pos_as_xyz
  'x, y, z'

loop_
  _atom_site_type_symbol
  _atom_site_label
  _atom_site_symmetry_multiplicity
  _atom_site_fract_x
  _atom_site_fract_y
  _atom_site_fract_z
  _atom_site_occupancy
  _atom_site_charge
Mn  Mn1       1.0  0.85822  0.38350  0.96440  1.0000 0.8595539953
Mn  Mn2       1.0  0.14178  0.61650  0.03560  1.0000 0.8595539953
H   H1        1.0  0.89700  0.60500  0.72990  1.0000 0.102808642
H   H2        1.0  0.42840  0.30620  0.50010  1.0000 0.2985954906
H   H3        1.0  0.57130  0.52650  0.13180  1.0000 0.1391990806
H   H4        1.0  0.85960  0.91330  0.96010  1.0000 0.1273448145
H   H5        1.0  0.29210  0.27330  0.66720  1.0000 0.1273448145
H   H6        1.0  0.49090  0.17380  0.83490  1.0000 0.1107891526
H   H7        1.0  0.52730  0.77620  0.84480  1.0000 0.102808642
H   H8        1.0  0.04570  0.64310  0.56410  1.0000 0.1273448145
H   H9        1.0  0.39360  0.99600  0.79890  1.0000 0.102808642
H   H10       1.0  0.13890  0.24710  0.83180  1.0000 0.1107891526
H   H11       1.0  0.65940  0.19820  0.38130  1.0000 0.1165521469
H   H12       1.0  0.82200  0.17400  0.21700  1.0000 0.2862381365
H   H13       1.0  0.10300  0.39500  0.27010  1.0000 0.102808642
H   H14       1.0  0.57160  0.69380  0.49990  1.0000 0.2985954906
H   H15       1.0  0.42870  0.47350  0.86820  1.0000 0.1391990806
H   H16       1.0  0.14040  0.08670  0.03990  1.0000 0.1273448145
H   H17       1.0  0.70790  0.72670  0.33280  1.0000 0.1273448145
H   H18       1.0  0.50910  0.82620  0.16510  1.0000 0.1107891526
H   H19       1.0  0.47270  0.22380  0.15520  1.0000 0.102808642
H   H20       1.0  0.95430  0.35690  0.43590  1.0000 0.1273448145
H   H21       1.0  0.60640  0.00400  0.20110  1.0000 0.102808642
H   H22       1.0  0.86110  0.75290  0.16820  1.0000 0.1107891526
H   H23       1.0  0.34060  0.80180  0.61870  1.0000 0.1165521469
H   H24       1.0  0.17800  0.82600  0.78300  1.0000 0.2862381365
C   C1        1.0  0.79840  0.68110  0.93185  1.0000 0.5614395167
C   C2        1.0  0.97770  0.53720  0.71720  1.0000 0.0877627849
C   C3        1.0  0.68540  0.06220  0.90070  1.0000 -0.0201875374
C   C4        1.0  0.70890  0.82260  0.90539  1.0000 -0.0350043934
C   C5        1.0  0.56700  0.38580  0.28520  1.0000 -0.1193937205
C   C6        1.0  0.74850  0.17690  0.92390  1.0000 0.5397239353
C   C7        1.0  0.61440  0.44180  0.17360  1.0000 -0.0044239052
C   C8        1.0  0.76630  0.92990  0.92730  1.0000 -0.1193937205
C   C9        1.0  0.21230  0.34260  0.67800  1.0000 -0.20336716
C   C10       1.0  0.54570  0.08570  0.85280  1.0000 -0.0963721045
C   C11       1.0  0.28110  0.48170  0.48820  1.0000 0.2247980859
C   C12       1.0  0.44480  0.44390  0.35660  1.0000 0.2754503663
C   C13       1.0  0.56760  0.84790  0.85820  1.0000 -0.0963721045
C   C14       1.0  0.18640  0.46150  0.59540  1.0000 0.0662335556
C   C15       1.0  0.06630  0.56090  0.61700  1.0000 -0.1789615799
C   C16       1.0  0.48710  0.97930  0.83140  1.0000 -0.1109758106
C   C17       1.0  0.11890  0.32750  0.77660  1.0000 0.0877627849
C   C18       1.0  0.66120  0.26170  0.31260  1.0000 -0.0688763273
C   C19       1.0  0.20160  0.31890  0.06815  1.0000 0.5614395167
C   C20       1.0  0.02230  0.46280  0.28280  1.0000 0.0877627849
C   C21       1.0  0.31460  0.93780  0.09930  1.0000 -0.0201875374
C   C22       1.0  0.29110  0.17740  0.09461  1.0000 -0.0350043934
C   C23       1.0  0.43300  0.61420  0.71480  1.0000 -0.1193937205
C   C24       1.0  0.25150  0.82310  0.07610  1.0000 0.5397239353
C   C25       1.0  0.38560  0.55820  0.82640  1.0000 -0.0044239052
C   C26       1.0  0.23370  0.07010  0.07270  1.0000 -0.1193937205
C   C27       1.0  0.78770  0.65740  0.32200  1.0000 -0.20336716
C   C28       1.0  0.45430  0.91430  0.14720  1.0000 -0.0963721045
C   C29       1.0  0.71890  0.51830  0.51180  1.0000 0.2247980859
C   C30       1.0  0.55520  0.55610  0.64340  1.0000 0.2754503663
C   C31       1.0  0.43240  0.15210  0.14180  1.0000 -0.0963721045
C   C32       1.0  0.81360  0.53850  0.40460  1.0000 0.0662335556
C   C33       1.0  0.93370  0.43910  0.38300  1.0000 -0.1789615799
C   C34       1.0  0.51290  0.02070  0.16860  1.0000 -0.1109758106
C   C35       1.0  0.88110  0.67250  0.22340  1.0000 0.0877627849
C   C36       1.0  0.33880  0.73830  0.68740  1.0000 -0.0688763273
N   N1        1.0  0.72880  0.35880  0.13513  1.0000 -0.1789615799
N   N2        1.0  0.00140  0.42190  0.79728  1.0000 -0.2209469352
N   N3        1.0  0.25670  0.59450  0.40785  1.0000 -0.2543358181
N   N4        1.0  0.75580  0.24940  0.22189  1.0000 -0.0688763273
N   N5        1.0  0.39560  0.38590  0.46011  1.0000 -0.2885958527
N   N6        1.0  0.36420  0.56860  0.32399  1.0000 -0.20336716
N   N7        1.0  0.27120  0.64120  0.86487  1.0000 -0.1789615799
N   N8        1.0  0.99860  0.57810  0.20272  1.0000 -0.2209469352
N   N9        1.0  0.74330  0.40550  0.59215  1.0000 -0.2543358181
N   N10       1.0  0.24420  0.75060  0.77811  1.0000 -0.0688763273
N   N11       1.0  0.60440  0.61410  0.53989  1.0000 -0.2885958527
N   N12       1.0  0.63580  0.43140  0.67601  1.0000 -0.20336716
O   O1        1.0  0.73370  0.58468  0.92385  1.0000 -0.5273488138
O   O2        1.0  0.86960  0.15377  0.97384  1.0000 -0.5547103856
O   O3        1.0  0.67940  0.29811  0.89134  1.0000 -0.5363493536
O   O4        1.0  0.93350  0.66566  0.95849  1.0000 -0.5685279642
O   O5        1.0  0.26630  0.41532  0.07615  1.0000 -0.5273488138
O   O6        1.0  0.13040  0.84623  0.02616  1.0000 -0.5547103856
O   O7        1.0  0.32060  0.70189  0.10866  1.0000 -0.5363493536
O   O8        1.0  0.06650  0.33434  0.04151  1.0000 -0.5685279642
