# DDEC6 charges by PACMAN v1.1 (https://github.com/mtap-research/PACMAN-charge/)
data_2020[Eu][sql]2[FSR]3
_chemical_formula_sum              "Eu4 H72 C64 S8 N12 O36"
_cell_length_a       14.8715
_cell_length_b       14.8715
_cell_length_c       17.1076
_cell_angle_alpha    81.8034
_cell_angle_beta     98.1966
_cell_angle_gamma    123.48

_symmetry_space_group_name_H-M    "P 1"
_symmetry_Int_Tables_number       1

loop_
  _symmetry_equiv_pos_as_xyz
  'x, y, z'

loop_
  _atom_site_type_symbol
  _atom_site_label
  _atom_site_symmetry_multiplicity
  _atom_site_fract_x
  _atom_site_fract_y
  _atom_site_fract_z
  _atom_site_occupancy
  _atom_site_charge
Eu  Eu1       1.0  0.48660  0.02718  0.60854  1.0000 2.0346024458
Eu  Eu2       1.0  0.02718  0.48660  0.89146  1.0000 2.0346024458
Eu  Eu3       1.0  0.51340  0.97282  0.39146  1.0000 2.0346024458
Eu  Eu4       1.0  0.97282  0.51340  0.10854  1.0000 2.0364882573
H   H1        1.0  0.76710  0.26210  0.61530  1.0000 0.1297531602
H   H2        1.0  0.93382  0.43988  0.62335  1.0000 0.1193542461
H   H3        1.0  0.65664  0.75112  0.52517  1.0000 0.1297531602
H   H4        1.0  0.72070  0.66596  0.62756  1.0000 0.1297531602
H   H5        1.0  0.47108  0.24590  0.63860  1.0000 0.0986637864
H   H6        1.0  0.71822  0.41292  0.78947  1.0000 0.1297531602
H   H7        1.0  0.67436  0.28932  0.79517  1.0000 0.1297531602
H   H8        1.0  0.73751  0.36483  0.72255  1.0000 0.1467945333
H   H9        1.0  0.56613  0.40607  0.79342  1.0000 0.1297531602
H   H10       1.0  0.57192  0.45650  0.70589  1.0000 0.1297531602
H   H11       1.0  0.46683  0.34763  0.73154  1.0000 0.1193542461
H   H12       1.0  0.24851  0.89213  0.71012  1.0000 0.1193542461
H   H13       1.0  0.25150  0.10956  0.81643  1.0000 0.1297531602
H   H14       1.0  0.36328  0.13636  0.79498  1.0000 0.1297531602
H   H15       1.0  0.28169  0.14109  0.72822  1.0000 0.1193542461
H   H16       1.0  0.08291  0.91327  0.78353  1.0000 0.1297531602
H   H17       1.0  0.12663  0.83701  0.79844  1.0000 0.1381207034
H   H18       1.0  0.15513  0.91805  0.86114  1.0000 0.1381207034
H   H19       1.0  0.26210  0.76710  0.88470  1.0000 0.1297531602
H   H20       1.0  0.43988  0.93382  0.87665  1.0000 0.1193542461
H   H21       1.0  0.75112  0.65664  0.97483  1.0000 0.1297531602
H   H22       1.0  0.66596  0.72070  0.87244  1.0000 0.1297531602
H   H23       1.0  0.24590  0.47108  0.86140  1.0000 0.0986637864
H   H24       1.0  0.41292  0.71822  0.71053  1.0000 0.1297531602
H   H25       1.0  0.28932  0.67436  0.70483  1.0000 0.1297531602
H   H26       1.0  0.36483  0.73751  0.77745  1.0000 0.1467945333
H   H27       1.0  0.40607  0.56613  0.70658  1.0000 0.1297531602
H   H28       1.0  0.45650  0.57192  0.79411  1.0000 0.1297531602
H   H29       1.0  0.34763  0.46683  0.76846  1.0000 0.1193542461
H   H30       1.0  0.89213  0.24851  0.78988  1.0000 0.1193542461
H   H31       1.0  0.10956  0.25150  0.68357  1.0000 0.1297531602
H   H32       1.0  0.13636  0.36328  0.70502  1.0000 0.1297531602
H   H33       1.0  0.14109  0.28169  0.77178  1.0000 0.1193542461
H   H34       1.0  0.91327  0.08291  0.71647  1.0000 0.1297531602
H   H35       1.0  0.83701  0.12663  0.70156  1.0000 0.1381207034
H   H36       1.0  0.91805  0.15513  0.63886  1.0000 0.1381207034
H   H37       1.0  0.23290  0.73790  0.38470  1.0000 0.1297531602
H   H38       1.0  0.06618  0.56012  0.37665  1.0000 0.1193542461
H   H39       1.0  0.34336  0.24888  0.47483  1.0000 0.1297531602
H   H40       1.0  0.27930  0.33404  0.37244  1.0000 0.1297531602
H   H41       1.0  0.52892  0.75410  0.36140  1.0000 0.0986637864
H   H42       1.0  0.28178  0.58708  0.21053  1.0000 0.1297531602
H   H43       1.0  0.32564  0.71068  0.20483  1.0000 0.1297531602
H   H44       1.0  0.26249  0.63517  0.27745  1.0000 0.1467945333
H   H45       1.0  0.43387  0.59393  0.20658  1.0000 0.1297531602
H   H46       1.0  0.42808  0.54350  0.29411  1.0000 0.1297531602
H   H47       1.0  0.53317  0.65237  0.26846  1.0000 0.1193542461
H   H48       1.0  0.75149  0.10787  0.28988  1.0000 0.1193542461
H   H49       1.0  0.74850  0.89044  0.18357  1.0000 0.1297531602
H   H50       1.0  0.63672  0.86364  0.20502  1.0000 0.1297531602
H   H51       1.0  0.71831  0.85891  0.27178  1.0000 0.1193542461
H   H52       1.0  0.91709  0.08673  0.21647  1.0000 0.1297531602
H   H53       1.0  0.87337  0.16299  0.20156  1.0000 0.1381207034
H   H54       1.0  0.84487  0.08195  0.13886  1.0000 0.1381207034
H   H55       1.0  0.73790  0.23290  0.11530  1.0000 0.1297531602
H   H56       1.0  0.56012  0.06618  0.12335  1.0000 0.1193542461
H   H57       1.0  0.24888  0.34336  0.02517  1.0000 0.1297531602
H   H58       1.0  0.33404  0.27930  0.12756  1.0000 0.1297531602
H   H59       1.0  0.75410  0.52892  0.13860  1.0000 0.0986637864
H   H60       1.0  0.58708  0.28178  0.28947  1.0000 0.1297531602
H   H61       1.0  0.71068  0.32564  0.29517  1.0000 0.1297531602
H   H62       1.0  0.63517  0.26249  0.22255  1.0000 0.1467945333
H   H63       1.0  0.59393  0.43387  0.29342  1.0000 0.1297531602
H   H64       1.0  0.54350  0.42808  0.20589  1.0000 0.1297531602
H   H65       1.0  0.65237  0.53317  0.23154  1.0000 0.1193542461
H   H66       1.0  0.10787  0.75149  0.21012  1.0000 0.1193542461
H   H67       1.0  0.89044  0.74850  0.31643  1.0000 0.1297531602
H   H68       1.0  0.86364  0.63672  0.29498  1.0000 0.1297531602
H   H69       1.0  0.85891  0.71831  0.22822  1.0000 0.1193542461
H   H70       1.0  0.08673  0.91709  0.28353  1.0000 0.1297531602
H   H71       1.0  0.16299  0.87337  0.29844  1.0000 0.1381207034
H   H72       1.0  0.08195  0.84487  0.36114  1.0000 0.1381207034
C   C1        1.0  0.68740  0.16820  0.46890  1.0000 0.6306742653
C   C2        1.0  0.78090  0.27030  0.49800  1.0000 -0.1082387283
C   C3        1.0  0.80760  0.30260  0.57240  1.0000 -0.1082387283
C   C4        1.0  0.90450  0.40510  0.57670  1.0000 -0.1795610003
C   C5        1.0  0.95100  0.44860  0.50820  1.0000 0.0022156885
C   C6        1.0  0.58390  0.88010  0.56420  1.0000 0.6422469839
C   C7        1.0  0.63230  0.81950  0.60690  1.0000 -0.1082387283
C   C8        1.0  0.66150  0.75930  0.57880  1.0000 -0.1082387283
C   C9        1.0  0.69930  0.71110  0.63760  1.0000 -0.1795610003
C   C10       1.0  0.70210  0.73670  0.71180  1.0000 -0.0344865313
C   C11       1.0  0.53650  0.25830  0.66330  1.0000 0.2990448288
C   C12       1.0  0.68780  0.35100  0.75970  1.0000 -0.3217013479
C   C13       1.0  0.54440  0.39020  0.73890  1.0000 -0.3488754109
C   C14       1.0  0.28150  0.96490  0.71790  1.0000 0.2990448288
C   C15       1.0  0.28830  0.10410  0.77730  1.0000 -0.3217013479
C   C16       1.0  0.14270  0.90750  0.80560  1.0000 -0.3288004175
C   C17       1.0  0.16820  0.68740  0.03110  1.0000 0.6306742653
C   C18       1.0  0.27030  0.78090  0.00200  1.0000 -0.1082387283
C   C19       1.0  0.30260  0.80760  0.92760  1.0000 -0.1082387283
C   C20       1.0  0.40510  0.90450  0.92330  1.0000 -0.1795610003
C   C21       1.0  0.44860  0.95100  0.99180  1.0000 0.0022156885
C   C22       1.0  0.88010  0.58390  0.93580  1.0000 0.6422469839
C   C23       1.0  0.81950  0.63230  0.89310  1.0000 -0.1082387283
C   C24       1.0  0.75930  0.66150  0.92120  1.0000 -0.1082387283
C   C25       1.0  0.71110  0.69930  0.86240  1.0000 -0.1795610003
C   C26       1.0  0.73670  0.70210  0.78820  1.0000 -0.0344865313
C   C27       1.0  0.25830  0.53650  0.83670  1.0000 0.2990448288
C   C28       1.0  0.35100  0.68780  0.74030  1.0000 -0.3217013479
C   C29       1.0  0.39020  0.54440  0.76110  1.0000 -0.3488754109
C   C30       1.0  0.96490  0.28150  0.78210  1.0000 0.2990448288
C   C31       1.0  0.10410  0.28830  0.72270  1.0000 -0.3217013479
C   C32       1.0  0.90750  0.14270  0.69440  1.0000 -0.3288004175
C   C33       1.0  0.31260  0.83180  0.53110  1.0000 0.6306742653
C   C34       1.0  0.21910  0.72970  0.50200  1.0000 -0.1082387283
C   C35       1.0  0.19240  0.69740  0.42760  1.0000 -0.1082387283
C   C36       1.0  0.09550  0.59490  0.42330  1.0000 -0.1795610003
C   C37       1.0  0.04900  0.55140  0.49180  1.0000 0.0022156885
C   C38       1.0  0.41610  0.11990  0.43580  1.0000 0.6422469839
C   C39       1.0  0.36770  0.18050  0.39310  1.0000 -0.1082387283
C   C40       1.0  0.33850  0.24070  0.42120  1.0000 -0.1082387283
C   C41       1.0  0.30070  0.28890  0.36240  1.0000 -0.1795610003
C   C42       1.0  0.29790  0.26330  0.28820  1.0000 -0.0344865313
C   C43       1.0  0.46350  0.74170  0.33670  1.0000 0.2990448288
C   C44       1.0  0.31220  0.64900  0.24030  1.0000 -0.3217013479
C   C45       1.0  0.45560  0.60980  0.26110  1.0000 -0.3488754109
C   C46       1.0  0.71850  0.03510  0.28210  1.0000 0.2990448288
C   C47       1.0  0.71170  0.89590  0.22270  1.0000 -0.3217013479
C   C48       1.0  0.85730  0.09250  0.19440  1.0000 -0.3288004175
C   C49       1.0  0.83180  0.31260  0.96890  1.0000 0.6306742653
C   C50       1.0  0.72970  0.21910  0.99800  1.0000 -0.1082387283
C   C51       1.0  0.69740  0.19240  0.07240  1.0000 -0.1082387283
C   C52       1.0  0.59490  0.09550  0.07670  1.0000 -0.1795610003
C   C53       1.0  0.55140  0.04900  0.00820  1.0000 0.0022156885
C   C54       1.0  0.11990  0.41610  0.06420  1.0000 0.6422469839
C   C55       1.0  0.18050  0.36770  0.10690  1.0000 -0.1082387283
C   C56       1.0  0.24070  0.33850  0.07880  1.0000 -0.1082387283
C   C57       1.0  0.28890  0.30070  0.13760  1.0000 -0.1795610003
C   C58       1.0  0.26330  0.29790  0.21180  1.0000 -0.0344865313
C   C59       1.0  0.74170  0.46350  0.16330  1.0000 0.2990448288
C   C60       1.0  0.64900  0.31220  0.25970  1.0000 -0.3217013479
C   C61       1.0  0.60980  0.45560  0.23890  1.0000 -0.3488754109
C   C62       1.0  0.03510  0.71850  0.21790  1.0000 0.2990448288
C   C63       1.0  0.89590  0.71170  0.27730  1.0000 -0.3217013479
C   C64       1.0  0.09250  0.85730  0.30560  1.0000 -0.3288004175
S   S1        1.0  0.87519  0.36315  0.43400  1.0000 0.1467945333
S   S2        1.0  0.65540  0.81964  0.70765  1.0000 0.1297531602
S   S3        1.0  0.36315  0.87519  0.06600  1.0000 0.1467945333
S   S4        1.0  0.81964  0.65540  0.79235  1.0000 0.1297531602
S   S5        1.0  0.12481  0.63685  0.56600  1.0000 0.1467945333
S   S6        1.0  0.34460  0.18036  0.29235  1.0000 0.1297531602
S   S7        1.0  0.63685  0.12481  0.93400  1.0000 0.1467945333
S   S8        1.0  0.18036  0.34460  0.20765  1.0000 0.1297531602
N   N1        1.0  0.60850  0.01190  0.75600  1.0000 0.6810471043
N   N2        1.0  0.58740  0.32940  0.71750  1.0000 0.0274500344
N   N3        1.0  0.23970  0.98990  0.76560  1.0000 0.0274500344
N   N4        1.0  0.01190  0.60850  0.74400  1.0000 0.6810471043
N   N5        1.0  0.32940  0.58740  0.78250  1.0000 0.0274500344
N   N6        1.0  0.98990  0.23970  0.73440  1.0000 0.0274500344
N   N7        1.0  0.39150  0.98810  0.24400  1.0000 0.6810471043
N   N8        1.0  0.41260  0.67060  0.28250  1.0000 0.0274500344
N   N9        1.0  0.76030  0.01010  0.23440  1.0000 0.0274500344
N   N10       1.0  0.98810  0.39150  0.25600  1.0000 0.6810471043
N   N11       1.0  0.67060  0.41260  0.21750  1.0000 0.0274500344
N   N12       1.0  0.01010  0.76030  0.26560  1.0000 0.0274500344
O   O1        1.0  0.50500  0.96200  0.74810  1.0000 -0.5233708695
O   O2        1.0  0.65760  0.08160  0.70120  1.0000 -0.4754549339
O   O3        1.0  0.65250  0.98950  0.81370  1.0000 -0.3809399456
O   O4        1.0  0.61460  0.10340  0.51450  1.0000 -0.7161058262
O   O5        1.0  0.68260  0.14780  0.39860  1.0000 -0.6263615862
O   O6        1.0  0.54290  0.90710  0.60720  1.0000 -0.6663599983
O   O7        1.0  0.58780  0.89780  0.49060  1.0000 -0.6463297978
O   O8        1.0  0.57190  0.20870  0.64470  1.0000 -0.508837618
O   O9        1.0  0.36100  0.03020  0.68290  1.0000 -0.5260411278
O   O10       1.0  0.96200  0.50500  0.75190  1.0000 -0.5233708695
O   O11       1.0  0.08160  0.65760  0.79880  1.0000 -0.4754549339
O   O12       1.0  0.98950  0.65250  0.68630  1.0000 -0.3809399456
O   O13       1.0  0.10340  0.61460  0.98550  1.0000 -0.7161058262
O   O14       1.0  0.14780  0.68260  0.10140  1.0000 -0.6263615862
O   O15       1.0  0.90710  0.54290  0.89280  1.0000 -0.6663599983
O   O16       1.0  0.89780  0.58780  0.00940  1.0000 -0.6463297978
O   O17       1.0  0.20870  0.57190  0.85530  1.0000 -0.508837618
O   O18       1.0  0.03020  0.36100  0.81710  1.0000 -0.5260411278
O   O19       1.0  0.49500  0.03800  0.25190  1.0000 -0.5233708695
O   O20       1.0  0.34240  0.91840  0.29880  1.0000 -0.4754549339
O   O21       1.0  0.34750  0.01050  0.18630  1.0000 -0.3809399456
O   O22       1.0  0.38540  0.89660  0.48550  1.0000 -0.7161058262
O   O23       1.0  0.31740  0.85220  0.60140  1.0000 -0.6263615862
O   O24       1.0  0.45710  0.09290  0.39280  1.0000 -0.6663599983
O   O25       1.0  0.41220  0.10220  0.50940  1.0000 -0.6463297978
O   O26       1.0  0.42810  0.79130  0.35530  1.0000 -0.508837618
O   O27       1.0  0.63900  0.96980  0.31710  1.0000 -0.5260411278
O   O28       1.0  0.03800  0.49500  0.24810  1.0000 -0.5233708695
O   O29       1.0  0.91840  0.34240  0.20120  1.0000 -0.4754549339
O   O30       1.0  0.01050  0.34750  0.31370  1.0000 -0.3809399456
O   O31       1.0  0.89660  0.38540  0.01450  1.0000 -0.7161058262
O   O32       1.0  0.85220  0.31740  0.89860  1.0000 -0.6263615862
O   O33       1.0  0.09290  0.45710  0.10720  1.0000 -0.6663599983
O   O34       1.0  0.10220  0.41220  0.99060  1.0000 -0.6463297978
O   O35       1.0  0.79130  0.42810  0.14470  1.0000 -0.508837618
O   O36       1.0  0.96980  0.63900  0.18290  1.0000 -0.5260411278
