# DDEC6 charges by PACMAN v1.1 (https://github.com/mtap-research/PACMAN-charge/)
data_2020[ZnSi][scu]3[FSR]1
_chemical_formula_sum              "Zn8 Si4 H96 C136 N24 O36"
_cell_length_a       9.6578
_cell_length_b       40.024
_cell_length_c       12.4227
_cell_angle_alpha    90
_cell_angle_beta     129.473
_cell_angle_gamma    90

_symmetry_space_group_name_H-M    "P 1"
_symmetry_Int_Tables_number       1

loop_
  _symmetry_equiv_pos_as_xyz
  'x, y, z'

loop_
  _atom_site_type_symbol
  _atom_site_label
  _atom_site_symmetry_multiplicity
  _atom_site_fract_x
  _atom_site_fract_y
  _atom_site_fract_z
  _atom_site_occupancy
  _atom_site_charge
Zn  Zn1       1.0  0.55425  0.48546  0.74532  1.0000 0.9532627605
Zn  Zn2       1.0  0.91405  0.54543  0.82526  1.0000 0.939453765
Zn  Zn3       1.0  0.44575  0.98546  0.75468  1.0000 0.9532627605
Zn  Zn4       1.0  0.08595  0.04543  0.67474  1.0000 0.939453765
Zn  Zn5       1.0  0.44575  0.51454  0.25468  1.0000 0.9532627605
Zn  Zn6       1.0  0.08595  0.45457  0.17474  1.0000 0.939453765
Zn  Zn7       1.0  0.55425  0.01454  0.24532  1.0000 0.9532627605
Zn  Zn8       1.0  0.91405  0.95457  0.32526  1.0000 0.939453765
Si  Si1       1.0  0.34913  0.25708  0.72173  1.0000 0.8574987196
Si  Si2       1.0  0.65087  0.75708  0.77827  1.0000 0.8574987196
Si  Si3       1.0  0.65087  0.74292  0.27827  1.0000 0.8574987196
Si  Si4       1.0  0.34913  0.24292  0.22173  1.0000 0.8574987196
H   H1        1.0  0.66591  0.56376  0.59732  1.0000 0.3554804169
H   H2        1.0  0.72155  0.59065  0.68016  1.0000 0.3272409283
H   H3        1.0  0.77733  0.38507  0.23804  1.0000 0.1378583168
H   H4        1.0  0.60715  0.43554  0.46795  1.0000 0.118962681
H   H5        1.0  0.47550  0.09346  0.30855  1.0000 0.1378583168
H   H6        1.0  0.10725  0.09083  0.36361  1.0000 0.1378583168
H   H7        1.0  0.06761  0.48824  0.69782  1.0000 0.1378583168
H   H8        1.0  0.56052  0.03605  0.61306  1.0000 0.1378583168
H   H9        1.0  0.17243  0.28718  0.82511  1.0000 0.118962681
H   H10       1.0  0.96063  0.13388  0.20660  1.0000 0.1344199918
H   H11       1.0  0.96722  0.42514  0.40636  1.0000 0.1378583168
H   H12       1.0  0.24346  0.32623  0.98806  1.0000 0.118962681
H   H13       1.0  0.71569  0.34237  0.07557  1.0000 0.11099784
H   H14       1.0  0.65761  0.23668  0.73873  1.0000 0.118962681
H   H15       1.0  0.64617  0.30245  0.91653  1.0000 0.118962681
H   H16       1.0  0.89018  0.19882  0.86687  1.0000 0.118962681
H   H17       1.0  0.03978  0.25285  0.60726  1.0000 0.1612866464
H   H18       1.0  0.10387  0.22028  0.58030  1.0000 0.1698749356
H   H19       1.0  0.14423  0.22530  0.72304  1.0000 0.1698749356
H   H20       1.0  0.46443  0.20515  0.92489  1.0000 0.118962681
H   H21       1.0  0.69427  0.16698  0.05209  1.0000 0.11099784
H   H22       1.0  0.45411  0.28948  0.62835  1.0000 0.1612866464
H   H23       1.0  0.33129  0.26073  0.52391  1.0000 0.1612866464
H   H24       1.0  0.24493  0.29267  0.53270  1.0000 0.1698749356
H   H25       1.0  0.33409  0.06376  0.90268  1.0000 0.3554804169
H   H26       1.0  0.27845  0.09065  0.81984  1.0000 0.3272409283
H   H27       1.0  0.22267  0.88507  0.26196  1.0000 0.1378583168
H   H28       1.0  0.39285  0.93554  0.03205  1.0000 0.118962681
H   H29       1.0  0.52450  0.59346  0.19145  1.0000 0.1378583168
H   H30       1.0  0.89275  0.59083  0.13639  1.0000 0.1378583168
H   H31       1.0  0.93239  0.98824  0.80218  1.0000 0.1378583168
H   H32       1.0  0.43948  0.53605  0.88694  1.0000 0.1378583168
H   H33       1.0  0.82757  0.78718  0.67489  1.0000 0.118962681
H   H34       1.0  0.03937  0.63388  0.29340  1.0000 0.1378583168
H   H35       1.0  0.03278  0.92514  0.09364  1.0000 0.1378583168
H   H36       1.0  0.75654  0.82623  0.51194  1.0000 0.118962681
H   H37       1.0  0.28431  0.84237  0.42443  1.0000 0.11099784
H   H38       1.0  0.34239  0.73668  0.76127  1.0000 0.118962681
H   H39       1.0  0.35383  0.80245  0.58347  1.0000 0.118962681
H   H40       1.0  0.10982  0.69882  0.63313  1.0000 0.118962681
H   H41       1.0  0.96022  0.75285  0.89274  1.0000 0.1612866464
H   H42       1.0  0.89613  0.72028  0.91970  1.0000 0.1698749356
H   H43       1.0  0.85577  0.72530  0.77696  1.0000 0.1698749356
H   H44       1.0  0.53557  0.70515  0.57511  1.0000 0.118962681
H   H45       1.0  0.30573  0.66698  0.44791  1.0000 0.11099784
H   H46       1.0  0.54589  0.78948  0.87165  1.0000 0.1612866464
H   H47       1.0  0.66871  0.76073  0.97609  1.0000 0.1612866464
H   H48       1.0  0.75507  0.79267  0.96730  1.0000 0.1698749356
H   H49       1.0  0.33409  0.43624  0.40268  1.0000 0.3554804169
H   H50       1.0  0.27845  0.40935  0.31984  1.0000 0.3272409283
H   H51       1.0  0.22267  0.61493  0.76196  1.0000 0.1378583168
H   H52       1.0  0.39285  0.56446  0.53205  1.0000 0.118962681
H   H53       1.0  0.52450  0.90654  0.69145  1.0000 0.1378583168
H   H54       1.0  0.89275  0.90917  0.63639  1.0000 0.1378583168
H   H55       1.0  0.93239  0.51176  0.30218  1.0000 0.1378583168
H   H56       1.0  0.43948  0.96395  0.38694  1.0000 0.1378583168
H   H57       1.0  0.82757  0.71282  0.17489  1.0000 0.118962681
H   H58       1.0  0.03937  0.86612  0.79340  1.0000 0.1378583168
H   H59       1.0  0.03278  0.57486  0.59364  1.0000 0.1378583168
H   H60       1.0  0.75654  0.67377  0.01194  1.0000 0.118962681
H   H61       1.0  0.28431  0.65763  0.92443  1.0000 0.11099784
H   H62       1.0  0.34239  0.76332  0.26127  1.0000 0.118962681
H   H63       1.0  0.35383  0.69755  0.08347  1.0000 0.118962681
H   H64       1.0  0.10982  0.80118  0.13313  1.0000 0.118962681
H   H65       1.0  0.96022  0.74715  0.39274  1.0000 0.1612866464
H   H66       1.0  0.89613  0.77972  0.41970  1.0000 0.1698749356
H   H67       1.0  0.85577  0.77470  0.27696  1.0000 0.1698749356
H   H68       1.0  0.53557  0.79485  0.07511  1.0000 0.118962681
H   H69       1.0  0.30573  0.83302  0.94791  1.0000 0.11099784
H   H70       1.0  0.54589  0.71052  0.37165  1.0000 0.1612866464
H   H71       1.0  0.66871  0.73927  0.47609  1.0000 0.1612866464
H   H72       1.0  0.75507  0.70733  0.46730  1.0000 0.1698749356
H   H73       1.0  0.66591  0.93624  0.09732  1.0000 0.3554804169
H   H74       1.0  0.72155  0.90935  0.18016  1.0000 0.3272409283
H   H75       1.0  0.77733  0.11493  0.73804  1.0000 0.1378583168
H   H76       1.0  0.60715  0.06446  0.96795  1.0000 0.118962681
H   H77       1.0  0.47550  0.40654  0.80855  1.0000 0.1378583168
H   H78       1.0  0.10725  0.40917  0.86361  1.0000 0.1378583168
H   H79       1.0  0.06761  0.01176  0.19782  1.0000 0.1378583168
H   H80       1.0  0.56052  0.46395  0.11306  1.0000 0.1378583168
H   H81       1.0  0.17243  0.21282  0.32511  1.0000 0.118962681
H   H82       1.0  0.96063  0.36612  0.70660  1.0000 0.1344199918
H   H83       1.0  0.96722  0.07486  0.90636  1.0000 0.1378583168
H   H84       1.0  0.24346  0.17377  0.48806  1.0000 0.118962681
H   H85       1.0  0.71569  0.15763  0.57557  1.0000 0.11099784
H   H86       1.0  0.65761  0.26332  0.23873  1.0000 0.118962681
H   H87       1.0  0.64617  0.19755  0.41653  1.0000 0.118962681
H   H88       1.0  0.89018  0.30118  0.36687  1.0000 0.118962681
H   H89       1.0  0.03978  0.24715  0.10726  1.0000 0.1612866464
H   H90       1.0  0.10387  0.27972  0.08030  1.0000 0.1698749356
H   H91       1.0  0.14423  0.27470  0.22304  1.0000 0.1698749356
H   H92       1.0  0.46443  0.29485  0.42489  1.0000 0.118962681
H   H93       1.0  0.69427  0.33302  0.55209  1.0000 0.11099784
H   H94       1.0  0.45411  0.21052  0.12835  1.0000 0.1612866464
H   H95       1.0  0.33129  0.23927  0.02391  1.0000 0.1612866464
H   H96       1.0  0.24493  0.20733  0.03270  1.0000 0.1698749356
C   C1        1.0  0.76950  0.42632  0.42120  1.0000 0.1481478263
C   C2        1.0  0.53370  0.36349  0.15580  1.0000 0.1025061376
C   C3        1.0  0.97030  0.15541  0.06020  1.0000 0.0787567675
C   C4        1.0  0.32400  0.06143  0.49970  1.0000 0.0122048642
C   C5        1.0  0.68080  0.38378  0.23760  1.0000 -0.1296610914
C   C6        1.0  0.54270  0.06280  0.46690  1.0000 -0.0014087229
C   C7        1.0  0.27680  0.09596  0.32280  1.0000 0.1481478263
C   C8        1.0  0.04210  0.45803  0.55750  1.0000 3.73383e-05
C   C9        1.0  0.71630  0.44116  0.49050  1.0000 -0.1859977029
C   C10       1.0  0.43840  0.08556  0.35700  1.0000 -0.2012806617
C   C11       1.0  0.82810  0.46455  0.59420  1.0000 -0.0014087229
C   C12       1.0  0.72030  0.05259  0.50680  1.0000 0.585119053
C   C13       1.0  0.21720  0.08400  0.39030  1.0000 -0.1806850143
C   C14       1.0  0.40110  0.28987  0.85110  1.0000 -0.213220448
C   C15       1.0  0.99230  0.47277  0.62780  1.0000 -0.120001572
C   C16       1.0  0.26600  0.04948  0.58020  1.0000 0.585119053
C   C17       1.0  0.48860  0.05087  0.53920  1.0000 -0.1392836056
C   C18       1.0  0.28270  0.29799  0.87590  1.0000 -0.0791627717
C   C19       1.0  0.01870  0.13582  0.16930  1.0000 -0.1491267018
C   C20       1.0  0.82030  0.17908  0.97600  1.0000 0.0682711482
C   C21       1.0  0.93270  0.43493  0.45400  1.0000 -0.1689670429
C   C22       1.0  0.77640  0.48073  0.67240  1.0000 0.5962498032
C   C23       1.0  0.32510  0.32161  0.97380  1.0000 -0.1392836056
C   C24       1.0  0.48710  0.33857  0.05100  1.0000 0.0682711482
C   C25       1.0  0.60680  0.33112  0.02640  1.0000 -0.1491267018
C   C26       1.0  0.66470  0.22289  0.80230  1.0000 -0.0713627967
C   C27       1.0  0.56380  0.30724  0.92990  1.0000 -0.0713627967
C   C28       1.0  0.80540  0.20005  0.87970  1.0000 -0.1392836056
C   C29       1.0  0.53600  0.22553  0.81790  1.0000 -0.2012806617
C   C30       1.0  0.22630  0.46598  0.60460  1.0000 0.5391327582
C   C31       1.0  0.13310  0.23637  0.64930  1.0000 -0.7436311923
C   C32       1.0  0.55020  0.20406  0.91300  1.0000 -0.0713627967
C   C33       1.0  0.68900  0.18112  0.99020  1.0000 -0.1491267018
C   C34       1.0  0.34430  0.27745  0.58520  1.0000 -0.7436311923
C   C35       1.0  0.23050  0.92632  0.07880  1.0000 0.1481478263
C   C36       1.0  0.46630  0.86349  0.34420  1.0000 0.1025061376
C   C37       1.0  0.02970  0.65541  0.43980  1.0000 0.0787567675
C   C38       1.0  0.67600  0.56143  0.00030  1.0000 0.0122048642
C   C39       1.0  0.31920  0.88378  0.26240  1.0000 -0.1296610914
C   C40       1.0  0.45730  0.56280  0.03310  1.0000 -0.0014087229
C   C41       1.0  0.72320  0.59596  0.17720  1.0000 0.1481478263
C   C42       1.0  0.95790  0.95803  0.94250  1.0000 3.73383e-05
C   C43       1.0  0.28370  0.94116  0.00950  1.0000 -0.1859977029
C   C44       1.0  0.56160  0.58556  0.14300  1.0000 -0.2012806617
C   C45       1.0  0.17190  0.96455  0.90580  1.0000 -0.0014087229
C   C46       1.0  0.27970  0.55259  0.99320  1.0000 0.585119053
C   C47       1.0  0.78280  0.58400  0.10970  1.0000 -0.1806850143
C   C48       1.0  0.59890  0.78987  0.64890  1.0000 -0.213220448
C   C49       1.0  0.00770  0.97277  0.87220  1.0000 -0.120001572
C   C50       1.0  0.73400  0.54948  0.91980  1.0000 0.585119053
C   C51       1.0  0.51140  0.55087  0.96080  1.0000 -0.1392836056
C   C52       1.0  0.71730  0.79799  0.62410  1.0000 -0.0791627717
C   C53       1.0  0.98130  0.63582  0.33070  1.0000 -0.1491267018
C   C54       1.0  0.17970  0.67908  0.52400  1.0000 0.0682711482
C   C55       1.0  0.06730  0.93493  0.04600  1.0000 -0.1689670429
C   C56       1.0  0.22360  0.98073  0.82760  1.0000 0.5962498032
C   C57       1.0  0.67490  0.82161  0.52620  1.0000 -0.1392836056
C   C58       1.0  0.51290  0.83857  0.44900  1.0000 0.0682711482
C   C59       1.0  0.39320  0.83112  0.47360  1.0000 -0.1491267018
C   C60       1.0  0.33530  0.72289  0.69770  1.0000 -0.0713627967
C   C61       1.0  0.43620  0.80724  0.57010  1.0000 -0.0713627967
C   C62       1.0  0.19460  0.70005  0.62030  1.0000 -0.1392836056
C   C63       1.0  0.46400  0.72553  0.68210  1.0000 -0.2012806617
C   C64       1.0  0.77370  0.96598  0.89540  1.0000 0.5391327582
C   C65       1.0  0.86690  0.73637  0.85070  1.0000 -0.7436311923
C   C66       1.0  0.44980  0.70406  0.58700  1.0000 -0.0713627967
C   C67       1.0  0.31100  0.68112  0.50980  1.0000 -0.1491267018
C   C68       1.0  0.65570  0.77745  0.91480  1.0000 -0.7436311923
C   C69       1.0  0.23050  0.57368  0.57880  1.0000 0.1481478263
C   C70       1.0  0.46630  0.63651  0.84420  1.0000 0.1025061376
C   C71       1.0  0.02970  0.84459  0.93980  1.0000 0.0787567675
C   C72       1.0  0.67600  0.93857  0.50030  1.0000 0.0122048642
C   C73       1.0  0.31920  0.61622  0.76240  1.0000 -0.1296610914
C   C74       1.0  0.45730  0.93720  0.53310  1.0000 -0.0014087229
C   C75       1.0  0.72320  0.90404  0.67720  1.0000 0.1481478263
C   C76       1.0  0.95790  0.54197  0.44250  1.0000 3.73383e-05
C   C77       1.0  0.28370  0.55884  0.50950  1.0000 -0.1859977029
C   C78       1.0  0.56160  0.91444  0.64300  1.0000 -0.2012806617
C   C79       1.0  0.17190  0.53545  0.40580  1.0000 -0.0014087229
C   C80       1.0  0.27970  0.94741  0.49320  1.0000 0.585119053
C   C81       1.0  0.78280  0.91600  0.60970  1.0000 -0.1806850143
C   C82       1.0  0.59890  0.71013  0.14890  1.0000 -0.213220448
C   C83       1.0  0.00770  0.52723  0.37220  1.0000 -0.120001572
C   C84       1.0  0.73400  0.95052  0.41980  1.0000 0.585119053
C   C85       1.0  0.51140  0.94913  0.46080  1.0000 -0.1392836056
C   C86       1.0  0.71730  0.70201  0.12410  1.0000 -0.0791627717
C   C87       1.0  0.98130  0.86418  0.83070  1.0000 -0.1491267018
C   C88       1.0  0.17970  0.82092  0.02400  1.0000 0.0682711482
C   C89       1.0  0.06730  0.56507  0.54600  1.0000 -0.1689670429
C   C90       1.0  0.22360  0.51927  0.32760  1.0000 0.5962498032
C   C91       1.0  0.67490  0.67839  0.02620  1.0000 -0.1392836056
C   C92       1.0  0.51290  0.66143  0.94900  1.0000 0.0682711482
C   C93       1.0  0.39320  0.66888  0.97360  1.0000 -0.1491267018
C   C94       1.0  0.33530  0.77711  0.19770  1.0000 -0.0713627967
C   C95       1.0  0.43620  0.69276  0.07010  1.0000 -0.0713627967
C   C96       1.0  0.19460  0.79995  0.12030  1.0000 -0.1392836056
C   C97       1.0  0.46400  0.77447  0.18210  1.0000 -0.2012806617
C   C98       1.0  0.77370  0.53402  0.39540  1.0000 0.5391327582
C   C99       1.0  0.86690  0.76363  0.35070  1.0000 -0.7436311923
C   C100      1.0  0.44980  0.79594  0.08700  1.0000 -0.0713627967
C   C101      1.0  0.31100  0.81888  0.00980  1.0000 -0.1491267018
C   C102      1.0  0.65570  0.72255  0.41480  1.0000 -0.7436311923
C   C103      1.0  0.76950  0.07368  0.92120  1.0000 0.1481478263
C   C104      1.0  0.53370  0.13651  0.65580  1.0000 0.1025061376
C   C105      1.0  0.97030  0.34459  0.56020  1.0000 0.0787567675
C   C106      1.0  0.32400  0.43857  0.99970  1.0000 0.0122048642
C   C107      1.0  0.68080  0.11622  0.73760  1.0000 -0.1296610914
C   C108      1.0  0.54270  0.43720  0.96690  1.0000 -0.0014087229
C   C109      1.0  0.27680  0.40404  0.82280  1.0000 0.1481478263
C   C110      1.0  0.04210  0.04197  0.05750  1.0000 3.73383e-05
C   C111      1.0  0.71630  0.05884  0.99050  1.0000 -0.1859977029
C   C112      1.0  0.43840  0.41444  0.85700  1.0000 -0.2012806617
C   C113      1.0  0.82810  0.03545  0.09420  1.0000 -0.0014087229
C   C114      1.0  0.72030  0.44741  0.00680  1.0000 0.585119053
C   C115      1.0  0.21720  0.41600  0.89030  1.0000 -0.1806850143
C   C116      1.0  0.40110  0.21013  0.35110  1.0000 -0.213220448
C   C117      1.0  0.99230  0.02723  0.12780  1.0000 -0.120001572
C   C118      1.0  0.26600  0.45052  0.08020  1.0000 0.585119053
C   C119      1.0  0.48860  0.44913  0.03920  1.0000 -0.1392836056
C   C120      1.0  0.28270  0.20201  0.37590  1.0000 -0.0791627717
C   C121      1.0  0.01870  0.36418  0.66930  1.0000 -0.1491267018
C   C122      1.0  0.82030  0.32092  0.47600  1.0000 0.0682711482
C   C123      1.0  0.93270  0.06507  0.95400  1.0000 -0.1689670429
C   C124      1.0  0.77640  0.01927  0.17240  1.0000 0.5962498032
C   C125      1.0  0.32510  0.17839  0.47380  1.0000 -0.1392836056
C   C126      1.0  0.48710  0.16143  0.55100  1.0000 0.0682711482
C   C127      1.0  0.60680  0.16888  0.52640  1.0000 -0.1491267018
C   C128      1.0  0.66470  0.27711  0.30230  1.0000 -0.0713627967
C   C129      1.0  0.56380  0.19276  0.42990  1.0000 -0.0713627967
C   C130      1.0  0.80540  0.29995  0.37970  1.0000 -0.1392836056
C   C131      1.0  0.53600  0.27447  0.31790  1.0000 -0.2012806617
C   C132      1.0  0.22630  0.03402  0.10460  1.0000 0.5391327582
C   C133      1.0  0.13310  0.26363  0.14930  1.0000 -0.7436311923
C   C134      1.0  0.55020  0.29594  0.41300  1.0000 -0.0713627967
C   C135      1.0  0.68900  0.31888  0.49020  1.0000 -0.1491267018
C   C136      1.0  0.34430  0.22255  0.08520  1.0000 -0.7436311923
N   N1        1.0  0.16960  0.11982  0.21160  1.0000 0.1378583168
N   N2        1.0  0.65770  0.40151  0.31740  1.0000 0.1378583168
N   N3        1.0  0.21230  0.12880  0.13080  1.0000 -0.0963745255
N   N4        1.0  0.42700  0.36938  0.19030  1.0000 -0.2209850333
N   N5        1.0  0.09080  0.15020  0.03800  1.0000 -0.2209850333
N   N6        1.0  0.50230  0.39238  0.28920  1.0000 -0.1296610914
N   N7        1.0  0.83040  0.61982  0.28840  1.0000 0.1378583168
N   N8        1.0  0.34230  0.90151  0.18260  1.0000 0.1378583168
N   N9        1.0  0.78770  0.62880  0.36920  1.0000 -0.0963745255
N   N10       1.0  0.57300  0.86938  0.30970  1.0000 -0.2209850333
N   N11       1.0  0.90920  0.65020  0.46200  1.0000 -0.2209850333
N   N12       1.0  0.49770  0.89238  0.21080  1.0000 -0.1296610914
N   N13       1.0  0.83040  0.88018  0.78840  1.0000 0.1378583168
N   N14       1.0  0.34230  0.59849  0.68260  1.0000 0.1378583168
N   N15       1.0  0.78770  0.87120  0.86920  1.0000 -0.0963745255
N   N16       1.0  0.57300  0.63062  0.80970  1.0000 -0.2209850333
N   N17       1.0  0.90920  0.84980  0.96200  1.0000 -0.2209850333
N   N18       1.0  0.49770  0.60762  0.71080  1.0000 -0.1296610914
N   N19       1.0  0.16960  0.38018  0.71160  1.0000 0.1378583168
N   N20       1.0  0.65770  0.09849  0.81740  1.0000 0.1378583168
N   N21       1.0  0.21230  0.37120  0.63080  1.0000 -0.0963745255
N   N22       1.0  0.42700  0.13062  0.69030  1.0000 -0.2209850333
N   N23       1.0  0.09080  0.34980  0.53800  1.0000 -0.2209850333
N   N24       1.0  0.50230  0.10762  0.78920  1.0000 -0.1296610914
O   O1        1.0  0.72740  0.04105  0.41710  1.0000 -0.539056734
O   O2        1.0  0.85550  0.05682  0.63150  1.0000 -0.5117534555
O   O3        1.0  0.31850  0.48780  0.69770  1.0000 -0.539056734
O   O4        1.0  0.62500  0.47387  0.63520  1.0000 -0.539056734
O   O5        1.0  0.36820  0.03166  0.68560  1.0000 -0.584660963
O   O6        1.0  0.11380  0.05955  0.53840  1.0000 -0.5246448077
O   O7        1.0  0.89200  0.49914  0.77350  1.0000 -0.5658865727
O   O8        1.0  0.28560  0.44998  0.55630  1.0000 -0.5117534555
O   O9        1.0  0.75990  0.57452  0.66110  1.0000 -0.6185939468
O   O10       1.0  0.27260  0.54105  0.08290  1.0000 -0.539056734
O   O11       1.0  0.14450  0.55682  0.86850  1.0000 -0.5117534555
O   O12       1.0  0.68150  0.98780  0.80230  1.0000 -0.539056734
O   O13       1.0  0.37500  0.97387  0.86480  1.0000 -0.539056734
O   O14       1.0  0.63180  0.53166  0.81440  1.0000 -0.584660963
O   O15       1.0  0.88620  0.55955  0.96160  1.0000 -0.5246448077
O   O16       1.0  0.10800  0.99914  0.72650  1.0000 -0.5658865727
O   O17       1.0  0.71440  0.94998  0.94370  1.0000 -0.5117534555
O   O18       1.0  0.24010  0.07452  0.83890  1.0000 -0.6185939468
O   O19       1.0  0.27260  0.95895  0.58290  1.0000 -0.539056734
O   O20       1.0  0.14450  0.94318  0.36850  1.0000 -0.5117534555
O   O21       1.0  0.68150  0.51220  0.30230  1.0000 -0.539056734
O   O22       1.0  0.37500  0.52613  0.36480  1.0000 -0.539056734
O   O23       1.0  0.63180  0.96834  0.31440  1.0000 -0.584660963
O   O24       1.0  0.88620  0.94045  0.46160  1.0000 -0.5246448077
O   O25       1.0  0.10800  0.50086  0.22650  1.0000 -0.5658865727
O   O26       1.0  0.71440  0.55002  0.44370  1.0000 -0.5117534555
O   O27       1.0  0.24010  0.42548  0.33890  1.0000 -0.6185939468
O   O28       1.0  0.72740  0.45895  0.91710  1.0000 -0.539056734
O   O29       1.0  0.85550  0.44318  0.13150  1.0000 -0.5117534555
O   O30       1.0  0.31850  0.01220  0.19770  1.0000 -0.539056734
O   O31       1.0  0.62500  0.02613  0.13520  1.0000 -0.539056734
O   O32       1.0  0.36820  0.46834  0.18560  1.0000 -0.584660963
O   O33       1.0  0.11380  0.44045  0.03840  1.0000 -0.5246448077
O   O34       1.0  0.89200  0.00086  0.27350  1.0000 -0.5658865727
O   O35       1.0  0.28560  0.05002  0.05630  1.0000 -0.5117534555
O   O36       1.0  0.75990  0.92548  0.16110  1.0000 -0.6185939468
