# DDEC6 charges by PACMAN v1.1 (https://github.com/mtap-research/PACMAN-charge/)
data_2020[Mn][nan]2[FSR]1
_chemical_formula_sum              "V16 Cu12 Mo32 As12 H64 C64 N32 O160"
_cell_length_a       16.3413
_cell_length_b       19.4683
_cell_length_c       21.0314
_cell_angle_alpha    90
_cell_angle_beta     121.906
_cell_angle_gamma    90

_symmetry_space_group_name_H-M    "P 1"
_symmetry_Int_Tables_number       1

loop_
  _symmetry_equiv_pos_as_xyz
  'x, y, z'

loop_
  _atom_site_type_symbol
  _atom_site_label
  _atom_site_symmetry_multiplicity
  _atom_site_fract_x
  _atom_site_fract_y
  _atom_site_fract_z
  _atom_site_occupancy
  _atom_site_charge
V   V1        1.0  0.22169  0.44013  0.66944  1.0000 1.9205005585
V   V2        1.0  0.45551  0.24680  0.70185  1.0000 1.935831807
V   V3        1.0  0.20869  0.06959  0.67935  1.0000 1.9205005585
V   V4        1.0  0.96233  0.26306  0.62238  1.0000 1.9205005585
V   V5        1.0  0.77831  0.94013  0.83056  1.0000 1.9205005585
V   V6        1.0  0.54449  0.74680  0.79815  1.0000 1.935831807
V   V7        1.0  0.79131  0.56959  0.82065  1.0000 1.9205005585
V   V8        1.0  0.03767  0.76306  0.87762  1.0000 1.9205005585
V   V9        1.0  0.77831  0.55987  0.33056  1.0000 1.9205005585
V   V10       1.0  0.54449  0.75320  0.29815  1.0000 1.935831807
V   V11       1.0  0.79131  0.93041  0.32065  1.0000 1.9205005585
V   V12       1.0  0.03767  0.73694  0.37762  1.0000 1.9205005585
V   V13       1.0  0.22169  0.05987  0.16944  1.0000 1.9205005585
V   V14       1.0  0.45551  0.25320  0.20185  1.0000 1.935831807
V   V15       1.0  0.20869  0.43041  0.17935  1.0000 1.9205005585
V   V16       1.0  0.96233  0.23694  0.12238  1.0000 1.9205005585
Cu  Cu1       1.0  0.30261  0.57146  0.60734  1.0000 0.3540976563
Cu  Cu2       1.0  0.71040  0.42150  0.88436  1.0000 0.3228091815
Cu  Cu3       1.0  0.02185  0.49209  0.24483  1.0000 0.3705520103
Cu  Cu4       1.0  0.69739  0.07146  0.89266  1.0000 0.3540976563
Cu  Cu5       1.0  0.28960  0.92150  0.61564  1.0000 0.3228091815
Cu  Cu6       1.0  0.97815  0.99209  0.25517  1.0000 0.3705520103
Cu  Cu7       1.0  0.69739  0.42854  0.39266  1.0000 0.3540976563
Cu  Cu8       1.0  0.28960  0.57850  0.11564  1.0000 0.3228091815
Cu  Cu9       1.0  0.97815  0.50791  0.75517  1.0000 0.3705520103
Cu  Cu10      1.0  0.30261  0.92854  0.10734  1.0000 0.3540976563
Cu  Cu11      1.0  0.71040  0.07850  0.38436  1.0000 0.3228091815
Cu  Cu12      1.0  0.02185  0.00791  0.74483  1.0000 0.3705520103
Mo  Mo1       1.0  0.28252  0.15546  0.56242  1.0000 2.143061302
Mo  Mo2       1.0  0.28945  0.33850  0.55716  1.0000 2.1597779015
Mo  Mo3       1.0  0.01419  0.16432  0.52011  1.0000 2.1305119315
Mo  Mo4       1.0  0.02113  0.34673  0.51465  1.0000 2.1305119315
Mo  Mo5       1.0  0.39937  0.35744  0.81504  1.0000 2.1482254485
Mo  Mo6       1.0  0.15418  0.36499  0.77549  1.0000 2.1597779015
Mo  Mo7       1.0  0.14565  0.16145  0.78069  1.0000 2.1896087149
Mo  Mo8       1.0  0.39235  0.15298  0.82120  1.0000 2.1896087149
Mo  Mo9       1.0  0.71748  0.65546  0.93758  1.0000 2.143061302
Mo  Mo10      1.0  0.71055  0.83850  0.94284  1.0000 2.1597779015
Mo  Mo11      1.0  0.98581  0.66432  0.97989  1.0000 2.1305119315
Mo  Mo12      1.0  0.97887  0.84673  0.98535  1.0000 2.1305119315
Mo  Mo13      1.0  0.60063  0.85744  0.68496  1.0000 2.1482254485
Mo  Mo14      1.0  0.84582  0.86499  0.72451  1.0000 2.1597779015
Mo  Mo15      1.0  0.85435  0.66145  0.71931  1.0000 2.1896087149
Mo  Mo16      1.0  0.60765  0.65298  0.67880  1.0000 2.1896087149
Mo  Mo17      1.0  0.71748  0.84454  0.43758  1.0000 2.143061302
Mo  Mo18      1.0  0.71055  0.66150  0.44284  1.0000 2.1597779015
Mo  Mo19      1.0  0.98581  0.83568  0.47989  1.0000 2.1305119315
Mo  Mo20      1.0  0.97887  0.65327  0.48535  1.0000 2.1305119315
Mo  Mo21      1.0  0.60063  0.64256  0.18496  1.0000 2.1482254485
Mo  Mo22      1.0  0.84582  0.63501  0.22451  1.0000 2.1597779015
Mo  Mo23      1.0  0.85435  0.83855  0.21931  1.0000 2.1896087149
Mo  Mo24      1.0  0.60765  0.84702  0.17880  1.0000 2.1896087149
Mo  Mo25      1.0  0.28252  0.34454  0.06242  1.0000 2.143061302
Mo  Mo26      1.0  0.28945  0.16150  0.05716  1.0000 2.1597779015
Mo  Mo27      1.0  0.01419  0.33568  0.02011  1.0000 2.1305119315
Mo  Mo28      1.0  0.02113  0.15327  0.01465  1.0000 2.1305119315
Mo  Mo29      1.0  0.39937  0.14256  0.31504  1.0000 2.1482254485
Mo  Mo30      1.0  0.15418  0.13501  0.27549  1.0000 2.1597779015
Mo  Mo31      1.0  0.14565  0.33855  0.28069  1.0000 2.1896087149
Mo  Mo32      1.0  0.39235  0.34702  0.32120  1.0000 2.1896087149
As  As1       1.0  0.10765  0.24799  0.44565  1.0000 1.2030178228
As  As2       1.0  0.31906  0.27311  0.89464  1.0000 1.2940561989
As  As3       1.0  0.21380  0.25476  0.67052  1.0000 1.7724968413
As  As4       1.0  0.89235  0.74799  0.05435  1.0000 1.2030178228
As  As5       1.0  0.68094  0.77311  0.60536  1.0000 1.2940561989
As  As6       1.0  0.78620  0.75476  0.82948  1.0000 1.7724968413
As  As7       1.0  0.89235  0.75201  0.55435  1.0000 1.2030178228
As  As8       1.0  0.68094  0.72689  0.10536  1.0000 1.2940561989
As  As9       1.0  0.78620  0.74524  0.32948  1.0000 1.7724968413
As  As10      1.0  0.10765  0.25201  0.94565  1.0000 1.2030178228
As  As11      1.0  0.31906  0.22689  0.39464  1.0000 1.2940561989
As  As12      1.0  0.21380  0.24524  0.17052  1.0000 1.7724968413
H   H1        1.0  0.44420  0.46310  0.62530  1.0000 0.1274286974
H   H2        1.0  0.57640  0.40780  0.72090  1.0000 0.1399031922
H   H3        1.0  0.88260  0.50880  0.97900  1.0000 0.1274286974
H   H4        1.0  0.99170  0.52810  0.10260  1.0000 0.1399031922
H   H5        1.0  0.00950  0.49140  0.37780  1.0000 0.1399031922
H   H6        1.0  0.10990  0.51120  0.50360  1.0000 0.1274286974
H   H7        1.0  0.31400  0.56290  0.47070  1.0000 0.1399031922
H   H8        1.0  0.21610  0.54280  0.34600  1.0000 0.1399031922
H   H9        1.0  0.84790  0.40850  0.15620  1.0000 0.1399031922
H   H10       1.0  0.73590  0.39260  0.03200  1.0000 0.1274286974
H   H11       1.0  0.57300  0.53140  0.86510  1.0000 0.1274286974
H   H12       1.0  0.44200  0.58690  0.76980  1.0000 0.1399031922
H   H13       1.0  0.20080  0.68130  0.64690  1.0000 0.1399031922
H   H14       1.0  0.19430  0.79730  0.65000  1.0000 0.1399031922
H   H15       1.0  0.36730  0.81050  0.57710  1.0000 0.121856592
H   H16       1.0  0.37140  0.69370  0.57110  1.0000 0.1274286974
H   H17       1.0  0.55580  0.96310  0.87470  1.0000 0.1274286974
H   H18       1.0  0.42360  0.90780  0.77910  1.0000 0.1399031922
H   H19       1.0  0.11740  0.00880  0.52100  1.0000 0.1274286974
H   H20       1.0  0.00830  0.02810  0.39740  1.0000 0.1399031922
H   H21       1.0  0.99050  0.99140  0.12220  1.0000 0.1399031922
H   H22       1.0  0.89010  0.01120  0.99640  1.0000 0.1274286974
H   H23       1.0  0.68600  0.06290  0.02930  1.0000 0.1399031922
H   H24       1.0  0.78390  0.04280  0.15400  1.0000 0.1399031922
H   H25       1.0  0.15210  0.90850  0.34380  1.0000 0.1399031922
H   H26       1.0  0.26410  0.89260  0.46800  1.0000 0.1274286974
H   H27       1.0  0.42700  0.03140  0.63490  1.0000 0.1274286974
H   H28       1.0  0.55800  0.08690  0.73020  1.0000 0.1399031922
H   H29       1.0  0.79920  0.18130  0.85310  1.0000 0.1399031922
H   H30       1.0  0.80570  0.29730  0.85000  1.0000 0.1399031922
H   H31       1.0  0.63270  0.31050  0.92290  1.0000 0.121856592
H   H32       1.0  0.62860  0.19370  0.92890  1.0000 0.1274286974
H   H33       1.0  0.55580  0.53690  0.37470  1.0000 0.1274286974
H   H34       1.0  0.42360  0.59220  0.27910  1.0000 0.1399031922
H   H35       1.0  0.11740  0.49120  0.02100  1.0000 0.1274286974
H   H36       1.0  0.00830  0.47190  0.89740  1.0000 0.1399031922
H   H37       1.0  0.99050  0.50860  0.62220  1.0000 0.1399031922
H   H38       1.0  0.89010  0.48880  0.49640  1.0000 0.1274286974
H   H39       1.0  0.68600  0.43710  0.52930  1.0000 0.1399031922
H   H40       1.0  0.78390  0.45720  0.65400  1.0000 0.1399031922
H   H41       1.0  0.15210  0.59150  0.84380  1.0000 0.1399031922
H   H42       1.0  0.26410  0.60740  0.96800  1.0000 0.1274286974
H   H43       1.0  0.42700  0.46860  0.13490  1.0000 0.1274286974
H   H44       1.0  0.55800  0.41310  0.23020  1.0000 0.1399031922
H   H45       1.0  0.79920  0.31870  0.35310  1.0000 0.1399031922
H   H46       1.0  0.80570  0.20270  0.35000  1.0000 0.1399031922
H   H47       1.0  0.63270  0.18950  0.42290  1.0000 0.121856592
H   H48       1.0  0.62860  0.30630  0.42890  1.0000 0.1274286974
H   H49       1.0  0.44420  0.03690  0.12530  1.0000 0.1274286974
H   H50       1.0  0.57640  0.09220  0.22090  1.0000 0.1399031922
H   H51       1.0  0.88260  0.99120  0.47900  1.0000 0.1274286974
H   H52       1.0  0.99170  0.97190  0.60260  1.0000 0.1399031922
H   H53       1.0  0.00950  0.00860  0.87780  1.0000 0.1399031922
H   H54       1.0  0.10990  0.98880  0.00360  1.0000 0.1274286974
H   H55       1.0  0.31400  0.93710  0.97070  1.0000 0.1399031922
H   H56       1.0  0.21610  0.95720  0.84600  1.0000 0.1399031922
H   H57       1.0  0.84790  0.09150  0.65620  1.0000 0.1399031922
H   H58       1.0  0.73590  0.10740  0.53200  1.0000 0.1274286974
H   H59       1.0  0.57300  0.96860  0.36510  1.0000 0.1274286974
H   H60       1.0  0.44200  0.91310  0.26980  1.0000 0.1399031922
H   H61       1.0  0.20080  0.81870  0.14690  1.0000 0.1399031922
H   H62       1.0  0.19430  0.70270  0.15000  1.0000 0.1399031922
H   H63       1.0  0.36730  0.68950  0.07710  1.0000 0.121856592
H   H64       1.0  0.37140  0.80630  0.07110  1.0000 0.1274286974
C   C1        1.0  0.46980  0.47810  0.67430  1.0000 0.062194371
C   C2        1.0  0.54970  0.44450  0.73210  1.0000 0.062194371
C   C3        1.0  0.87270  0.48810  0.01430  1.0000 0.070235208
C   C4        1.0  0.93950  0.49940  0.08930  1.0000 0.0507352968
C   C5        1.0  0.07180  0.50660  0.39570  1.0000 0.062194371
C   C6        1.0  0.13270  0.51870  0.47200  1.0000 0.0786191517
C   C7        1.0  0.25110  0.54860  0.45230  1.0000 0.0386121174
C   C8        1.0  0.19230  0.53670  0.37720  1.0000 0.0507352968
C   C9        1.0  0.85600  0.43050  0.12060  1.0000 0.0507352968
C   C10       1.0  0.78880  0.42060  0.04540  1.0000 0.0386121174
C   C11       1.0  0.54780  0.51660  0.81610  1.0000 0.070235208
C   C12       1.0  0.46850  0.55010  0.75850  1.0000 0.062194371
C   C13       1.0  0.23590  0.70680  0.63200  1.0000 0.070235208
C   C14       1.0  0.23250  0.77720  0.63440  1.0000 0.070235208
C   C15       1.0  0.33220  0.78460  0.59180  1.0000 0.0315266134
C   C16       1.0  0.33520  0.71390  0.58840  1.0000 0.0386121174
C   C17       1.0  0.53020  0.97810  0.82570  1.0000 0.062194371
C   C18       1.0  0.45030  0.94450  0.76790  1.0000 0.062194371
C   C19       1.0  0.12730  0.98810  0.48570  1.0000 0.070235208
C   C20       1.0  0.06050  0.99940  0.41070  1.0000 0.0507352968
C   C21       1.0  0.92820  0.00660  0.10430  1.0000 0.062194371
C   C22       1.0  0.86730  0.01870  0.02800  1.0000 0.0786191517
C   C23       1.0  0.74890  0.04860  0.04770  1.0000 0.0386121174
C   C24       1.0  0.80770  0.03670  0.12280  1.0000 0.0507352968
C   C25       1.0  0.14400  0.93050  0.37940  1.0000 0.0507352968
C   C26       1.0  0.21120  0.92060  0.45460  1.0000 0.0386121174
C   C27       1.0  0.45220  0.01660  0.68390  1.0000 0.070235208
C   C28       1.0  0.53150  0.05010  0.74150  1.0000 0.062194371
C   C29       1.0  0.76410  0.20680  0.86800  1.0000 0.070235208
C   C30       1.0  0.76750  0.27720  0.86560  1.0000 0.070235208
C   C31       1.0  0.66780  0.28460  0.90820  1.0000 0.0315266134
C   C32       1.0  0.66480  0.21390  0.91160  1.0000 0.0386121174
C   C33       1.0  0.53020  0.52190  0.32570  1.0000 0.062194371
C   C34       1.0  0.45030  0.55550  0.26790  1.0000 0.062194371
C   C35       1.0  0.12730  0.51190  0.98570  1.0000 0.070235208
C   C36       1.0  0.06050  0.50060  0.91070  1.0000 0.0507352968
C   C37       1.0  0.92820  0.49340  0.60430  1.0000 0.062194371
C   C38       1.0  0.86730  0.48130  0.52800  1.0000 0.0786191517
C   C39       1.0  0.74890  0.45140  0.54770  1.0000 0.0386121174
C   C40       1.0  0.80770  0.46330  0.62280  1.0000 0.0507352968
C   C41       1.0  0.14400  0.56950  0.87940  1.0000 0.0507352968
C   C42       1.0  0.21120  0.57940  0.95460  1.0000 0.0386121174
C   C43       1.0  0.45220  0.48340  0.18390  1.0000 0.070235208
C   C44       1.0  0.53150  0.44990  0.24150  1.0000 0.062194371
C   C45       1.0  0.76410  0.29320  0.36800  1.0000 0.070235208
C   C46       1.0  0.76750  0.22280  0.36560  1.0000 0.070235208
C   C47       1.0  0.66780  0.21540  0.40820  1.0000 0.0315266134
C   C48       1.0  0.66480  0.28610  0.41160  1.0000 0.0386121174
C   C49       1.0  0.46980  0.02190  0.17430  1.0000 0.062194371
C   C50       1.0  0.54970  0.05550  0.23210  1.0000 0.062194371
C   C51       1.0  0.87270  0.01190  0.51430  1.0000 0.070235208
C   C52       1.0  0.93950  0.00060  0.58930  1.0000 0.0507352968
C   C53       1.0  0.07180  0.99340  0.89570  1.0000 0.062194371
C   C54       1.0  0.13270  0.98130  0.97200  1.0000 0.0786191517
C   C55       1.0  0.25110  0.95140  0.95230  1.0000 0.0386121174
C   C56       1.0  0.19230  0.96330  0.87720  1.0000 0.0507352968
C   C57       1.0  0.85600  0.06950  0.62060  1.0000 0.0507352968
C   C58       1.0  0.78880  0.07940  0.54540  1.0000 0.0386121174
C   C59       1.0  0.54780  0.98340  0.31610  1.0000 0.070235208
C   C60       1.0  0.46850  0.94990  0.25850  1.0000 0.062194371
C   C61       1.0  0.23590  0.79320  0.13200  1.0000 0.070235208
C   C62       1.0  0.23250  0.72280  0.13440  1.0000 0.070235208
C   C63       1.0  0.33220  0.71540  0.09180  1.0000 0.0315266134
C   C64       1.0  0.33520  0.78610  0.08840  1.0000 0.0386121174
N   N1        1.0  0.42860  0.53110  0.68670  1.0000 -0.1487533083
N   N2        1.0  0.58920  0.46390  0.80370  1.0000 -0.1419689239
N   N3        1.0  0.79630  0.44960  0.99080  1.0000 -0.1419689239
N   N4        1.0  0.93170  0.47090  0.14290  1.0000 -0.1231400805
N   N5        1.0  0.10040  0.51630  0.34770  1.0000 -0.130763807
N   N6        1.0  0.22150  0.54030  0.50070  1.0000 -0.1487533083
N   N7        1.0  0.28710  0.67370  0.60940  1.0000 -0.1487533083
N   N8        1.0  0.28120  0.81750  0.61560  1.0000 -0.1419689239
N   N9        1.0  0.57140  0.03110  0.81330  1.0000 -0.1487533083
N   N10       1.0  0.41080  0.96390  0.69630  1.0000 -0.1419689239
N   N11       1.0  0.20370  0.94960  0.50920  1.0000 -0.1419689239
N   N12       1.0  0.06830  0.97090  0.35710  1.0000 -0.1231400805
N   N13       1.0  0.89960  0.01630  0.15230  1.0000 -0.130763807
N   N14       1.0  0.77850  0.04030  0.99930  1.0000 -0.1487533083
N   N15       1.0  0.71290  0.17370  0.89060  1.0000 -0.1487533083
N   N16       1.0  0.71880  0.31750  0.88440  1.0000 -0.1419689239
N   N17       1.0  0.57140  0.46890  0.31330  1.0000 -0.1487533083
N   N18       1.0  0.41080  0.53610  0.19630  1.0000 -0.1419689239
N   N19       1.0  0.20370  0.55040  0.00920  1.0000 -0.1419689239
N   N20       1.0  0.06830  0.52910  0.85710  1.0000 -0.1231400805
N   N21       1.0  0.89960  0.48370  0.65230  1.0000 -0.130763807
N   N22       1.0  0.77850  0.45970  0.49930  1.0000 -0.1487533083
N   N23       1.0  0.71290  0.32630  0.39060  1.0000 -0.1487533083
N   N24       1.0  0.71880  0.18250  0.38440  1.0000 -0.1419689239
N   N25       1.0  0.42860  0.96890  0.18670  1.0000 -0.1487533083
N   N26       1.0  0.58920  0.03610  0.30370  1.0000 -0.1419689239
N   N27       1.0  0.79630  0.05040  0.49080  1.0000 -0.1419689239
N   N28       1.0  0.93170  0.02910  0.64290  1.0000 -0.1231400805
N   N29       1.0  0.10040  0.98370  0.84770  1.0000 -0.130763807
N   N30       1.0  0.22150  0.95970  0.00070  1.0000 -0.1487533083
N   N31       1.0  0.28710  0.82630  0.10940  1.0000 -0.1487533083
N   N32       1.0  0.28120  0.68250  0.11560  1.0000 -0.1419689239
O   O1        1.0  0.28420  0.25007  0.63480  1.0000 -0.9419751546
O   O2        1.0  0.25510  0.24542  0.50140  1.0000 -0.8996162644
O   O3        1.0  0.13450  0.17643  0.50870  1.0000 -0.8412396227
O   O4        1.0  0.09620  0.25569  0.60450  1.0000 -0.9419751546
O   O5        1.0  0.14030  0.32352  0.50470  1.0000 -0.8323994881
O   O6        1.0  0.99520  0.25352  0.45980  1.0000 -0.8996162644
O   O7        1.0  0.10010  0.40525  0.58710  1.0000 -0.8696431896
O   O8        1.0  0.23980  0.32818  0.71970  1.0000 -0.9478280401
O   O9        1.0  0.30590  0.36176  0.85690  1.0000 -0.8500433048
O   O10       1.0  0.19480  0.26272  0.81830  1.0000 -0.8604368916
O   O11       1.0  0.23602  0.18557  0.72632  1.0000 -0.9478280401
O   O12       1.0  0.38400  0.25645  0.84750  1.0000 -0.8696431896
O   O13       1.0  0.29730  0.15436  0.86400  1.0000 -0.9245713582
O   O14       1.0  0.44080  0.18312  0.76840  1.0000 -0.8604368916
O   O15       1.0  0.44310  0.31800  0.76270  1.0000 -0.8604368916
O   O16       1.0  0.40860  0.17672  0.62240  1.0000 -0.8604368916
O   O17       1.0  0.41310  0.31271  0.61880  1.0000 -0.8500433048
O   O18       1.0  0.56790  0.24410  0.73270  1.0000 -0.6685352406
O   O19       1.0  0.33700  0.07403  0.77440  1.0000 -0.8412396227
O   O20       1.0  0.15360  0.07926  0.74400  1.0000 -0.8798073312
O   O21       1.0  0.26510  0.10173  0.62370  1.0000 -0.8798073312
O   O22       1.0  0.08920  0.10640  0.59530  1.0000 -0.8696431896
O   O23       1.0  0.20090  0.98833  0.66450  1.0000 -0.683127307
O   O24       1.0  0.48810  0.12660  0.90390  1.0000 -0.6563969037
O   O25       1.0  0.04080  0.19690  0.70240  1.0000 -0.8604368916
O   O26       1.0  0.04730  0.33018  0.69820  1.0000 -0.8500433048
O   O27       1.0  0.93090  0.19200  0.54580  1.0000 -0.8412396227
O   O28       1.0  0.93650  0.32816  0.54210  1.0000 -0.8412396227
O   O29       1.0  0.86540  0.26730  0.62350  1.0000 -0.6508880934
O   O30       1.0  0.11010  0.13990  0.84060  1.0000 -0.6409921205
O   O31       1.0  0.16900  0.44250  0.73630  1.0000 -0.8412396227
O   O32       1.0  0.11950  0.39130  0.83460  1.0000 -0.6285609534
O   O33       1.0  0.34920  0.43575  0.76470  1.0000 -0.8323994881
O   O34       1.0  0.49940  0.38290  0.89560  1.0000 -0.6409921205
O   O35       1.0  0.27620  0.39902  0.61510  1.0000 -0.8798073312
O   O36       1.0  0.22020  0.52080  0.65120  1.0000 -0.6920839032
O   O37       1.0  0.95860  0.39670  0.43730  1.0000 -0.6240410438
O   O38       1.0  0.94690  0.11292  0.44490  1.0000 -0.6285609534
O   O39       1.0  0.29680  0.38714  0.49300  1.0000 -0.5927016965
O   O40       1.0  0.28350  0.10046  0.50090  1.0000 -0.6064848086
O   O41       1.0  0.71580  0.75007  0.86520  1.0000 -0.9419751546
O   O42       1.0  0.74490  0.74542  0.99860  1.0000 -0.8996162644
O   O43       1.0  0.86550  0.67643  0.99130  1.0000 -0.8412396227
O   O44       1.0  0.90380  0.75569  0.89550  1.0000 -0.9419751546
O   O45       1.0  0.85970  0.82352  0.99530  1.0000 -0.8323994881
O   O46       1.0  0.00480  0.75352  0.04020  1.0000 -0.8996162644
O   O47       1.0  0.89990  0.90525  0.91290  1.0000 -0.8696431896
O   O48       1.0  0.76020  0.82818  0.78030  1.0000 -0.9478280401
O   O49       1.0  0.69410  0.86176  0.64310  1.0000 -0.8500433048
O   O50       1.0  0.80520  0.76272  0.68170  1.0000 -0.8604368916
O   O51       1.0  0.76398  0.68557  0.77368  1.0000 -0.9478280401
O   O52       1.0  0.61600  0.75645  0.65250  1.0000 -0.8696431896
O   O53       1.0  0.70270  0.65436  0.63600  1.0000 -0.9245713582
O   O54       1.0  0.55920  0.68312  0.73160  1.0000 -0.8604368916
O   O55       1.0  0.55690  0.81800  0.73730  1.0000 -0.8604368916
O   O56       1.0  0.59140  0.67672  0.87760  1.0000 -0.8604368916
O   O57       1.0  0.58690  0.81271  0.88120  1.0000 -0.8500433048
O   O58       1.0  0.43210  0.74410  0.76730  1.0000 -0.6685352406
O   O59       1.0  0.66300  0.57403  0.72560  1.0000 -0.8412396227
O   O60       1.0  0.84640  0.57926  0.75600  1.0000 -0.8798073312
O   O61       1.0  0.73490  0.60173  0.87630  1.0000 -0.8798073312
O   O62       1.0  0.91080  0.60640  0.90470  1.0000 -0.8696431896
O   O63       1.0  0.79910  0.48833  0.83550  1.0000 -0.683127307
O   O64       1.0  0.51190  0.62660  0.59610  1.0000 -0.6563969037
O   O65       1.0  0.95920  0.69690  0.79760  1.0000 -0.8604368916
O   O66       1.0  0.95270  0.83018  0.80180  1.0000 -0.8500433048
O   O67       1.0  0.06910  0.69200  0.95420  1.0000 -0.8500433048
O   O68       1.0  0.06350  0.82816  0.95790  1.0000 -0.8412396227
O   O69       1.0  0.13460  0.76730  0.87650  1.0000 -0.6508880934
O   O70       1.0  0.88990  0.63990  0.65940  1.0000 -0.6409921205
O   O71       1.0  0.83100  0.94250  0.76370  1.0000 -0.8412396227
O   O72       1.0  0.88050  0.89130  0.66540  1.0000 -0.6285609534
O   O73       1.0  0.65080  0.93575  0.73530  1.0000 -0.8323994881
O   O74       1.0  0.50060  0.88290  0.60440  1.0000 -0.6409921205
O   O75       1.0  0.72380  0.89902  0.88490  1.0000 -0.8798073312
O   O76       1.0  0.77980  0.02080  0.84880  1.0000 -0.6920839032
O   O77       1.0  0.04140  0.89670  0.06270  1.0000 -0.6240410438
O   O78       1.0  0.05310  0.61292  0.05510  1.0000 -0.6285609534
O   O79       1.0  0.70320  0.88714  0.00700  1.0000 -0.5927016965
O   O80       1.0  0.71650  0.60046  0.99910  1.0000 -0.6064848086
O   O81       1.0  0.71580  0.74993  0.36520  1.0000 -0.9419751546
O   O82       1.0  0.74490  0.75458  0.49860  1.0000 -0.8996162644
O   O83       1.0  0.86550  0.82357  0.49130  1.0000 -0.8412396227
O   O84       1.0  0.90380  0.74431  0.39550  1.0000 -0.9419751546
O   O85       1.0  0.85970  0.67648  0.49530  1.0000 -0.8323994881
O   O86       1.0  0.00480  0.74648  0.54020  1.0000 -0.8996162644
O   O87       1.0  0.89990  0.59475  0.41290  1.0000 -0.8696431896
O   O88       1.0  0.76020  0.67182  0.28030  1.0000 -0.9478280401
O   O89       1.0  0.69410  0.63824  0.14310  1.0000 -0.8500433048
O   O90       1.0  0.80520  0.73728  0.18170  1.0000 -0.8604368916
O   O91       1.0  0.76398  0.81443  0.27368  1.0000 -0.9478280401
O   O92       1.0  0.61600  0.74355  0.15250  1.0000 -0.8696431896
O   O93       1.0  0.70270  0.84564  0.13600  1.0000 -0.9245713582
O   O94       1.0  0.55920  0.81688  0.23160  1.0000 -0.8604368916
O   O95       1.0  0.55690  0.68200  0.23730  1.0000 -0.8604368916
O   O96       1.0  0.59140  0.82328  0.37760  1.0000 -0.8604368916
O   O97       1.0  0.58690  0.68729  0.38120  1.0000 -0.8500433048
O   O98       1.0  0.43210  0.75590  0.26730  1.0000 -0.6685352406
O   O99       1.0  0.66300  0.92597  0.22560  1.0000 -0.8412396227
O   O100      1.0  0.84640  0.92074  0.25600  1.0000 -0.8798073312
O   O101      1.0  0.73490  0.89827  0.37630  1.0000 -0.8798073312
O   O102      1.0  0.91080  0.89360  0.40470  1.0000 -0.8696431896
O   O103      1.0  0.79910  0.01167  0.33550  1.0000 -0.683127307
O   O104      1.0  0.51190  0.87340  0.09610  1.0000 -0.6563969037
O   O105      1.0  0.95920  0.80310  0.29760  1.0000 -0.8604368916
O   O106      1.0  0.95270  0.66982  0.30180  1.0000 -0.8500433048
O   O107      1.0  0.06910  0.80800  0.45420  1.0000 -0.8500433048
O   O108      1.0  0.06350  0.67184  0.45790  1.0000 -0.8412396227
O   O109      1.0  0.13460  0.73270  0.37650  1.0000 -0.6508880934
O   O110      1.0  0.88990  0.86010  0.15940  1.0000 -0.6409921205
O   O111      1.0  0.83100  0.55750  0.26370  1.0000 -0.8412396227
O   O112      1.0  0.88050  0.60870  0.16540  1.0000 -0.6285609534
O   O113      1.0  0.65080  0.56425  0.23530  1.0000 -0.8323994881
O   O114      1.0  0.50060  0.61710  0.10440  1.0000 -0.6409921205
O   O115      1.0  0.72380  0.60098  0.38490  1.0000 -0.8798073312
O   O116      1.0  0.77980  0.47920  0.34880  1.0000 -0.6920839032
O   O117      1.0  0.04140  0.60330  0.56270  1.0000 -0.6240410438
O   O118      1.0  0.05310  0.88708  0.55510  1.0000 -0.6285609534
O   O119      1.0  0.70320  0.61286  0.50700  1.0000 -0.5927016965
O   O120      1.0  0.71650  0.89954  0.49910  1.0000 -0.6064848086
O   O121      1.0  0.28420  0.24993  0.13480  1.0000 -0.9419751546
O   O122      1.0  0.25510  0.25458  0.00140  1.0000 -0.8996162644
O   O123      1.0  0.13450  0.32357  0.00870  1.0000 -0.8412396227
O   O124      1.0  0.09620  0.24431  0.10450  1.0000 -0.9419751546
O   O125      1.0  0.14030  0.17648  0.00470  1.0000 -0.8323994881
O   O126      1.0  0.99520  0.24648  0.95980  1.0000 -0.8996162644
O   O127      1.0  0.10010  0.09475  0.08710  1.0000 -0.8696431896
O   O128      1.0  0.23980  0.17182  0.21970  1.0000 -0.9478280401
O   O129      1.0  0.30590  0.13824  0.35690  1.0000 -0.8500433048
O   O130      1.0  0.19480  0.23728  0.31830  1.0000 -0.8604368916
O   O131      1.0  0.23602  0.31443  0.22632  1.0000 -0.9478280401
O   O132      1.0  0.38400  0.24355  0.34750  1.0000 -0.8696431896
O   O133      1.0  0.29730  0.34564  0.36400  1.0000 -0.9245713582
O   O134      1.0  0.44080  0.31688  0.26840  1.0000 -0.8604368916
O   O135      1.0  0.44310  0.18200  0.26270  1.0000 -0.8604368916
O   O136      1.0  0.40860  0.32328  0.12240  1.0000 -0.8604368916
O   O137      1.0  0.41310  0.18729  0.11880  1.0000 -0.8500433048
O   O138      1.0  0.56790  0.25590  0.23270  1.0000 -0.6685352406
O   O139      1.0  0.33700  0.42597  0.27440  1.0000 -0.8412396227
O   O140      1.0  0.15360  0.42074  0.24400  1.0000 -0.8798073312
O   O141      1.0  0.26510  0.39827  0.12370  1.0000 -0.8798073312
O   O142      1.0  0.08920  0.39360  0.09530  1.0000 -0.8696431896
O   O143      1.0  0.20090  0.51167  0.16450  1.0000 -0.683127307
O   O144      1.0  0.48810  0.37340  0.40390  1.0000 -0.6563969037
O   O145      1.0  0.04080  0.30310  0.20240  1.0000 -0.8604368916
O   O146      1.0  0.04730  0.16982  0.19820  1.0000 -0.8500433048
O   O147      1.0  0.93090  0.30800  0.04580  1.0000 -0.8412396227
O   O148      1.0  0.93650  0.17184  0.04210  1.0000 -0.8412396227
O   O149      1.0  0.86540  0.23270  0.12350  1.0000 -0.6508880934
O   O150      1.0  0.11010  0.36010  0.34060  1.0000 -0.6409921205
O   O151      1.0  0.16900  0.05750  0.23630  1.0000 -0.8412396227
O   O152      1.0  0.11950  0.10870  0.33460  1.0000 -0.6285609534
O   O153      1.0  0.34920  0.06425  0.26470  1.0000 -0.8323994881
O   O154      1.0  0.49940  0.11710  0.39560  1.0000 -0.6409921205
O   O155      1.0  0.27620  0.10098  0.11510  1.0000 -0.8798073312
O   O156      1.0  0.22020  0.97920  0.15120  1.0000 -0.6920839032
O   O157      1.0  0.95860  0.10330  0.93730  1.0000 -0.6240410438
O   O158      1.0  0.94690  0.38708  0.94490  1.0000 -0.6285609534
O   O159      1.0  0.29680  0.11286  0.99300  1.0000 -0.5927016965
O   O160      1.0  0.28350  0.39954  0.00090  1.0000 -0.6064848086
