# DDEC6 charges by PACMAN v1.1 (https://github.com/mtap-research/PACMAN-charge/)
data_2020[CoRu][sql]2[FSR]1
_chemical_formula_sum              "Co2 H80 Ru4 C128 N24 O16"
_cell_length_a       8.7487
_cell_length_b       16.6206
_cell_length_c       26.8757
_cell_angle_alpha    90
_cell_angle_beta     90
_cell_angle_gamma    90

_symmetry_space_group_name_H-M    "P 1"
_symmetry_Int_Tables_number       1

loop_
  _symmetry_equiv_pos_as_xyz
  'x, y, z'

loop_
  _atom_site_type_symbol
  _atom_site_label
  _atom_site_symmetry_multiplicity
  _atom_site_fract_x
  _atom_site_fract_y
  _atom_site_fract_z
  _atom_site_occupancy
  _atom_site_charge
Co  Co1       1.0  0.00000  0.83826  0.00000  1.0000 0.991130161
Co  Co2       1.0  0.00000  0.33826  0.50000  1.0000 0.991130161
H   H1        1.0  0.56524  0.56002  0.44939  1.0000 0.1495631491
H   H2        1.0  0.98406  0.46169  0.43554  1.0000 0.139914658
H   H3        1.0  0.37659  0.62387  0.40453  1.0000 0.1495631491
H   H4        1.0  0.20421  0.69754  0.35649  1.0000 0.1102184609
H   H5        1.0  0.27193  0.73488  0.27469  1.0000 0.1180742269
H   H6        1.0  0.50719  0.68785  0.24296  1.0000 0.1043710289
H   H7        1.0  0.18227  0.44173  0.38073  1.0000 0.1574621079
H   H8        1.0  0.36492  0.42921  0.31929  1.0000 0.1102184609
H   H9        1.0  0.33693  0.49263  0.24335  1.0000 0.1180742269
H   H10       1.0  0.11457  0.56730  0.22788  1.0000 0.1102184609
H   H11       1.0  0.87765  0.71845  0.37561  1.0000 0.1180742269
H   H12       1.0  0.99571  0.84401  0.38620  1.0000 0.1180742269
H   H13       1.0  0.06396  0.91873  0.31522  1.0000 0.1102184609
H   H14       1.0  0.01690  0.86472  0.23571  1.0000 0.1180742269
H   H15       1.0  0.96488  0.80219  0.16227  1.0000 0.139914658
H   H16       1.0  0.76575  0.60519  0.10156  1.0000 0.139914658
H   H17       1.0  0.66228  0.47952  0.12392  1.0000 0.139914658
H   H18       1.0  0.56407  0.35996  0.15254  1.0000 0.1180742269
H   H19       1.0  0.56302  0.33347  0.23755  1.0000 0.1180742269
H   H20       1.0  0.66229  0.42818  0.29240  1.0000 0.1102184609
H   H21       1.0  0.43476  0.56002  0.55061  1.0000 0.1495631491
H   H22       1.0  0.01594  0.46169  0.56446  1.0000 0.139914658
H   H23       1.0  0.62341  0.62387  0.59547  1.0000 0.1495631491
H   H24       1.0  0.79579  0.69754  0.64351  1.0000 0.1102184609
H   H25       1.0  0.72807  0.73488  0.72531  1.0000 0.1180742269
H   H26       1.0  0.49281  0.68785  0.75704  1.0000 0.1043710289
H   H27       1.0  0.81773  0.44173  0.61927  1.0000 0.1574621079
H   H28       1.0  0.63508  0.42921  0.68071  1.0000 0.1102184609
H   H29       1.0  0.66307  0.49263  0.75665  1.0000 0.1180742269
H   H30       1.0  0.88543  0.56730  0.77212  1.0000 0.1102184609
H   H31       1.0  0.12235  0.71845  0.62439  1.0000 0.1180742269
H   H32       1.0  0.00429  0.84401  0.61380  1.0000 0.1180742269
H   H33       1.0  0.93604  0.91873  0.68478  1.0000 0.1102184609
H   H34       1.0  0.98310  0.86472  0.76429  1.0000 0.1180742269
H   H35       1.0  0.03512  0.80219  0.83773  1.0000 0.139914658
H   H36       1.0  0.23425  0.60519  0.89844  1.0000 0.139914658
H   H37       1.0  0.33772  0.47952  0.87608  1.0000 0.139914658
H   H38       1.0  0.43593  0.35996  0.84746  1.0000 0.1180742269
H   H39       1.0  0.43698  0.33347  0.76245  1.0000 0.1180742269
H   H40       1.0  0.33771  0.42818  0.70760  1.0000 0.1102184609
H   H41       1.0  0.56524  0.06002  0.05061  1.0000 0.1495631491
H   H42       1.0  0.98406  0.96169  0.06446  1.0000 0.139914658
H   H43       1.0  0.37659  0.12387  0.09547  1.0000 0.1495631491
H   H44       1.0  0.20421  0.19754  0.14351  1.0000 0.1102184609
H   H45       1.0  0.27193  0.23488  0.22531  1.0000 0.1180742269
H   H46       1.0  0.50719  0.18785  0.25704  1.0000 0.1043710289
H   H47       1.0  0.18227  0.94173  0.11927  1.0000 0.1574621079
H   H48       1.0  0.36492  0.92921  0.18071  1.0000 0.1102184609
H   H49       1.0  0.33693  0.99263  0.25665  1.0000 0.1180742269
H   H50       1.0  0.11457  0.06730  0.27212  1.0000 0.1102184609
H   H51       1.0  0.87765  0.21845  0.12439  1.0000 0.1180742269
H   H52       1.0  0.99571  0.34401  0.11380  1.0000 0.1180742269
H   H53       1.0  0.06396  0.41873  0.18478  1.0000 0.1102184609
H   H54       1.0  0.01690  0.36472  0.26429  1.0000 0.1180742269
H   H55       1.0  0.96488  0.30219  0.33773  1.0000 0.139914658
H   H56       1.0  0.76575  0.10519  0.39844  1.0000 0.139914658
H   H57       1.0  0.66228  0.97952  0.37608  1.0000 0.139914658
H   H58       1.0  0.56407  0.85996  0.34746  1.0000 0.1180742269
H   H59       1.0  0.56302  0.83347  0.26245  1.0000 0.1180742269
H   H60       1.0  0.66229  0.92818  0.20760  1.0000 0.1102184609
H   H61       1.0  0.43476  0.06002  0.94939  1.0000 0.1495631491
H   H62       1.0  0.01594  0.96169  0.93554  1.0000 0.139914658
H   H63       1.0  0.62341  0.12387  0.90453  1.0000 0.1495631491
H   H64       1.0  0.79579  0.19754  0.85649  1.0000 0.1102184609
H   H65       1.0  0.72807  0.23488  0.77469  1.0000 0.1180742269
H   H66       1.0  0.49281  0.18785  0.74296  1.0000 0.1043710289
H   H67       1.0  0.81773  0.94173  0.88073  1.0000 0.1574621079
H   H68       1.0  0.63508  0.92921  0.81929  1.0000 0.1102184609
H   H69       1.0  0.66307  0.99263  0.74335  1.0000 0.1180742269
H   H70       1.0  0.88543  0.06730  0.72788  1.0000 0.1102184609
H   H71       1.0  0.12235  0.21845  0.87561  1.0000 0.1180742269
H   H72       1.0  0.00429  0.34401  0.88620  1.0000 0.1180742269
H   H73       1.0  0.93604  0.41873  0.81522  1.0000 0.1102184609
H   H74       1.0  0.98310  0.36472  0.73571  1.0000 0.1180742269
H   H75       1.0  0.03512  0.30219  0.66227  1.0000 0.139914658
H   H76       1.0  0.23425  0.10519  0.60156  1.0000 0.139914658
H   H77       1.0  0.33772  0.97952  0.62392  1.0000 0.139914658
H   H78       1.0  0.43593  0.85996  0.65254  1.0000 0.1180742269
H   H79       1.0  0.43698  0.83347  0.73755  1.0000 0.1180742269
H   H80       1.0  0.33771  0.92818  0.79240  1.0000 0.1102184609
Ru  Ru1       1.0  0.80325  0.60324  0.28568  1.0000 0.4101838795
Ru  Ru2       1.0  0.19675  0.60324  0.71432  1.0000 0.4101838795
Ru  Ru3       1.0  0.80325  0.10324  0.21432  1.0000 0.4101838795
Ru  Ru4       1.0  0.19675  0.10324  0.78568  1.0000 0.4101838795
C   C1        1.0  0.65980  0.57370  0.38170  1.0000 0.139914658
C   C2        1.0  0.65300  0.54830  0.42990  1.0000 -0.1687699976
C   C3        1.0  0.77160  0.50600  0.45040  1.0000 0.0428739664
C   C4        1.0  0.75980  0.47660  0.50380  1.0000 0.5538797406
C   C5        1.0  0.90070  0.49080  0.42180  1.0000 -0.1813149574
C   C6        1.0  0.90770  0.51820  0.37320  1.0000 0.1495631491
C   C7        1.0  0.54060  0.61950  0.35270  1.0000 0.139914658
C   C8        1.0  0.40290  0.63950  0.37160  1.0000 -0.1536524597
C   C9        1.0  0.30060  0.68260  0.34310  1.0000 -0.0535651456
C   C10       1.0  0.33930  0.70400  0.29480  1.0000 -0.1687699976
C   C11       1.0  0.48230  0.67820  0.27680  1.0000 0.0138985737
C   C12       1.0  0.03470  0.51060  0.33850  1.0000 0.139914658
C   C13       1.0  0.16810  0.46640  0.34920  1.0000 -0.1611829129
C   C14       1.0  0.27560  0.46010  0.31300  1.0000 -0.0572725016
C   C15       1.0  0.25950  0.49690  0.26800  1.0000 -0.1611829129
C   C16       1.0  0.12690  0.54070  0.25890  1.0000 0.0229004116
C   C17       1.0  0.91070  0.74820  0.34740  1.0000 0.0138985737
C   C18       1.0  0.97780  0.82320  0.35380  1.0000 -0.1611829129
C   C19       1.0  0.01820  0.86720  0.31180  1.0000 -0.0572725016
C   C20       1.0  0.99120  0.83520  0.26480  1.0000 -0.1813149574
C   C21       1.0  0.92640  0.75980  0.26140  1.0000 0.1495631491
C   C22       1.0  0.89190  0.72280  0.21250  1.0000 0.1180742269
C   C23       1.0  0.91460  0.75190  0.16610  1.0000 -0.1945354315
C   C24       1.0  0.86710  0.71080  0.12410  1.0000 0.0586588261
C   C25       1.0  0.88740  0.74050  0.07180  1.0000 0.5418103215
C   C26       1.0  0.79970  0.63470  0.12970  1.0000 -0.2086953209
C   C27       1.0  0.78360  0.60270  0.17870  1.0000 0.1495631491
C   C28       1.0  0.71880  0.52560  0.19290  1.0000 0.1180742269
C   C29       1.0  0.66080  0.46830  0.15860  1.0000 -0.1813149574
C   C30       1.0  0.60390  0.39840  0.17530  1.0000 -0.0572725016
C   C31       1.0  0.60340  0.38270  0.22520  1.0000 -0.1687699976
C   C32       1.0  0.66300  0.43970  0.25780  1.0000 0.0229004116
C   C33       1.0  0.34020  0.57370  0.61830  1.0000 0.139914658
C   C34       1.0  0.34700  0.54830  0.57010  1.0000 -0.1687699976
C   C35       1.0  0.22840  0.50600  0.54960  1.0000 0.0428739664
C   C36       1.0  0.24020  0.47660  0.49620  1.0000 0.5538797406
C   C37       1.0  0.09930  0.49080  0.57820  1.0000 -0.1813149574
C   C38       1.0  0.09230  0.51820  0.62680  1.0000 0.1495631491
C   C39       1.0  0.45940  0.61950  0.64730  1.0000 0.139914658
C   C40       1.0  0.59710  0.63950  0.62840  1.0000 -0.1536524597
C   C41       1.0  0.69940  0.68260  0.65690  1.0000 -0.0535651456
C   C42       1.0  0.66070  0.70400  0.70520  1.0000 -0.1687699976
C   C43       1.0  0.51770  0.67820  0.72320  1.0000 0.0138985737
C   C44       1.0  0.96530  0.51060  0.66150  1.0000 0.139914658
C   C45       1.0  0.83190  0.46640  0.65080  1.0000 -0.1536524597
C   C46       1.0  0.72440  0.46010  0.68700  1.0000 -0.0535651456
C   C47       1.0  0.74050  0.49690  0.73200  1.0000 -0.1611829129
C   C48       1.0  0.87310  0.54070  0.74110  1.0000 0.0229004116
C   C49       1.0  0.08930  0.74820  0.65260  1.0000 0.0138985737
C   C50       1.0  0.02220  0.82320  0.64620  1.0000 -0.1611829129
C   C51       1.0  0.98180  0.86720  0.68820  1.0000 -0.0572725016
C   C52       1.0  0.00880  0.83520  0.73520  1.0000 -0.1813149574
C   C53       1.0  0.07360  0.75980  0.73860  1.0000 0.1495631491
C   C54       1.0  0.10810  0.72280  0.78750  1.0000 0.1180742269
C   C55       1.0  0.08540  0.75190  0.83390  1.0000 -0.1945354315
C   C56       1.0  0.13290  0.71080  0.87590  1.0000 0.0586588261
C   C57       1.0  0.11260  0.74050  0.92820  1.0000 0.5418103215
C   C58       1.0  0.20030  0.63470  0.87030  1.0000 -0.2086953209
C   C59       1.0  0.21640  0.60270  0.82130  1.0000 0.1495631491
C   C60       1.0  0.28120  0.52560  0.80710  1.0000 0.1180742269
C   C61       1.0  0.33920  0.46830  0.84140  1.0000 -0.1813149574
C   C62       1.0  0.39610  0.39840  0.82470  1.0000 -0.0572725016
C   C63       1.0  0.39660  0.38270  0.77480  1.0000 -0.1687699976
C   C64       1.0  0.33700  0.43970  0.74220  1.0000 0.0229004116
C   C65       1.0  0.65980  0.07370  0.11830  1.0000 0.139914658
C   C66       1.0  0.65300  0.04830  0.07010  1.0000 -0.1687699976
C   C67       1.0  0.77160  0.00600  0.04960  1.0000 0.0428739664
C   C68       1.0  0.75980  0.97660  0.99620  1.0000 0.5538797406
C   C69       1.0  0.90070  0.99080  0.07820  1.0000 -0.1813149574
C   C70       1.0  0.90770  0.01820  0.12680  1.0000 0.1495631491
C   C71       1.0  0.54060  0.11950  0.14730  1.0000 0.139914658
C   C72       1.0  0.40290  0.13950  0.12840  1.0000 -0.1536524597
C   C73       1.0  0.30060  0.18260  0.15690  1.0000 -0.0535651456
C   C74       1.0  0.33930  0.20400  0.20520  1.0000 -0.1687699976
C   C75       1.0  0.48230  0.17820  0.22320  1.0000 0.0138985737
C   C76       1.0  0.03470  0.01060  0.16150  1.0000 0.139914658
C   C77       1.0  0.16810  0.96640  0.15080  1.0000 -0.1611829129
C   C78       1.0  0.27560  0.96010  0.18700  1.0000 -0.0572725016
C   C79       1.0  0.25950  0.99690  0.23200  1.0000 -0.1611829129
C   C80       1.0  0.12690  0.04070  0.24110  1.0000 0.0229004116
C   C81       1.0  0.91070  0.24820  0.15260  1.0000 0.0138985737
C   C82       1.0  0.97780  0.32320  0.14620  1.0000 -0.1611829129
C   C83       1.0  0.01820  0.36720  0.18820  1.0000 -0.0572725016
C   C84       1.0  0.99120  0.33520  0.23520  1.0000 -0.1813149574
C   C85       1.0  0.92640  0.25980  0.23860  1.0000 0.1495631491
C   C86       1.0  0.89190  0.22280  0.28750  1.0000 0.1180742269
C   C87       1.0  0.91460  0.25190  0.33390  1.0000 -0.1945354315
C   C88       1.0  0.86710  0.21080  0.37590  1.0000 0.0586588261
C   C89       1.0  0.88740  0.24050  0.42820  1.0000 0.5418103215
C   C90       1.0  0.79970  0.13470  0.37030  1.0000 -0.2086953209
C   C91       1.0  0.78360  0.10270  0.32130  1.0000 0.1495631491
C   C92       1.0  0.71880  0.02560  0.30710  1.0000 0.1180742269
C   C93       1.0  0.66080  0.96830  0.34140  1.0000 -0.1813149574
C   C94       1.0  0.60390  0.89840  0.32470  1.0000 -0.0572725016
C   C95       1.0  0.60340  0.88270  0.27480  1.0000 -0.1687699976
C   C96       1.0  0.66300  0.93970  0.24220  1.0000 0.0229004116
C   C97       1.0  0.34020  0.07370  0.88170  1.0000 0.139914658
C   C98       1.0  0.34700  0.04830  0.92990  1.0000 -0.1687699976
C   C99       1.0  0.22840  0.00600  0.95040  1.0000 0.0428739664
C   C100      1.0  0.24020  0.97660  0.00380  1.0000 0.5538797406
C   C101      1.0  0.09930  0.99080  0.92180  1.0000 -0.1813149574
C   C102      1.0  0.09230  0.01820  0.87320  1.0000 0.1495631491
C   C103      1.0  0.45940  0.11950  0.85270  1.0000 0.139914658
C   C104      1.0  0.59710  0.13950  0.87160  1.0000 -0.1536524597
C   C105      1.0  0.69940  0.18260  0.84310  1.0000 -0.0535651456
C   C106      1.0  0.66070  0.20400  0.79480  1.0000 -0.1687699976
C   C107      1.0  0.51770  0.17820  0.77680  1.0000 0.0138985737
C   C108      1.0  0.96530  0.01060  0.83850  1.0000 0.139914658
C   C109      1.0  0.83190  0.96640  0.84920  1.0000 -0.1611829129
C   C110      1.0  0.72440  0.96010  0.81300  1.0000 -0.0535651456
C   C111      1.0  0.74050  0.99690  0.76800  1.0000 -0.1611829129
C   C112      1.0  0.87310  0.04070  0.75890  1.0000 0.0229004116
C   C113      1.0  0.08930  0.24820  0.84740  1.0000 0.0138985737
C   C114      1.0  0.02220  0.32320  0.85380  1.0000 -0.1611829129
C   C115      1.0  0.98180  0.36720  0.81180  1.0000 -0.0572725016
C   C116      1.0  0.00880  0.33520  0.76480  1.0000 -0.1813149574
C   C117      1.0  0.07360  0.25980  0.76140  1.0000 0.1495631491
C   C118      1.0  0.10810  0.22280  0.71250  1.0000 0.1180742269
C   C119      1.0  0.08540  0.25190  0.66610  1.0000 -0.1945354315
C   C120      1.0  0.13290  0.21080  0.62410  1.0000 0.0586588261
C   C121      1.0  0.11260  0.24050  0.57180  1.0000 0.5418103215
C   C122      1.0  0.20030  0.13470  0.62970  1.0000 -0.2086953209
C   C123      1.0  0.21640  0.10270  0.67870  1.0000 0.1495631491
C   C124      1.0  0.28120  0.02560  0.69290  1.0000 0.1180742269
C   C125      1.0  0.33920  0.96830  0.65860  1.0000 -0.1813149574
C   C126      1.0  0.39610  0.89840  0.67530  1.0000 -0.0572725016
C   C127      1.0  0.39660  0.88270  0.72520  1.0000 -0.1687699976
C   C128      1.0  0.33700  0.93970  0.75780  1.0000 0.0229004116
N   N1        1.0  0.58390  0.64090  0.30560  1.0000 -0.2224633845
N   N2        1.0  0.78720  0.55870  0.35380  1.0000 -0.2486080761
N   N3        1.0  0.01630  0.54590  0.29330  1.0000 -0.2257225883
N   N4        1.0  0.89260  0.71770  0.30210  1.0000 -0.2086953209
N   N5        1.0  0.82690  0.64860  0.21770  1.0000 -0.23641082
N   N6        1.0  0.72040  0.50910  0.24290  1.0000 -0.2086953209
N   N7        1.0  0.41610  0.64090  0.69440  1.0000 -0.2224633845
N   N8        1.0  0.21280  0.55870  0.64620  1.0000 -0.2486080761
N   N9        1.0  0.98370  0.54590  0.70670  1.0000 -0.2257225883
N   N10       1.0  0.10740  0.71770  0.69790  1.0000 -0.2086953209
N   N11       1.0  0.17310  0.64860  0.78230  1.0000 -0.23641082
N   N12       1.0  0.27960  0.50910  0.75710  1.0000 -0.2086953209
N   N13       1.0  0.58390  0.14090  0.19440  1.0000 -0.2224633845
N   N14       1.0  0.78720  0.05870  0.14620  1.0000 -0.2486080761
N   N15       1.0  0.01630  0.04590  0.20670  1.0000 -0.2224633845
N   N16       1.0  0.89260  0.21770  0.19790  1.0000 -0.2043158236
N   N17       1.0  0.82690  0.14860  0.28230  1.0000 -0.23641082
N   N18       1.0  0.72040  0.00910  0.25710  1.0000 -0.2086953209
N   N19       1.0  0.41610  0.14090  0.80560  1.0000 -0.2224633845
N   N20       1.0  0.21280  0.05870  0.85380  1.0000 -0.2486080761
N   N21       1.0  0.98370  0.04590  0.79330  1.0000 -0.2257225883
N   N22       1.0  0.10740  0.21770  0.80210  1.0000 -0.2086953209
N   N23       1.0  0.17310  0.14860  0.71770  1.0000 -0.23641082
N   N24       1.0  0.27960  0.00910  0.74290  1.0000 -0.2086953209
O   O1        1.0  0.82320  0.41160  0.51540  1.0000 -0.5703533414
O   O2        1.0  0.68520  0.51560  0.53190  1.0000 -0.5139541897
O   O3        1.0  0.98660  0.80030  0.06890  1.0000 -0.5851074579
O   O4        1.0  0.82610  0.71220  0.03720  1.0000 -0.4490780058
O   O5        1.0  0.17680  0.41160  0.48460  1.0000 -0.5703533414
O   O6        1.0  0.31480  0.51560  0.46810  1.0000 -0.5139541897
O   O7        1.0  0.01340  0.80030  0.93110  1.0000 -0.5848466876
O   O8        1.0  0.17390  0.71220  0.96280  1.0000 -0.4490780058
O   O9        1.0  0.82320  0.91160  0.98460  1.0000 -0.5703533414
O   O10       1.0  0.68520  0.01560  0.96810  1.0000 -0.5139541897
O   O11       1.0  0.98660  0.30030  0.43110  1.0000 -0.5851074579
O   O12       1.0  0.82610  0.21220  0.46280  1.0000 -0.4490780058
O   O13       1.0  0.17680  0.91160  0.01540  1.0000 -0.5703533414
O   O14       1.0  0.31480  0.01560  0.03190  1.0000 -0.5139541897
O   O15       1.0  0.01340  0.30030  0.56890  1.0000 -0.5848466876
O   O16       1.0  0.17390  0.21220  0.53720  1.0000 -0.4490780058
