# DDEC6 charges by PACMAN v1.1 (https://github.com/mtap-research/PACMAN-charge/)
data_2020[Ni][sql]2[FSR]6
_chemical_formula_sum              "Ni8 H128 C144 N16 O56"
_cell_length_a       13.719
_cell_length_b       19.0926
_cell_length_c       22.509
_cell_angle_alpha    90
_cell_angle_beta     90
_cell_angle_gamma    90

_symmetry_space_group_name_H-M    "P 1"
_symmetry_Int_Tables_number       1

loop_
  _symmetry_equiv_pos_as_xyz
  'x, y, z'

loop_
  _atom_site_type_symbol
  _atom_site_label
  _atom_site_symmetry_multiplicity
  _atom_site_fract_x
  _atom_site_fract_y
  _atom_site_fract_z
  _atom_site_occupancy
  _atom_site_charge
Ni  Ni1       1.0  0.75000  0.75000  0.23424  1.0000 0.799853296
Ni  Ni2       1.0  0.75000  0.75000  0.73424  1.0000 0.799853296
Ni  Ni3       1.0  0.75000  0.25000  0.15814  1.0000 0.799853296
Ni  Ni4       1.0  0.75000  0.25000  0.65814  1.0000 0.799853296
Ni  Ni5       1.0  0.25000  0.25000  0.26576  1.0000 0.799853296
Ni  Ni6       1.0  0.25000  0.25000  0.76576  1.0000 0.799853296
Ni  Ni7       1.0  0.25000  0.75000  0.34186  1.0000 0.799853296
Ni  Ni8       1.0  0.25000  0.75000  0.84186  1.0000 0.799853296
H   H1        1.0  0.57450  0.70560  0.26010  1.0000 0.3818247328
H   H2        1.0  0.62940  0.64380  0.23740  1.0000 0.3818247328
H   H3        1.0  0.88410  0.16640  0.19290  1.0000 0.3726067329
H   H4        1.0  0.93240  0.22210  0.16080  1.0000 0.3726067329
H   H5        1.0  0.31200  0.99860  0.21980  1.0000 0.3421587059
H   H6        1.0  0.70220  0.03440  0.19820  1.0000 0.1191516975
H   H7        1.0  0.61250  0.76980  0.13300  1.0000 0.1191516975
H   H8        1.0  0.49540  0.88950  0.22910  1.0000 0.1191516975
H   H9        1.0  0.41880  0.08400  0.18600  1.0000 0.1316964089
H   H10       1.0  0.62950  0.19800  0.05470  1.0000 0.1113614971
H   H11       1.0  0.80780  0.34340  0.86210  1.0000 0.1356133409
H   H12       1.0  0.60570  0.76780  0.02910  1.0000 0.1316964089
H   H13       1.0  0.80210  0.34600  0.76050  1.0000 0.1005368591
H   H14       1.0  0.62790  0.19520  0.95330  1.0000 0.1316964089
H   H15       1.0  0.62130  0.69980  0.93840  1.0000 0.1356133409
H   H16       1.0  0.62450  0.70350  0.83730  1.0000 0.1113614971
H   H17       1.0  0.92550  0.79440  0.26010  1.0000 0.3818247328
H   H18       1.0  0.87060  0.85620  0.23740  1.0000 0.3818247328
H   H19       1.0  0.61590  0.33360  0.19290  1.0000 0.3726067329
H   H20       1.0  0.56760  0.27790  0.16080  1.0000 0.3726067329
H   H21       1.0  0.18800  0.50140  0.21980  1.0000 0.3421587059
H   H22       1.0  0.79780  0.46560  0.19820  1.0000 0.1191516975
H   H23       1.0  0.88750  0.73020  0.13300  1.0000 0.1191516975
H   H24       1.0  0.00460  0.61050  0.22910  1.0000 0.1191516975
H   H25       1.0  0.08120  0.41600  0.18600  1.0000 0.1316964089
H   H26       1.0  0.87050  0.30200  0.05470  1.0000 0.1113614971
H   H27       1.0  0.69220  0.15660  0.86210  1.0000 0.1356133409
H   H28       1.0  0.89430  0.73220  0.02910  1.0000 0.1316964089
H   H29       1.0  0.69790  0.15400  0.76050  1.0000 0.1005368591
H   H30       1.0  0.87210  0.30480  0.95330  1.0000 0.1316964089
H   H31       1.0  0.87870  0.80020  0.93840  1.0000 0.1356133409
H   H32       1.0  0.87550  0.79650  0.83730  1.0000 0.1113614971
H   H33       1.0  0.57450  0.79440  0.76010  1.0000 0.3818247328
H   H34       1.0  0.62940  0.85620  0.73740  1.0000 0.3818247328
H   H35       1.0  0.88410  0.33360  0.69290  1.0000 0.3726067329
H   H36       1.0  0.93240  0.27790  0.66080  1.0000 0.3726067329
H   H37       1.0  0.31200  0.50140  0.71980  1.0000 0.3421587059
H   H38       1.0  0.70220  0.46560  0.69820  1.0000 0.1191516975
H   H39       1.0  0.61250  0.73020  0.63300  1.0000 0.1191516975
H   H40       1.0  0.49540  0.61050  0.72910  1.0000 0.1191516975
H   H41       1.0  0.41880  0.41600  0.68600  1.0000 0.1316964089
H   H42       1.0  0.62950  0.30200  0.55470  1.0000 0.1113614971
H   H43       1.0  0.80780  0.15660  0.36210  1.0000 0.1356133409
H   H44       1.0  0.60570  0.73220  0.52910  1.0000 0.1316964089
H   H45       1.0  0.80210  0.15400  0.26050  1.0000 0.1005368591
H   H46       1.0  0.62790  0.30480  0.45330  1.0000 0.1316964089
H   H47       1.0  0.62130  0.80020  0.43840  1.0000 0.1356133409
H   H48       1.0  0.62450  0.79650  0.33730  1.0000 0.1113614971
H   H49       1.0  0.92550  0.70560  0.76010  1.0000 0.3818247328
H   H50       1.0  0.87060  0.64380  0.73740  1.0000 0.3818247328
H   H51       1.0  0.61590  0.16640  0.69290  1.0000 0.3726067329
H   H52       1.0  0.56760  0.22210  0.66080  1.0000 0.3726067329
H   H53       1.0  0.18800  0.99860  0.71980  1.0000 0.3421587059
H   H54       1.0  0.79780  0.03440  0.69820  1.0000 0.1191516975
H   H55       1.0  0.88750  0.76980  0.63300  1.0000 0.1191516975
H   H56       1.0  0.00460  0.88950  0.72910  1.0000 0.1191516975
H   H57       1.0  0.08120  0.08400  0.68600  1.0000 0.1316964089
H   H58       1.0  0.87050  0.19800  0.55470  1.0000 0.1113614971
H   H59       1.0  0.69220  0.34340  0.36210  1.0000 0.1356133409
H   H60       1.0  0.89430  0.76780  0.52910  1.0000 0.1316964089
H   H61       1.0  0.69790  0.34600  0.26050  1.0000 0.1005368591
H   H62       1.0  0.87210  0.19520  0.45330  1.0000 0.1316964089
H   H63       1.0  0.87870  0.69980  0.43840  1.0000 0.1356133409
H   H64       1.0  0.87550  0.70350  0.33730  1.0000 0.1113614971
H   H65       1.0  0.42550  0.20560  0.23990  1.0000 0.3818247328
H   H66       1.0  0.37060  0.14380  0.26260  1.0000 0.3818247328
H   H67       1.0  0.11590  0.66640  0.30710  1.0000 0.3726067329
H   H68       1.0  0.06760  0.72210  0.33920  1.0000 0.3726067329
H   H69       1.0  0.68800  0.49860  0.28020  1.0000 0.3421587059
H   H70       1.0  0.29780  0.53440  0.30180  1.0000 0.1191516975
H   H71       1.0  0.38750  0.26980  0.36700  1.0000 0.1191516975
H   H72       1.0  0.50460  0.38950  0.27090  1.0000 0.1191516975
H   H73       1.0  0.58120  0.58400  0.31400  1.0000 0.1316964089
H   H74       1.0  0.37050  0.69800  0.44530  1.0000 0.1113614971
H   H75       1.0  0.19220  0.84340  0.63790  1.0000 0.1356133409
H   H76       1.0  0.39430  0.26780  0.47090  1.0000 0.1316964089
H   H77       1.0  0.19790  0.84600  0.73950  1.0000 0.1005368591
H   H78       1.0  0.37210  0.69520  0.54670  1.0000 0.1316964089
H   H79       1.0  0.37870  0.19980  0.56160  1.0000 0.1356133409
H   H80       1.0  0.37550  0.20350  0.66270  1.0000 0.1113614971
H   H81       1.0  0.07450  0.29440  0.23990  1.0000 0.3818247328
H   H82       1.0  0.12940  0.35620  0.26260  1.0000 0.3818247328
H   H83       1.0  0.38410  0.83360  0.30710  1.0000 0.3726067329
H   H84       1.0  0.43240  0.77790  0.33920  1.0000 0.3726067329
H   H85       1.0  0.81200  0.00140  0.28020  1.0000 0.3421587059
H   H86       1.0  0.20220  0.96560  0.30180  1.0000 0.1191516975
H   H87       1.0  0.11250  0.23020  0.36700  1.0000 0.1191516975
H   H88       1.0  0.99540  0.11050  0.27090  1.0000 0.1191516975
H   H89       1.0  0.91880  0.91600  0.31400  1.0000 0.1316964089
H   H90       1.0  0.12950  0.80200  0.44530  1.0000 0.1113614971
H   H91       1.0  0.30780  0.65660  0.63790  1.0000 0.1356133409
H   H92       1.0  0.10570  0.23220  0.47090  1.0000 0.1316964089
H   H93       1.0  0.30210  0.65400  0.73950  1.0000 0.1005368591
H   H94       1.0  0.12790  0.80480  0.54670  1.0000 0.1316964089
H   H95       1.0  0.12130  0.30020  0.56160  1.0000 0.1356133409
H   H96       1.0  0.12450  0.29650  0.66270  1.0000 0.1113614971
H   H97       1.0  0.42550  0.29440  0.73990  1.0000 0.3818247328
H   H98       1.0  0.37060  0.35620  0.76260  1.0000 0.3818247328
H   H99       1.0  0.11590  0.83360  0.80710  1.0000 0.3726067329
H   H100      1.0  0.06760  0.77790  0.83920  1.0000 0.3726067329
H   H101      1.0  0.68800  0.00140  0.78020  1.0000 0.3421587059
H   H102      1.0  0.29780  0.96560  0.80180  1.0000 0.1191516975
H   H103      1.0  0.38750  0.23020  0.86700  1.0000 0.1191516975
H   H104      1.0  0.50460  0.11050  0.77090  1.0000 0.1191516975
H   H105      1.0  0.58120  0.91600  0.81400  1.0000 0.1316964089
H   H106      1.0  0.37050  0.80200  0.94530  1.0000 0.1113614971
H   H107      1.0  0.19220  0.65660  0.13790  1.0000 0.1356133409
H   H108      1.0  0.39430  0.23220  0.97090  1.0000 0.1316964089
H   H109      1.0  0.19790  0.65400  0.23950  1.0000 0.1005368591
H   H110      1.0  0.37210  0.80480  0.04670  1.0000 0.1316964089
H   H111      1.0  0.37870  0.30020  0.06160  1.0000 0.1356133409
H   H112      1.0  0.37550  0.29650  0.16270  1.0000 0.1113614971
H   H113      1.0  0.07450  0.20560  0.73990  1.0000 0.3818247328
H   H114      1.0  0.12940  0.14380  0.76260  1.0000 0.3818247328
H   H115      1.0  0.38410  0.66640  0.80710  1.0000 0.3726067329
H   H116      1.0  0.43240  0.72210  0.83920  1.0000 0.3726067329
H   H117      1.0  0.81200  0.49860  0.78020  1.0000 0.3421587059
H   H118      1.0  0.20220  0.53440  0.80180  1.0000 0.1191516975
H   H119      1.0  0.11250  0.26980  0.86700  1.0000 0.1191516975
H   H120      1.0  0.99540  0.38950  0.77090  1.0000 0.1191516975
H   H121      1.0  0.91880  0.58400  0.81400  1.0000 0.1316964089
H   H122      1.0  0.12950  0.69800  0.94530  1.0000 0.1113614971
H   H123      1.0  0.30780  0.84340  0.13790  1.0000 0.1356133409
H   H124      1.0  0.10570  0.26780  0.97090  1.0000 0.1316964089
H   H125      1.0  0.30210  0.84600  0.23950  1.0000 0.1005368591
H   H126      1.0  0.12790  0.69520  0.04670  1.0000 0.1316964089
H   H127      1.0  0.12130  0.19980  0.06160  1.0000 0.1356133409
H   H128      1.0  0.12450  0.20350  0.16270  1.0000 0.1113614971
C   C1        1.0  0.56318  0.07027  0.19154  1.0000 0.0067313975
C   C2        1.0  0.61074  0.95292  0.21666  1.0000 -0.019549801
C   C3        1.0  0.63699  0.02162  0.20150  1.0000 -0.1548150023
C   C4        1.0  0.59125  0.14595  0.17674  1.0000 0.5574413846
C   C5        1.0  0.68778  0.90075  0.22978  1.0000 0.5671751211
C   C6        1.0  0.66933  0.76123  0.11160  1.0000 0.1191516975
C   C7        1.0  0.51323  0.93506  0.21928  1.0000 -0.2193129053
C   C8        1.0  0.46721  0.05119  0.19381  1.0000 -0.230013007
C   C9        1.0  0.68028  0.21961  0.03438  1.0000 0.0876051868
C   C10       1.0  0.44270  0.98392  0.20751  1.0000 0.275192977
C   C11       1.0  0.78291  0.30478  0.84201  1.0000 -0.1845350405
C   C12       1.0  0.66443  0.76091  0.04893  1.0000 -0.2029000873
C   C13       1.0  0.78143  0.30624  0.78073  1.0000 0.0789608667
C   C14       1.0  0.67860  0.21818  0.97259  1.0000 -0.2029000873
C   C15       1.0  0.67371  0.72055  0.91892  1.0000 -0.1915115109
C   C16       1.0  0.67674  0.72250  0.85810  1.0000 0.0876051868
C   C17       1.0  0.93682  0.42973  0.19154  1.0000 0.0067313975
C   C18       1.0  0.88926  0.54708  0.21666  1.0000 -0.019549801
C   C19       1.0  0.86301  0.47838  0.20150  1.0000 -0.1551594874
C   C20       1.0  0.90875  0.35405  0.17674  1.0000 0.5574413846
C   C21       1.0  0.81222  0.59925  0.22978  1.0000 0.5671751211
C   C22       1.0  0.83067  0.73877  0.11160  1.0000 0.1191516975
C   C23       1.0  0.98677  0.56494  0.21928  1.0000 -0.2193129053
C   C24       1.0  0.03279  0.44881  0.19381  1.0000 -0.230013007
C   C25       1.0  0.81972  0.28039  0.03438  1.0000 0.0876051868
C   C26       1.0  0.05730  0.51608  0.20751  1.0000 0.275192977
C   C27       1.0  0.71709  0.19522  0.84201  1.0000 -0.1845350405
C   C28       1.0  0.83557  0.73909  0.04893  1.0000 -0.2029000873
C   C29       1.0  0.71857  0.19376  0.78073  1.0000 0.0789608667
C   C30       1.0  0.82140  0.28182  0.97259  1.0000 -0.2029000873
C   C31       1.0  0.82629  0.77945  0.91892  1.0000 -0.1915115109
C   C32       1.0  0.82326  0.77750  0.85810  1.0000 0.0876051868
C   C33       1.0  0.56318  0.42973  0.69154  1.0000 0.0067313975
C   C34       1.0  0.61074  0.54708  0.71666  1.0000 -0.019549801
C   C35       1.0  0.63699  0.47838  0.70150  1.0000 -0.1551594874
C   C36       1.0  0.59125  0.35405  0.67674  1.0000 0.5574413846
C   C37       1.0  0.68778  0.59925  0.72978  1.0000 0.5671751211
C   C38       1.0  0.66933  0.73877  0.61160  1.0000 0.1191516975
C   C39       1.0  0.51323  0.56494  0.71928  1.0000 -0.2193129053
C   C40       1.0  0.46721  0.44881  0.69381  1.0000 -0.230013007
C   C41       1.0  0.68028  0.28039  0.53438  1.0000 0.0876051868
C   C42       1.0  0.44270  0.51608  0.70751  1.0000 0.275192977
C   C43       1.0  0.78291  0.19522  0.34201  1.0000 -0.1845350405
C   C44       1.0  0.66443  0.73909  0.54893  1.0000 -0.2029000873
C   C45       1.0  0.78143  0.19376  0.28073  1.0000 0.0789608667
C   C46       1.0  0.67860  0.28182  0.47259  1.0000 -0.2029000873
C   C47       1.0  0.67371  0.77945  0.41892  1.0000 -0.1915115109
C   C48       1.0  0.67674  0.77750  0.35810  1.0000 0.0876051868
C   C49       1.0  0.93682  0.07027  0.69154  1.0000 0.0067313975
C   C50       1.0  0.88926  0.95292  0.71666  1.0000 -0.019549801
C   C51       1.0  0.86301  0.02162  0.70150  1.0000 -0.1551594874
C   C52       1.0  0.90875  0.14595  0.67674  1.0000 0.5574413846
C   C53       1.0  0.81222  0.90075  0.72978  1.0000 0.5671751211
C   C54       1.0  0.83067  0.76123  0.61160  1.0000 0.1191516975
C   C55       1.0  0.98677  0.93506  0.71928  1.0000 -0.2193129053
C   C56       1.0  0.03279  0.05119  0.69381  1.0000 -0.230013007
C   C57       1.0  0.81972  0.21961  0.53438  1.0000 0.0876051868
C   C58       1.0  0.05730  0.98392  0.70751  1.0000 0.275192977
C   C59       1.0  0.71709  0.30478  0.34201  1.0000 -0.1845350405
C   C60       1.0  0.83557  0.76091  0.54893  1.0000 -0.2029000873
C   C61       1.0  0.71857  0.30624  0.28073  1.0000 0.0789608667
C   C62       1.0  0.82140  0.21818  0.47259  1.0000 -0.2029000873
C   C63       1.0  0.82629  0.72055  0.41892  1.0000 -0.1915115109
C   C64       1.0  0.82326  0.72250  0.35810  1.0000 0.0876051868
C   C65       1.0  0.75000  0.75000  0.01835  1.0000 0.1005368591
C   C66       1.0  0.75000  0.75000  0.95130  1.0000 0.1191516975
C   C67       1.0  0.75000  0.75000  0.51835  1.0000 0.1005368591
C   C68       1.0  0.75000  0.75000  0.45130  1.0000 0.1191516975
C   C69       1.0  0.75000  0.25000  0.93963  1.0000 0.1113614971
C   C70       1.0  0.75000  0.25000  0.87428  1.0000 0.1005368591
C   C71       1.0  0.75000  0.25000  0.43963  1.0000 0.1113614971
C   C72       1.0  0.75000  0.25000  0.37428  1.0000 0.1005368591
C   C73       1.0  0.43682  0.57027  0.30846  1.0000 0.0067313975
C   C74       1.0  0.38926  0.45292  0.28334  1.0000 -0.019549801
C   C75       1.0  0.36301  0.52162  0.29850  1.0000 -0.1548150023
C   C76       1.0  0.40875  0.64595  0.32326  1.0000 0.5574413846
C   C77       1.0  0.31222  0.40075  0.27022  1.0000 0.5671751211
C   C78       1.0  0.33067  0.26123  0.38840  1.0000 0.1191516975
C   C79       1.0  0.48677  0.43506  0.28072  1.0000 -0.2193129053
C   C80       1.0  0.53279  0.55119  0.30619  1.0000 -0.230013007
C   C81       1.0  0.31972  0.71961  0.46562  1.0000 0.0876051868
C   C82       1.0  0.55730  0.48392  0.29249  1.0000 0.275192977
C   C83       1.0  0.21709  0.80478  0.65799  1.0000 -0.1845350405
C   C84       1.0  0.33557  0.26091  0.45107  1.0000 -0.2029000873
C   C85       1.0  0.21857  0.80624  0.71927  1.0000 0.0789608667
C   C86       1.0  0.32140  0.71818  0.52741  1.0000 -0.2089415282
C   C87       1.0  0.32629  0.22055  0.58108  1.0000 -0.1915115109
C   C88       1.0  0.32326  0.22250  0.64190  1.0000 0.0876051868
C   C89       1.0  0.06318  0.92973  0.30846  1.0000 0.0067313975
C   C90       1.0  0.11074  0.04708  0.28334  1.0000 -0.019549801
C   C91       1.0  0.13699  0.97838  0.29850  1.0000 -0.1548150023
C   C92       1.0  0.09125  0.85405  0.32326  1.0000 0.5574413846
C   C93       1.0  0.18778  0.09925  0.27022  1.0000 0.5671751211
C   C94       1.0  0.16933  0.23877  0.38840  1.0000 0.1191516975
C   C95       1.0  0.01323  0.06494  0.28072  1.0000 -0.2193129053
C   C96       1.0  0.96721  0.94881  0.30619  1.0000 -0.230013007
C   C97       1.0  0.18028  0.78039  0.46562  1.0000 0.0876051868
C   C98       1.0  0.94270  0.01608  0.29249  1.0000 0.275192977
C   C99       1.0  0.28291  0.69522  0.65799  1.0000 -0.1845350405
C   C100      1.0  0.16443  0.23909  0.45107  1.0000 -0.2029000873
C   C101      1.0  0.28143  0.69376  0.71927  1.0000 0.0789608667
C   C102      1.0  0.17860  0.78182  0.52741  1.0000 -0.2089415282
C   C103      1.0  0.17371  0.27945  0.58108  1.0000 -0.1915115109
C   C104      1.0  0.17674  0.27750  0.64190  1.0000 0.0876051868
C   C105      1.0  0.43682  0.92973  0.80846  1.0000 0.0067313975
C   C106      1.0  0.38926  0.04708  0.78334  1.0000 -0.019549801
C   C107      1.0  0.36301  0.97838  0.79850  1.0000 -0.1548150023
C   C108      1.0  0.40875  0.85405  0.82326  1.0000 0.5574413846
C   C109      1.0  0.31222  0.09925  0.77022  1.0000 0.5671751211
C   C110      1.0  0.33067  0.23877  0.88840  1.0000 0.1191516975
C   C111      1.0  0.48677  0.06494  0.78072  1.0000 -0.2193129053
C   C112      1.0  0.53279  0.94881  0.80619  1.0000 -0.230013007
C   C113      1.0  0.31972  0.78039  0.96562  1.0000 0.0876051868
C   C114      1.0  0.55730  0.01608  0.79249  1.0000 0.275192977
C   C115      1.0  0.21709  0.69522  0.15799  1.0000 -0.1845350405
C   C116      1.0  0.33557  0.23909  0.95107  1.0000 -0.2029000873
C   C117      1.0  0.21857  0.69376  0.21927  1.0000 0.0789608667
C   C118      1.0  0.32140  0.78182  0.02741  1.0000 -0.2029000873
C   C119      1.0  0.32629  0.27945  0.08108  1.0000 -0.1915115109
C   C120      1.0  0.32326  0.27750  0.14190  1.0000 0.0876051868
C   C121      1.0  0.06318  0.57027  0.80846  1.0000 0.0067313975
C   C122      1.0  0.11074  0.45292  0.78334  1.0000 -0.019549801
C   C123      1.0  0.13699  0.52162  0.79850  1.0000 -0.1548150023
C   C124      1.0  0.09125  0.64595  0.82326  1.0000 0.5574413846
C   C125      1.0  0.18778  0.40075  0.77022  1.0000 0.5671751211
C   C126      1.0  0.16933  0.26123  0.88840  1.0000 0.1191516975
C   C127      1.0  0.01323  0.43506  0.78072  1.0000 -0.2193129053
C   C128      1.0  0.96721  0.55119  0.80619  1.0000 -0.230013007
C   C129      1.0  0.18028  0.71961  0.96562  1.0000 0.0876051868
C   C130      1.0  0.94270  0.48392  0.79249  1.0000 0.275192977
C   C131      1.0  0.28291  0.80478  0.15799  1.0000 -0.1845350405
C   C132      1.0  0.16443  0.26091  0.95107  1.0000 -0.2029000873
C   C133      1.0  0.28143  0.80624  0.21927  1.0000 0.0789608667
C   C134      1.0  0.17860  0.71818  0.02741  1.0000 -0.2029000873
C   C135      1.0  0.17371  0.22055  0.08108  1.0000 -0.1915115109
C   C136      1.0  0.17674  0.22250  0.14190  1.0000 0.0876051868
C   C137      1.0  0.25000  0.25000  0.48165  1.0000 0.1005368591
C   C138      1.0  0.25000  0.25000  0.54870  1.0000 0.1191516975
C   C139      1.0  0.25000  0.25000  0.98165  1.0000 0.1005368591
C   C140      1.0  0.25000  0.25000  0.04870  1.0000 0.1191516975
C   C141      1.0  0.25000  0.75000  0.56037  1.0000 0.1113614971
C   C142      1.0  0.25000  0.75000  0.62572  1.0000 0.1005368591
C   C143      1.0  0.25000  0.75000  0.06037  1.0000 0.1113614971
C   C144      1.0  0.25000  0.75000  0.12572  1.0000 0.1005368591
N   N1        1.0  0.75000  0.75000  0.82684  1.0000 -0.230013007
N   N2        1.0  0.75000  0.75000  0.14093  1.0000 -0.2089415282
N   N3        1.0  0.75000  0.75000  0.32684  1.0000 -0.230013007
N   N4        1.0  0.75000  0.75000  0.64093  1.0000 -0.2089415282
N   N5        1.0  0.75000  0.25000  0.75049  1.0000 -0.2465287735
N   N6        1.0  0.75000  0.25000  0.06601  1.0000 -0.2193129053
N   N7        1.0  0.75000  0.25000  0.25049  1.0000 -0.2465287735
N   N8        1.0  0.75000  0.25000  0.56601  1.0000 -0.2193129053
N   N9        1.0  0.25000  0.25000  0.67316  1.0000 -0.230013007
N   N10       1.0  0.25000  0.25000  0.35907  1.0000 -0.2089415282
N   N11       1.0  0.25000  0.25000  0.17316  1.0000 -0.230013007
N   N12       1.0  0.25000  0.25000  0.85907  1.0000 -0.2089415282
N   N13       1.0  0.25000  0.75000  0.74951  1.0000 -0.2465287735
N   N14       1.0  0.25000  0.75000  0.43399  1.0000 -0.2193129053
N   N15       1.0  0.25000  0.75000  0.24951  1.0000 -0.2465287735
N   N16       1.0  0.25000  0.75000  0.93399  1.0000 -0.2193129053
O   O1        1.0  0.67574  0.15666  0.16068  1.0000 -0.5329855671
O   O2        1.0  0.66269  0.83792  0.23147  1.0000 -0.5608453145
O   O3        1.0  0.62137  0.69252  0.23134  1.0000 -0.7296168497
O   O4        1.0  0.87905  0.19411  0.16039  1.0000 -0.6643787315
O   O5        1.0  0.52502  0.19142  0.18068  1.0000 -0.5881025931
O   O6        1.0  0.34557  0.96400  0.21284  1.0000 -0.4968093625
O   O7        1.0  0.77397  0.92145  0.23618  1.0000 -0.5608453145
O   O8        1.0  0.82426  0.34334  0.16068  1.0000 -0.5329855671
O   O9        1.0  0.83731  0.66208  0.23147  1.0000 -0.5608453145
O   O10       1.0  0.87863  0.80748  0.23134  1.0000 -0.7296168497
O   O11       1.0  0.62095  0.30589  0.16039  1.0000 -0.6643787315
O   O12       1.0  0.97498  0.30858  0.18068  1.0000 -0.5881025931
O   O13       1.0  0.15443  0.53600  0.21284  1.0000 -0.4968093625
O   O14       1.0  0.72603  0.57855  0.23618  1.0000 -0.5608453145
O   O15       1.0  0.67574  0.34334  0.66068  1.0000 -0.5329855671
O   O16       1.0  0.66269  0.66208  0.73147  1.0000 -0.5608453145
O   O17       1.0  0.62137  0.80748  0.73134  1.0000 -0.7296168497
O   O18       1.0  0.87905  0.30589  0.66039  1.0000 -0.6643787315
O   O19       1.0  0.52502  0.30858  0.68068  1.0000 -0.5881025931
O   O20       1.0  0.34557  0.53600  0.71284  1.0000 -0.4968093625
O   O21       1.0  0.77397  0.57855  0.73618  1.0000 -0.5608453145
O   O22       1.0  0.82426  0.15666  0.66068  1.0000 -0.5329855671
O   O23       1.0  0.83731  0.83792  0.73147  1.0000 -0.5608453145
O   O24       1.0  0.87863  0.69252  0.73134  1.0000 -0.7296168497
O   O25       1.0  0.62095  0.19411  0.66039  1.0000 -0.6643787315
O   O26       1.0  0.97498  0.19142  0.68068  1.0000 -0.5881025931
O   O27       1.0  0.15443  0.96400  0.71284  1.0000 -0.4968093625
O   O28       1.0  0.72603  0.92145  0.73618  1.0000 -0.5608453145
O   O29       1.0  0.32426  0.65666  0.33932  1.0000 -0.5329855671
O   O30       1.0  0.33731  0.33792  0.26853  1.0000 -0.5608453145
O   O31       1.0  0.37863  0.19252  0.26866  1.0000 -0.7296168497
O   O32       1.0  0.12095  0.69411  0.33961  1.0000 -0.6651872089
O   O33       1.0  0.47498  0.69142  0.31932  1.0000 -0.5881025931
O   O34       1.0  0.65443  0.46400  0.28716  1.0000 -0.4968093625
O   O35       1.0  0.22603  0.42145  0.26382  1.0000 -0.5608453145
O   O36       1.0  0.17574  0.84334  0.33932  1.0000 -0.5329855671
O   O37       1.0  0.16269  0.16208  0.26853  1.0000 -0.5608453145
O   O38       1.0  0.12137  0.30748  0.26866  1.0000 -0.7296168497
O   O39       1.0  0.37905  0.80589  0.33961  1.0000 -0.6651872089
O   O40       1.0  0.02502  0.80858  0.31932  1.0000 -0.5881025931
O   O41       1.0  0.84557  0.03600  0.28716  1.0000 -0.4968093625
O   O42       1.0  0.27397  0.07855  0.26382  1.0000 -0.5608453145
O   O43       1.0  0.32426  0.84334  0.83932  1.0000 -0.5329855671
O   O44       1.0  0.33731  0.16208  0.76853  1.0000 -0.5608453145
O   O45       1.0  0.37863  0.30748  0.76866  1.0000 -0.7296168497
O   O46       1.0  0.12095  0.80589  0.83961  1.0000 -0.6651872089
O   O47       1.0  0.47498  0.80858  0.81932  1.0000 -0.5881025931
O   O48       1.0  0.65443  0.03600  0.78716  1.0000 -0.4968093625
O   O49       1.0  0.22603  0.07855  0.76382  1.0000 -0.5608453145
O   O50       1.0  0.17574  0.65666  0.83932  1.0000 -0.5329855671
O   O51       1.0  0.16269  0.33792  0.76853  1.0000 -0.5608453145
O   O52       1.0  0.12137  0.19252  0.76866  1.0000 -0.7296168497
O   O53       1.0  0.37905  0.69411  0.83961  1.0000 -0.6651872089
O   O54       1.0  0.02502  0.69142  0.81932  1.0000 -0.5881025931
O   O55       1.0  0.84557  0.46400  0.78716  1.0000 -0.4968093625
O   O56       1.0  0.27397  0.42145  0.76382  1.0000 -0.5608453145
