# DDEC6 charges by PACMAN v1.1 (https://github.com/mtap-research/PACMAN-charge/)
data_2020[Cd][fes]2[FSR]3
_chemical_formula_sum              "Cd8 H104 C120 N24 O40"
_cell_length_a       16.0209
_cell_length_b       15.0567
_cell_length_c       18.4447
_cell_angle_alpha    90
_cell_angle_beta     113.878
_cell_angle_gamma    90

_symmetry_space_group_name_H-M    "P 1"
_symmetry_Int_Tables_number       1

loop_
  _symmetry_equiv_pos_as_xyz
  'x, y, z'

loop_
  _atom_site_type_symbol
  _atom_site_label
  _atom_site_symmetry_multiplicity
  _atom_site_fract_x
  _atom_site_fract_y
  _atom_site_fract_z
  _atom_site_occupancy
  _atom_site_charge
Cd  Cd1       1.0  0.80668  0.59243  0.40516  1.0000 0.842514433
Cd  Cd2       1.0  0.71612  0.09195  0.08211  1.0000 0.8483906761
Cd  Cd3       1.0  0.30668  0.90757  0.40516  1.0000 0.842514433
Cd  Cd4       1.0  0.21612  0.40805  0.08211  1.0000 0.8483906761
Cd  Cd5       1.0  0.69332  0.09243  0.59484  1.0000 0.842514433
Cd  Cd6       1.0  0.78388  0.59195  0.91789  1.0000 0.8483906761
Cd  Cd7       1.0  0.19332  0.40757  0.59484  1.0000 0.842514433
Cd  Cd8       1.0  0.28388  0.90805  0.91789  1.0000 0.8483906761
H   H1        1.0  0.49566  0.09381  0.97546  1.0000 0.1104796827
H   H2        1.0  0.02250  0.59897  0.51760  1.0000 0.1183710083
H   H3        1.0  0.64324  0.68950  0.25908  1.0000 0.1183710083
H   H4        1.0  0.60987  0.81583  0.18167  1.0000 0.1326788331
H   H5        1.0  0.51341  0.33071  0.13563  1.0000 0.1326788331
H   H6        1.0  0.01132  0.83024  0.35286  1.0000 0.1388208517
H   H7        1.0  0.87989  0.19228  0.23309  1.0000 0.1183710083
H   H8        1.0  0.87725  0.87422  0.27560  1.0000 0.1388208517
H   H9        1.0  0.36340  0.16538  0.96236  1.0000 0.1388208517
H   H10       1.0  0.64326  0.37686  0.20651  1.0000 0.1388208517
H   H11       1.0  0.90919  0.31713  0.31093  1.0000 0.1326788331
H   H12       1.0  0.15725  0.66636  0.53057  1.0000 0.1388208517
H   H13       1.0  0.88413  0.63190  0.59855  1.0000 0.1003332504
H   H14       1.0  0.64239  0.12939  0.89935  1.0000 0.1003332504
H   H15       1.0  0.82232  0.65598  0.68522  1.0000 0.1326788331
H   H16       1.0  0.81179  0.56995  0.72865  1.0000 0.1388208517
H   H17       1.0  0.72632  0.61120  0.66011  1.0000 0.1388208517
H   H18       1.0  0.76201  0.44347  0.54678  1.0000 0.1460706629
H   H19       1.0  0.70032  0.46657  0.59193  1.0000 0.1388208517
H   H20       1.0  0.79317  0.41675  0.63607  1.0000 0.1183710083
H   H21       1.0  0.58114  0.91221  0.86148  1.0000 0.1388208517
H   H22       1.0  0.52990  0.92368  0.76944  1.0000 0.1183710083
H   H23       1.0  0.48049  0.94754  0.82490  1.0000 0.1326788331
H   H24       1.0  0.56052  0.15155  0.76707  1.0000 0.1326788331
H   H25       1.0  0.47424  0.09050  0.73009  1.0000 0.1326788331
H   H26       1.0  0.56333  0.06712  0.71838  1.0000 0.1388208517
H   H27       1.0  0.99566  0.40619  0.97546  1.0000 0.1104796827
H   H28       1.0  0.52250  0.90103  0.51760  1.0000 0.1183710083
H   H29       1.0  0.14324  0.81050  0.25908  1.0000 0.1183710083
H   H30       1.0  0.10987  0.68417  0.18167  1.0000 0.1326788331
H   H31       1.0  0.01341  0.16929  0.13563  1.0000 0.1326788331
H   H32       1.0  0.51132  0.66976  0.35286  1.0000 0.1388208517
H   H33       1.0  0.37989  0.30772  0.23309  1.0000 0.1183710083
H   H34       1.0  0.37725  0.62578  0.27560  1.0000 0.1388208517
H   H35       1.0  0.86340  0.33462  0.96236  1.0000 0.1388208517
H   H36       1.0  0.14326  0.12314  0.20651  1.0000 0.1388208517
H   H37       1.0  0.40919  0.18287  0.31093  1.0000 0.1326788331
H   H38       1.0  0.65725  0.83364  0.53057  1.0000 0.1388208517
H   H39       1.0  0.38413  0.86810  0.59855  1.0000 0.1003332504
H   H40       1.0  0.14239  0.37061  0.89935  1.0000 0.1003332504
H   H41       1.0  0.32232  0.84402  0.68522  1.0000 0.1326788331
H   H42       1.0  0.31179  0.93005  0.72865  1.0000 0.1388208517
H   H43       1.0  0.22632  0.88880  0.66011  1.0000 0.1388208517
H   H44       1.0  0.26201  0.05653  0.54678  1.0000 0.1460706629
H   H45       1.0  0.20032  0.03343  0.59193  1.0000 0.1388208517
H   H46       1.0  0.29317  0.08325  0.63607  1.0000 0.1183710083
H   H47       1.0  0.08114  0.58779  0.86148  1.0000 0.1388208517
H   H48       1.0  0.02990  0.57632  0.76944  1.0000 0.1183710083
H   H49       1.0  0.98049  0.55246  0.82490  1.0000 0.1326788331
H   H50       1.0  0.06052  0.34845  0.76707  1.0000 0.1326788331
H   H51       1.0  0.97424  0.40950  0.73009  1.0000 0.1326788331
H   H52       1.0  0.06333  0.43288  0.71838  1.0000 0.1388208517
H   H53       1.0  0.00434  0.59381  0.02454  1.0000 0.1104796827
H   H54       1.0  0.47750  0.09897  0.48240  1.0000 0.1183710083
H   H55       1.0  0.85676  0.18950  0.74092  1.0000 0.1183710083
H   H56       1.0  0.89013  0.31583  0.81833  1.0000 0.1326788331
H   H57       1.0  0.98659  0.83071  0.86437  1.0000 0.1326788331
H   H58       1.0  0.48868  0.33024  0.64714  1.0000 0.1326788331
H   H59       1.0  0.62011  0.69228  0.76691  1.0000 0.1183710083
H   H60       1.0  0.62275  0.37422  0.72440  1.0000 0.1388208517
H   H61       1.0  0.13660  0.66538  0.03764  1.0000 0.1388208517
H   H62       1.0  0.85674  0.87686  0.79349  1.0000 0.1388208517
H   H63       1.0  0.59081  0.81713  0.68907  1.0000 0.1326788331
H   H64       1.0  0.34275  0.16636  0.46943  1.0000 0.1388208517
H   H65       1.0  0.61587  0.13190  0.40145  1.0000 0.1003332504
H   H66       1.0  0.85761  0.62939  0.10065  1.0000 0.1003332504
H   H67       1.0  0.67768  0.15598  0.31478  1.0000 0.1326788331
H   H68       1.0  0.68821  0.06995  0.27135  1.0000 0.1388208517
H   H69       1.0  0.77368  0.11120  0.33989  1.0000 0.1388208517
H   H70       1.0  0.73799  0.94347  0.45322  1.0000 0.1460706629
H   H71       1.0  0.79968  0.96657  0.40807  1.0000 0.1388208517
H   H72       1.0  0.70683  0.91675  0.36393  1.0000 0.1183710083
H   H73       1.0  0.91886  0.41221  0.13852  1.0000 0.1388208517
H   H74       1.0  0.97010  0.42368  0.23056  1.0000 0.1183710083
H   H75       1.0  0.01951  0.44754  0.17510  1.0000 0.1326788331
H   H76       1.0  0.93948  0.65155  0.23293  1.0000 0.1326788331
H   H77       1.0  0.02576  0.59050  0.26991  1.0000 0.1326788331
H   H78       1.0  0.93667  0.56712  0.28162  1.0000 0.1388208517
H   H79       1.0  0.50434  0.90619  0.02454  1.0000 0.1104796827
H   H80       1.0  0.97750  0.40103  0.48240  1.0000 0.1183710083
H   H81       1.0  0.35676  0.31050  0.74092  1.0000 0.1183710083
H   H82       1.0  0.39013  0.18417  0.81833  1.0000 0.1326788331
H   H83       1.0  0.48659  0.66929  0.86437  1.0000 0.1326788331
H   H84       1.0  0.98868  0.16976  0.64714  1.0000 0.1326788331
H   H85       1.0  0.12011  0.80772  0.76691  1.0000 0.1183710083
H   H86       1.0  0.12275  0.12578  0.72440  1.0000 0.1388208517
H   H87       1.0  0.63660  0.83462  0.03764  1.0000 0.1388208517
H   H88       1.0  0.35674  0.62314  0.79349  1.0000 0.1388208517
H   H89       1.0  0.09081  0.68287  0.68907  1.0000 0.1326788331
H   H90       1.0  0.84275  0.33364  0.46943  1.0000 0.1388208517
H   H91       1.0  0.11587  0.36810  0.40145  1.0000 0.1003332504
H   H92       1.0  0.35761  0.87061  0.10065  1.0000 0.1003332504
H   H93       1.0  0.17768  0.34402  0.31478  1.0000 0.1326788331
H   H94       1.0  0.18821  0.43005  0.27135  1.0000 0.1388208517
H   H95       1.0  0.27368  0.38880  0.33989  1.0000 0.1388208517
H   H96       1.0  0.23799  0.55653  0.45322  1.0000 0.1460706629
H   H97       1.0  0.29968  0.53343  0.40807  1.0000 0.1388208517
H   H98       1.0  0.20683  0.58325  0.36393  1.0000 0.1183710083
H   H99       1.0  0.41886  0.08779  0.13852  1.0000 0.1388208517
H   H100      1.0  0.47010  0.07632  0.23056  1.0000 0.1183710083
H   H101      1.0  0.51951  0.05246  0.17510  1.0000 0.1326788331
H   H102      1.0  0.43948  0.84845  0.23293  1.0000 0.1326788331
H   H103      1.0  0.52576  0.90950  0.26991  1.0000 0.1326788331
H   H104      1.0  0.43667  0.93288  0.28162  1.0000 0.1388208517
C   C1        1.0  0.67864  0.26320  0.16783  1.0000 0.1777296886
C   C2        1.0  0.49930  0.14220  0.00796  1.0000 0.0932043381
C   C3        1.0  0.58640  0.23710  0.10839  1.0000 0.1694690734
C   C4        1.0  0.84433  0.76360  0.32012  1.0000 0.1694690734
C   C5        1.0  0.93629  0.73890  0.38034  1.0000 0.1694690734
C   C6        1.0  0.42401  0.25700  0.04761  1.0000 0.0370741847
C   C7        1.0  0.79340  0.44480  0.31610  1.0000 0.52755858
C   C8        1.0  0.02060  0.64560  0.48388  1.0000 0.1003332504
C   C9        1.0  0.72230  0.94280  0.17083  1.0000 0.5211538151
C   C10       1.0  0.74050  0.85960  0.22027  1.0000 0.0474637812
C   C11       1.0  0.69040  0.72790  0.26300  1.0000 0.0932043381
C   C12       1.0  0.66980  0.80320  0.21575  1.0000 -0.1638144702
C   C13       1.0  0.50848  0.28270  0.10244  1.0000 -0.192628781
C   C14       1.0  0.09889  0.75690  0.44327  1.0000 0.0370741847
C   C15       1.0  0.18570  0.80220  0.44840  1.0000 0.52755858
C   C16       1.0  0.01496  0.78310  0.38661  1.0000 -0.1999529898
C   C17       1.0  0.83180  0.22990  0.22793  1.0000 0.0813772939
C   C18       1.0  0.77940  0.36130  0.26729  1.0000 0.0474637812
C   C19       1.0  0.82870  0.83830  0.27250  1.0000 -0.192628781
C   C20       1.0  0.41940  0.18490  0.99966  1.0000 -0.1409858279
C   C21       1.0  0.69230  0.33990  0.21283  1.0000 -0.192628781
C   C22       1.0  0.85000  0.30490  0.27480  1.0000 -0.1670948453
C   C23       1.0  0.10190  0.68620  0.49251  1.0000 -0.149536781
C   C24       1.0  0.85760  0.57610  0.58410  1.0000 0.2985050157
C   C25       1.0  0.33940  0.30650  0.04220  1.0000 0.5394202546
C   C26       1.0  0.62290  0.07080  0.89670  1.0000 0.2985050157
C   C27       1.0  0.79070  0.60040  0.67870  1.0000 -0.3402425125
C   C28       1.0  0.76210  0.46090  0.59690  1.0000 -0.3221665472
C   C29       1.0  0.53790  0.94770  0.82000  1.0000 -0.3402425125
C   C30       1.0  0.53970  0.09140  0.75440  1.0000 -0.3528351113
C   C31       1.0  0.17864  0.23680  0.16783  1.0000 0.1777296886
C   C32       1.0  0.99930  0.35780  0.00796  1.0000 0.0932043381
C   C33       1.0  0.08640  0.26290  0.10839  1.0000 0.1694690734
C   C34       1.0  0.34433  0.73640  0.32012  1.0000 0.1694690734
C   C35       1.0  0.43629  0.76110  0.38034  1.0000 0.1694690734
C   C36       1.0  0.92401  0.24300  0.04761  1.0000 0.0370741847
C   C37       1.0  0.29340  0.05520  0.31610  1.0000 0.52755858
C   C38       1.0  0.52060  0.85440  0.48388  1.0000 0.1003332504
C   C39       1.0  0.22230  0.55720  0.17083  1.0000 0.5211538151
C   C40       1.0  0.24050  0.64040  0.22027  1.0000 0.0474637812
C   C41       1.0  0.19040  0.77210  0.26300  1.0000 0.0932043381
C   C42       1.0  0.16980  0.69680  0.21575  1.0000 -0.1638144702
C   C43       1.0  0.00848  0.21730  0.10244  1.0000 -0.192628781
C   C44       1.0  0.59889  0.74310  0.44327  1.0000 0.0370741847
C   C45       1.0  0.68570  0.69780  0.44840  1.0000 0.52755858
C   C46       1.0  0.51496  0.71690  0.38661  1.0000 -0.1999529898
C   C47       1.0  0.33180  0.27010  0.22793  1.0000 0.0813772939
C   C48       1.0  0.27940  0.13870  0.26729  1.0000 0.0474637812
C   C49       1.0  0.32870  0.66170  0.27250  1.0000 -0.192628781
C   C50       1.0  0.91940  0.31510  0.99966  1.0000 -0.1409858279
C   C51       1.0  0.19230  0.16010  0.21283  1.0000 -0.192628781
C   C52       1.0  0.35000  0.19510  0.27480  1.0000 -0.1670948453
C   C53       1.0  0.60190  0.81380  0.49251  1.0000 -0.149536781
C   C54       1.0  0.35760  0.92390  0.58410  1.0000 0.2985050157
C   C55       1.0  0.83940  0.19350  0.04220  1.0000 0.5394202546
C   C56       1.0  0.12290  0.42920  0.89670  1.0000 0.2985050157
C   C57       1.0  0.29070  0.89960  0.67870  1.0000 -0.3402425125
C   C58       1.0  0.26210  0.03910  0.59690  1.0000 -0.3221665472
C   C59       1.0  0.03790  0.55230  0.82000  1.0000 -0.3402425125
C   C60       1.0  0.03970  0.40860  0.75440  1.0000 -0.3528351113
C   C61       1.0  0.82136  0.76320  0.83217  1.0000 0.1777296886
C   C62       1.0  0.00070  0.64220  0.99204  1.0000 0.0932043381
C   C63       1.0  0.91360  0.73710  0.89161  1.0000 0.1694690734
C   C64       1.0  0.65567  0.26360  0.67988  1.0000 0.1694690734
C   C65       1.0  0.56371  0.23890  0.61966  1.0000 0.1694690734
C   C66       1.0  0.07599  0.75700  0.95239  1.0000 0.0370741847
C   C67       1.0  0.70660  0.94480  0.68390  1.0000 0.52755858
C   C68       1.0  0.47940  0.14560  0.51612  1.0000 0.1003332504
C   C69       1.0  0.77770  0.44280  0.82917  1.0000 0.5211538151
C   C70       1.0  0.75950  0.35960  0.77973  1.0000 0.0474637812
C   C71       1.0  0.80960  0.22790  0.73700  1.0000 0.0932043381
C   C72       1.0  0.83020  0.30320  0.78425  1.0000 -0.1638144702
C   C73       1.0  0.99152  0.78270  0.89756  1.0000 -0.192628781
C   C74       1.0  0.40111  0.25690  0.55673  1.0000 0.0370741847
C   C75       1.0  0.31430  0.30220  0.55160  1.0000 0.52755858
C   C76       1.0  0.48504  0.28310  0.61339  1.0000 -0.1999529898
C   C77       1.0  0.66820  0.72990  0.77207  1.0000 0.0813772939
C   C78       1.0  0.72060  0.86130  0.73271  1.0000 0.0474637812
C   C79       1.0  0.67130  0.33830  0.72750  1.0000 -0.192628781
C   C80       1.0  0.08060  0.68490  0.00034  1.0000 -0.1409858279
C   C81       1.0  0.80770  0.83990  0.78717  1.0000 -0.192628781
C   C82       1.0  0.65000  0.80490  0.72520  1.0000 -0.1670948453
C   C83       1.0  0.39810  0.18620  0.50749  1.0000 -0.149536781
C   C84       1.0  0.64240  0.07610  0.41590  1.0000 0.2985050157
C   C85       1.0  0.16060  0.80650  0.95780  1.0000 0.5394202546
C   C86       1.0  0.87710  0.57080  0.10330  1.0000 0.2985050157
C   C87       1.0  0.70930  0.10040  0.32130  1.0000 -0.3402425125
C   C88       1.0  0.73790  0.96090  0.40310  1.0000 -0.3221665472
C   C89       1.0  0.96210  0.44770  0.18000  1.0000 -0.3402425125
C   C90       1.0  0.96030  0.59140  0.24560  1.0000 -0.3528351113
C   C91       1.0  0.32136  0.73680  0.83217  1.0000 0.1777296886
C   C92       1.0  0.50070  0.85780  0.99204  1.0000 0.0932043381
C   C93       1.0  0.41360  0.76290  0.89161  1.0000 0.1694690734
C   C94       1.0  0.15567  0.23640  0.67988  1.0000 0.1694690734
C   C95       1.0  0.06371  0.26110  0.61966  1.0000 0.1694690734
C   C96       1.0  0.57599  0.74300  0.95239  1.0000 0.0370741847
C   C97       1.0  0.20660  0.55520  0.68390  1.0000 0.52755858
C   C98       1.0  0.97940  0.35440  0.51612  1.0000 0.1003332504
C   C99       1.0  0.27770  0.05720  0.82917  1.0000 0.5211538151
C   C100      1.0  0.25950  0.14040  0.77973  1.0000 0.0474637812
C   C101      1.0  0.30960  0.27210  0.73700  1.0000 0.0932043381
C   C102      1.0  0.33020  0.19680  0.78425  1.0000 -0.1638144702
C   C103      1.0  0.49152  0.71730  0.89756  1.0000 -0.192628781
C   C104      1.0  0.90111  0.24310  0.55673  1.0000 0.0370741847
C   C105      1.0  0.81430  0.19780  0.55160  1.0000 0.52755858
C   C106      1.0  0.98504  0.21690  0.61339  1.0000 -0.1999529898
C   C107      1.0  0.16820  0.77010  0.77207  1.0000 0.0813772939
C   C108      1.0  0.22060  0.63870  0.73271  1.0000 0.0474637812
C   C109      1.0  0.17130  0.16170  0.72750  1.0000 -0.192628781
C   C110      1.0  0.58060  0.81510  0.00034  1.0000 -0.1409858279
C   C111      1.0  0.30770  0.66010  0.78717  1.0000 -0.192628781
C   C112      1.0  0.15000  0.69510  0.72520  1.0000 -0.1670948453
C   C113      1.0  0.89810  0.31380  0.50749  1.0000 -0.149536781
C   C114      1.0  0.14240  0.42390  0.41590  1.0000 0.2985050157
C   C115      1.0  0.66060  0.69350  0.95780  1.0000 0.5394202546
C   C116      1.0  0.37710  0.92920  0.10330  1.0000 0.2985050157
C   C117      1.0  0.20930  0.39960  0.32130  1.0000 -0.3402425125
C   C118      1.0  0.23790  0.53910  0.40310  1.0000 -0.3221665472
C   C119      1.0  0.46210  0.05230  0.18000  1.0000 -0.3402425125
C   C120      1.0  0.46030  0.90860  0.24560  1.0000 -0.3528351113
N   N1        1.0  0.74771  0.20880  0.17524  1.0000 -0.2684584279
N   N2        1.0  0.93969  0.67089  0.42887  1.0000 -0.2684584279
N   N3        1.0  0.58148  0.16752  0.06078  1.0000 -0.2684584279
N   N4        1.0  0.77504  0.70841  0.31380  1.0000 -0.2684584279
N   N5        1.0  0.80860  0.54560  0.62078  1.0000 0.0222425764
N   N6        1.0  0.57170  0.03870  0.82654  1.0000 0.0370741847
N   N7        1.0  0.24771  0.29120  0.17524  1.0000 -0.2684584279
N   N8        1.0  0.43969  0.82911  0.42887  1.0000 -0.2684584279
N   N9        1.0  0.08148  0.33248  0.06078  1.0000 -0.2684584279
N   N10       1.0  0.27504  0.79159  0.31380  1.0000 -0.2684584279
N   N11       1.0  0.30860  0.95440  0.62078  1.0000 0.0222425764
N   N12       1.0  0.07170  0.46130  0.82654  1.0000 0.0370741847
N   N13       1.0  0.75229  0.70880  0.82476  1.0000 -0.2684584279
N   N14       1.0  0.56031  0.17089  0.57113  1.0000 -0.2684584279
N   N15       1.0  0.91852  0.66752  0.93922  1.0000 -0.2684584279
N   N16       1.0  0.72496  0.20841  0.68620  1.0000 -0.2684584279
N   N17       1.0  0.69140  0.04560  0.37922  1.0000 0.0222425764
N   N18       1.0  0.92830  0.53870  0.17346  1.0000 0.0370741847
N   N19       1.0  0.25229  0.79120  0.82476  1.0000 -0.2684584279
N   N20       1.0  0.06031  0.32911  0.57113  1.0000 -0.2684584279
N   N21       1.0  0.41852  0.83248  0.93922  1.0000 -0.2684584279
N   N22       1.0  0.22496  0.29159  0.68620  1.0000 -0.2684584279
N   N23       1.0  0.19140  0.45440  0.37922  1.0000 0.0222425764
N   N24       1.0  0.42830  0.96130  0.17346  1.0000 0.0370741847
O   O1        1.0  0.25939  0.76266  0.48163  1.0000 -0.5580144748
O   O2        1.0  0.79032  0.98034  0.16686  1.0000 -0.5197744593
O   O3        1.0  0.35381  0.37749  0.08229  1.0000 -0.5313821063
O   O4        1.0  0.87068  0.53561  0.53158  1.0000 -0.4505754486
O   O5        1.0  0.64307  0.97011  0.13663  1.0000 -0.5499188677
O   O6        1.0  0.87225  0.46699  0.36064  1.0000 -0.5401837453
O   O7        1.0  0.17542  0.87791  0.41626  1.0000 -0.5401837453
O   O8        1.0  0.72508  0.48863  0.30970  1.0000 -0.5102752671
O   O9        1.0  0.26324  0.27539  0.00151  1.0000 -0.5580144748
O   O10       1.0  0.64708  0.02870  0.95974  1.0000 -0.4623021782
O   O11       1.0  0.75939  0.73734  0.48163  1.0000 -0.5580144748
O   O12       1.0  0.29032  0.51966  0.16686  1.0000 -0.5197744593
O   O13       1.0  0.85381  0.12251  0.08229  1.0000 -0.5313821063
O   O14       1.0  0.37068  0.96439  0.53158  1.0000 -0.4505754486
O   O15       1.0  0.14307  0.52989  0.13663  1.0000 -0.5499188677
O   O16       1.0  0.37225  0.03301  0.36064  1.0000 -0.5401837453
O   O17       1.0  0.67542  0.62209  0.41626  1.0000 -0.5401837453
O   O18       1.0  0.22508  0.01137  0.30970  1.0000 -0.5102752671
O   O19       1.0  0.76324  0.22461  0.00151  1.0000 -0.5580144748
O   O20       1.0  0.14708  0.47130  0.95974  1.0000 -0.4623021782
O   O21       1.0  0.24061  0.26266  0.51837  1.0000 -0.5580144748
O   O22       1.0  0.70968  0.48034  0.83314  1.0000 -0.5197744593
O   O23       1.0  0.14619  0.87749  0.91771  1.0000 -0.5313821063
O   O24       1.0  0.62932  0.03561  0.46842  1.0000 -0.4505754486
O   O25       1.0  0.85693  0.47011  0.86337  1.0000 -0.5499188677
O   O26       1.0  0.62775  0.96699  0.63936  1.0000 -0.5401837453
O   O27       1.0  0.32458  0.37791  0.58374  1.0000 -0.5401837453
O   O28       1.0  0.77492  0.98863  0.69030  1.0000 -0.5102752671
O   O29       1.0  0.23676  0.77539  0.99849  1.0000 -0.5580144748
O   O30       1.0  0.85292  0.52870  0.04026  1.0000 -0.4623021782
O   O31       1.0  0.74061  0.23734  0.51837  1.0000 -0.5580144748
O   O32       1.0  0.20968  0.01966  0.83314  1.0000 -0.5197744593
O   O33       1.0  0.64619  0.62251  0.91771  1.0000 -0.5313821063
O   O34       1.0  0.12932  0.46439  0.46842  1.0000 -0.4505754486
O   O35       1.0  0.35693  0.02989  0.86337  1.0000 -0.5499188677
O   O36       1.0  0.12775  0.53301  0.63936  1.0000 -0.5401837453
O   O37       1.0  0.82458  0.12209  0.58374  1.0000 -0.5401837453
O   O38       1.0  0.27492  0.51137  0.69030  1.0000 -0.5102752671
O   O39       1.0  0.73676  0.72461  0.99849  1.0000 -0.5580144748
O   O40       1.0  0.35292  0.97130  0.04026  1.0000 -0.4623021782
