# DDEC6 charges by PACMAN v1.1 (https://github.com/mtap-research/PACMAN-charge/)
data_2020[Gd][pts]3[FSR]1
_chemical_formula_sum              "Gd4 H48 C44 N4 O32"
_cell_length_a       9.0752
_cell_length_b       9.6427
_cell_length_c       17.2313
_cell_angle_alpha    90
_cell_angle_beta     103.075
_cell_angle_gamma    90

_symmetry_space_group_name_H-M    "P 1"
_symmetry_Int_Tables_number       1

loop_
  _symmetry_equiv_pos_as_xyz
  'x, y, z'

loop_
  _atom_site_type_symbol
  _atom_site_label
  _atom_site_symmetry_multiplicity
  _atom_site_fract_x
  _atom_site_fract_y
  _atom_site_fract_z
  _atom_site_occupancy
  _atom_site_charge
Gd  Gd1       1.0  0.35901  0.29408  0.78716  1.0000 2.0330989887
Gd  Gd2       1.0  0.14099  0.79408  0.21284  1.0000 2.0330989887
Gd  Gd3       1.0  0.64099  0.70592  0.21284  1.0000 2.0330989887
Gd  Gd4       1.0  0.85901  0.20592  0.78716  1.0000 2.0330989887
H   H1        1.0  0.51870  0.53870  0.84800  1.0000 0.3866112944
H   H2        1.0  0.54670  0.52410  0.77090  1.0000 0.3866112944
H   H3        1.0  0.80130  0.36390  0.59580  1.0000 0.3579568793
H   H4        1.0  0.68720  0.54510  0.43230  1.0000 0.1425763845
H   H5        1.0  0.76190  0.01680  0.03580  1.0000 0.1425763845
H   H6        1.0  0.06140  0.74290  0.58520  1.0000 0.1298448895
H   H7        1.0  0.94200  0.62120  0.55550  1.0000 0.1425763845
H   H8        1.0  0.11740  0.58530  0.58760  1.0000 0.1425763845
H   H9        1.0  0.06710  0.54140  0.77370  1.0000 0.0929348846
H   H10       1.0  0.89840  0.80090  0.69790  1.0000 0.1298448895
H   H11       1.0  0.85480  0.66320  0.73940  1.0000 0.1425763845
H   H12       1.0  0.79220  0.68640  0.64580  1.0000 0.1425763845
H   H13       1.0  0.98130  0.03870  0.15200  1.0000 0.3866112944
H   H14       1.0  0.95330  0.02410  0.22910  1.0000 0.3866112944
H   H15       1.0  0.69870  0.86390  0.40420  1.0000 0.3579568793
H   H16       1.0  0.81280  0.04510  0.56770  1.0000 0.1425763845
H   H17       1.0  0.73810  0.51680  0.96420  1.0000 0.1425763845
H   H18       1.0  0.43860  0.24290  0.41480  1.0000 0.1298448895
H   H19       1.0  0.55800  0.12120  0.44450  1.0000 0.1425763845
H   H20       1.0  0.38260  0.08530  0.41240  1.0000 0.1425763845
H   H21       1.0  0.43290  0.04140  0.22630  1.0000 0.0929348846
H   H22       1.0  0.60160  0.30090  0.30210  1.0000 0.1298448895
H   H23       1.0  0.64520  0.16320  0.26060  1.0000 0.1425763845
H   H24       1.0  0.70780  0.18640  0.35420  1.0000 0.1425763845
H   H25       1.0  0.48130  0.46130  0.15200  1.0000 0.3866112944
H   H26       1.0  0.45330  0.47590  0.22910  1.0000 0.3866112944
H   H27       1.0  0.19870  0.63610  0.40420  1.0000 0.3579568793
H   H28       1.0  0.31280  0.45490  0.56770  1.0000 0.1425763845
H   H29       1.0  0.23810  0.98320  0.96420  1.0000 0.1425763845
H   H30       1.0  0.93860  0.25710  0.41480  1.0000 0.1298448895
H   H31       1.0  0.05800  0.37880  0.44450  1.0000 0.1425763845
H   H32       1.0  0.88260  0.41470  0.41240  1.0000 0.1425763845
H   H33       1.0  0.93290  0.45860  0.22630  1.0000 0.0929348846
H   H34       1.0  0.10160  0.19910  0.30210  1.0000 0.1298448895
H   H35       1.0  0.14520  0.33680  0.26060  1.0000 0.1425763845
H   H36       1.0  0.20780  0.31360  0.35420  1.0000 0.1425763845
H   H37       1.0  0.01870  0.96130  0.84800  1.0000 0.3866112944
H   H38       1.0  0.04670  0.97590  0.77090  1.0000 0.3866112944
H   H39       1.0  0.30130  0.13610  0.59580  1.0000 0.3579568793
H   H40       1.0  0.18720  0.95490  0.43230  1.0000 0.1425763845
H   H41       1.0  0.26190  0.48320  0.03580  1.0000 0.1425763845
H   H42       1.0  0.56140  0.75710  0.58520  1.0000 0.1298448895
H   H43       1.0  0.44200  0.87880  0.55550  1.0000 0.1425763845
H   H44       1.0  0.61740  0.91470  0.58760  1.0000 0.1425763845
H   H45       1.0  0.56710  0.95860  0.77370  1.0000 0.0929348846
H   H46       1.0  0.39840  0.69910  0.69790  1.0000 0.1298448895
H   H47       1.0  0.35480  0.83680  0.73940  1.0000 0.1425763845
H   H48       1.0  0.29220  0.81360  0.64580  1.0000 0.1425763845
C   C1        1.0  0.67030  0.12400  0.89420  1.0000 0.6163444449
C   C2        1.0  0.53870  0.42240  0.57260  1.0000 -0.197867326
C   C3        1.0  0.64720  0.45240  0.52900  1.0000 0.2519320552
C   C4        1.0  0.56840  0.34660  0.64580  1.0000 0.6339114239
C   C5        1.0  0.42450  0.05290  0.92270  1.0000 0.3283976843
C   C6        1.0  0.61010  0.52640  0.46010  1.0000 -0.2299835677
C   C7        1.0  0.65470  0.00990  0.02120  1.0000 -0.1889892589
C   C8        1.0  0.57970  0.05970  0.94770  1.0000 -0.1528756837
C   C9        1.0  0.03500  0.64700  0.59420  1.0000 -0.3315996598
C   C10       1.0  0.09700  0.55200  0.72480  1.0000 0.3074320187
C   C11       1.0  0.87800  0.70100  0.69100  1.0000 -0.3580022822
C   C12       1.0  0.82970  0.62400  0.10580  1.0000 0.6163444449
C   C13       1.0  0.96130  0.92240  0.42740  1.0000 -0.197867326
C   C14       1.0  0.85280  0.95240  0.47100  1.0000 0.2519320552
C   C15       1.0  0.93160  0.84660  0.35420  1.0000 0.6339114239
C   C16       1.0  0.07550  0.55290  0.07730  1.0000 0.3283976843
C   C17       1.0  0.88990  0.02640  0.53990  1.0000 -0.2299835677
C   C18       1.0  0.84530  0.50990  0.97880  1.0000 -0.1889892589
C   C19       1.0  0.92030  0.55970  0.05230  1.0000 -0.1528756837
C   C20       1.0  0.46500  0.14700  0.40580  1.0000 -0.3315996598
C   C21       1.0  0.40300  0.05200  0.27520  1.0000 0.3074320187
C   C22       1.0  0.62200  0.20100  0.30900  1.0000 -0.3580022822
C   C23       1.0  0.32970  0.87600  0.10580  1.0000 0.6163444449
C   C24       1.0  0.46130  0.57760  0.42740  1.0000 -0.197867326
C   C25       1.0  0.35280  0.54760  0.47100  1.0000 0.2519320552
C   C26       1.0  0.43160  0.65340  0.35420  1.0000 0.6339114239
C   C27       1.0  0.57550  0.94710  0.07730  1.0000 0.3283976843
C   C28       1.0  0.38990  0.47360  0.53990  1.0000 -0.2299835677
C   C29       1.0  0.34530  0.99010  0.97880  1.0000 -0.1889892589
C   C30       1.0  0.42030  0.94030  0.05230  1.0000 -0.1528756837
C   C31       1.0  0.96500  0.35300  0.40580  1.0000 -0.3315996598
C   C32       1.0  0.90300  0.44800  0.27520  1.0000 0.3074320187
C   C33       1.0  0.12200  0.29900  0.30900  1.0000 -0.3580022822
C   C34       1.0  0.17030  0.37600  0.89420  1.0000 0.6163444449
C   C35       1.0  0.03870  0.07760  0.57260  1.0000 -0.197867326
C   C36       1.0  0.14720  0.04760  0.52900  1.0000 0.2519320552
C   C37       1.0  0.06840  0.15340  0.64580  1.0000 0.6339114239
C   C38       1.0  0.92450  0.44710  0.92270  1.0000 0.3283976843
C   C39       1.0  0.11010  0.97360  0.46010  1.0000 -0.2299835677
C   C40       1.0  0.15470  0.49010  0.02120  1.0000 -0.1889892589
C   C41       1.0  0.07970  0.44030  0.94770  1.0000 -0.1528756837
C   C42       1.0  0.53500  0.85300  0.59420  1.0000 -0.3315996598
C   C43       1.0  0.59700  0.94800  0.72480  1.0000 0.3074320187
C   C44       1.0  0.37800  0.79900  0.69100  1.0000 -0.3580022822
N   N1        1.0  0.01090  0.63220  0.67550  1.0000 0.0442758282
N   N2        1.0  0.48910  0.13220  0.32450  1.0000 0.0442758282
N   N3        1.0  0.98910  0.36780  0.32450  1.0000 0.0442758282
N   N4        1.0  0.51090  0.86780  0.67550  1.0000 0.0442758282
O   O1        1.0  0.45790  0.29610  0.67250  1.0000 -0.690955318
O   O2        1.0  0.33910  0.09170  0.85360  1.0000 -0.6463608066
O   O3        1.0  0.70640  0.33380  0.68320  1.0000 -0.6635133098
O   O4        1.0  0.21680  0.48420  0.72130  1.0000 -0.6246301602
O   O5        1.0  0.54280  0.47940  0.81460  1.0000 -0.7487484883
O   O6        1.0  0.79010  0.40450  0.55170  1.0000 -0.4305124353
O   O7        1.0  0.60920  0.19600  0.83560  1.0000 -0.6822838853
O   O8        1.0  0.80880  0.09950  0.90760  1.0000 -0.6083327006
O   O9        1.0  0.04210  0.79610  0.32750  1.0000 -0.690955318
O   O10       1.0  0.16090  0.59170  0.14640  1.0000 -0.6463608066
O   O11       1.0  0.79360  0.83380  0.31680  1.0000 -0.6635133098
O   O12       1.0  0.28320  0.98420  0.27870  1.0000 -0.6246301602
O   O13       1.0  0.95720  0.97940  0.18540  1.0000 -0.7487484883
O   O14       1.0  0.70990  0.90450  0.44830  1.0000 -0.4305124353
O   O15       1.0  0.89080  0.69600  0.16440  1.0000 -0.6822838853
O   O16       1.0  0.69120  0.59950  0.09240  1.0000 -0.6083327006
O   O17       1.0  0.54210  0.70390  0.32750  1.0000 -0.690955318
O   O18       1.0  0.66090  0.90830  0.14640  1.0000 -0.6463608066
O   O19       1.0  0.29360  0.66620  0.31680  1.0000 -0.6635133098
O   O20       1.0  0.78320  0.51580  0.27870  1.0000 -0.6246301602
O   O21       1.0  0.45720  0.52060  0.18540  1.0000 -0.7487484883
O   O22       1.0  0.20990  0.59550  0.44830  1.0000 -0.4305124353
O   O23       1.0  0.39080  0.80400  0.16440  1.0000 -0.6822838853
O   O24       1.0  0.19120  0.90050  0.09240  1.0000 -0.6083327006
O   O25       1.0  0.95790  0.20390  0.67250  1.0000 -0.690955318
O   O26       1.0  0.83910  0.40830  0.85360  1.0000 -0.6463608066
O   O27       1.0  0.20640  0.16620  0.68320  1.0000 -0.6635133098
O   O28       1.0  0.71680  0.01580  0.72130  1.0000 -0.6246301602
O   O29       1.0  0.04280  0.02060  0.81460  1.0000 -0.7487484883
O   O30       1.0  0.29010  0.09550  0.55170  1.0000 -0.4305124353
O   O31       1.0  0.10920  0.30400  0.83560  1.0000 -0.6822838853
O   O32       1.0  0.30880  0.40050  0.90760  1.0000 -0.6083327006
