# DDEC6 charges by PACMAN v1.1 (https://github.com/mtap-research/PACMAN-charge/)
data_2020[Co][nan]2[FSR]9
_chemical_formula_sum              "Co4 H36 C52 N8 O16"
_cell_length_a       11.253
_cell_length_b       7.783
_cell_length_c       15.929
_cell_angle_alpha    90
_cell_angle_beta     105.304
_cell_angle_gamma    90

_symmetry_space_group_name_H-M    "P 1"
_symmetry_Int_Tables_number       1

loop_
  _symmetry_equiv_pos_as_xyz
  'x, y, z'

loop_
  _atom_site_type_symbol
  _atom_site_label
  _atom_site_symmetry_multiplicity
  _atom_site_fract_x
  _atom_site_fract_y
  _atom_site_fract_z
  _atom_site_occupancy
  _atom_site_charge
Co  Co1       1.0  0.70380  0.48671  0.31338  1.0000 0.8059833572
Co  Co2       1.0  0.29620  0.98671  0.18662  1.0000 0.8059833572
Co  Co3       1.0  0.29620  0.51329  0.68662  1.0000 0.8059833572
Co  Co4       1.0  0.70380  0.01329  0.81338  1.0000 0.8059833572
H   H1        1.0  0.50571  0.53063  0.36157  1.0000 0.3111772799
H   H2        1.0  0.49835  0.64660  0.29004  1.0000 0.3111772799
H   H3        1.0  0.69057  0.10967  0.55512  1.0000 0.118343634
H   H4        1.0  0.59699  0.92457  0.31088  1.0000 0.1393794393
H   H5        1.0  0.57579  0.62005  0.50965  1.0000 0.1393794393
H   H6        1.0  0.86168  0.77299  0.28186  1.0000 0.118343634
H   H7        1.0  0.95948  0.00870  0.35391  1.0000 0.1393794393
H   H8        1.0  0.96450  0.77316  0.57660  1.0000 0.1337126345
H   H9        1.0  0.85766  0.55109  0.49932  1.0000 0.118343634
H   H10       1.0  0.49429  0.03063  0.13843  1.0000 0.3111772799
H   H11       1.0  0.50165  0.14660  0.20996  1.0000 0.3111772799
H   H12       1.0  0.30943  0.60967  0.94488  1.0000 0.118343634
H   H13       1.0  0.40301  0.42457  0.18912  1.0000 0.1393794393
H   H14       1.0  0.42421  0.12005  0.99035  1.0000 0.1393794393
H   H15       1.0  0.13832  0.27299  0.21814  1.0000 0.118343634
H   H16       1.0  0.04052  0.50870  0.14609  1.0000 0.1393794393
H   H17       1.0  0.03550  0.27316  0.92340  1.0000 0.1337126345
H   H18       1.0  0.14234  0.05109  0.00068  1.0000 0.118343634
H   H19       1.0  0.49429  0.46937  0.63843  1.0000 0.3111772799
H   H20       1.0  0.50165  0.35340  0.70996  1.0000 0.3111772799
H   H21       1.0  0.30943  0.89033  0.44488  1.0000 0.118343634
H   H22       1.0  0.40301  0.07543  0.68912  1.0000 0.1393794393
H   H23       1.0  0.42421  0.37995  0.49035  1.0000 0.1393794393
H   H24       1.0  0.13832  0.22701  0.71814  1.0000 0.118343634
H   H25       1.0  0.04052  0.99130  0.64609  1.0000 0.1393794393
H   H26       1.0  0.03550  0.22684  0.42340  1.0000 0.1337126345
H   H27       1.0  0.14234  0.44891  0.50068  1.0000 0.118343634
H   H28       1.0  0.50571  0.96937  0.86157  1.0000 0.3111772799
H   H29       1.0  0.49835  0.85340  0.79004  1.0000 0.3111772799
H   H30       1.0  0.69057  0.39033  0.05512  1.0000 0.118343634
H   H31       1.0  0.59699  0.57543  0.81088  1.0000 0.1393794393
H   H32       1.0  0.57579  0.87995  0.00965  1.0000 0.1393794393
H   H33       1.0  0.86168  0.72701  0.78186  1.0000 0.118343634
H   H34       1.0  0.95948  0.49130  0.85391  1.0000 0.1393794393
H   H35       1.0  0.96450  0.72684  0.07660  1.0000 0.1337126345
H   H36       1.0  0.85766  0.94891  0.99932  1.0000 0.118343634
C   C1        1.0  0.65290  0.83390  0.64400  1.0000 0.5457492993
C   C2        1.0  0.63750  0.86000  0.54700  1.0000 -0.012464758
C   C3        1.0  0.66370  0.01940  0.51650  1.0000 -0.1394522935
C   C4        1.0  0.64930  0.04260  0.42670  1.0000 -0.0205287597
C   C5        1.0  0.67590  0.21300  0.39320  1.0000 0.5367765353
C   C6        1.0  0.60770  0.90800  0.37020  1.0000 -0.1975694131
C   C7        1.0  0.58130  0.74850  0.39980  1.0000 0.2647243664
C   C8        1.0  0.59500  0.72540  0.48900  1.0000 -0.1975694131
C   C9        1.0  0.87930  0.77500  0.34230  1.0000 0.0916707591
C   C10       1.0  0.93990  0.91720  0.38530  1.0000 -0.1730184778
C   C11       1.0  0.97100  0.92290  0.47510  1.0000 0.1126810182
C   C12       1.0  0.94130  0.77880  0.51610  1.0000 -0.1779786273
C   C13       1.0  0.87820  0.64410  0.46930  1.0000 0.0801405982
C   C14       1.0  0.34710  0.33390  0.85600  1.0000 0.5457492993
C   C15       1.0  0.36250  0.36000  0.95300  1.0000 -0.012464758
C   C16       1.0  0.33630  0.51940  0.98350  1.0000 -0.1394522935
C   C17       1.0  0.35070  0.54260  0.07330  1.0000 -0.0205287597
C   C18       1.0  0.32410  0.71300  0.10680  1.0000 0.5367765353
C   C19       1.0  0.39230  0.40800  0.12980  1.0000 -0.1975694131
C   C20       1.0  0.41870  0.24850  0.10020  1.0000 0.2647243664
C   C21       1.0  0.40500  0.22540  0.01100  1.0000 -0.1975694131
C   C22       1.0  0.12070  0.27500  0.15770  1.0000 0.0916707591
C   C23       1.0  0.06010  0.41720  0.11470  1.0000 -0.1730184778
C   C24       1.0  0.02900  0.42290  0.02490  1.0000 0.1126810182
C   C25       1.0  0.05870  0.27880  0.98390  1.0000 -0.1779786273
C   C26       1.0  0.12180  0.14410  0.03070  1.0000 0.0801405982
C   C27       1.0  0.34710  0.16610  0.35600  1.0000 0.5457492993
C   C28       1.0  0.36250  0.14000  0.45300  1.0000 -0.012464758
C   C29       1.0  0.33630  0.98060  0.48350  1.0000 -0.1394522935
C   C30       1.0  0.35070  0.95740  0.57330  1.0000 -0.0205287597
C   C31       1.0  0.32410  0.78700  0.60680  1.0000 0.5367765353
C   C32       1.0  0.39230  0.09200  0.62980  1.0000 -0.1975694131
C   C33       1.0  0.41870  0.25150  0.60020  1.0000 0.2647243664
C   C34       1.0  0.40500  0.27460  0.51100  1.0000 -0.1975694131
C   C35       1.0  0.12070  0.22500  0.65770  1.0000 0.0916707591
C   C36       1.0  0.06010  0.08280  0.61470  1.0000 -0.1730184778
C   C37       1.0  0.02900  0.07710  0.52490  1.0000 0.1126810182
C   C38       1.0  0.05870  0.22120  0.48390  1.0000 -0.1779786273
C   C39       1.0  0.12180  0.35590  0.53070  1.0000 0.0801405982
C   C40       1.0  0.65290  0.66610  0.14400  1.0000 0.5457492993
C   C41       1.0  0.63750  0.64000  0.04700  1.0000 -0.012464758
C   C42       1.0  0.66370  0.48060  0.01650  1.0000 -0.1394522935
C   C43       1.0  0.64930  0.45740  0.92670  1.0000 -0.0205287597
C   C44       1.0  0.67590  0.28700  0.89320  1.0000 0.5367765353
C   C45       1.0  0.60770  0.59200  0.87020  1.0000 -0.1975694131
C   C46       1.0  0.58130  0.75150  0.89980  1.0000 0.2647243664
C   C47       1.0  0.59500  0.77460  0.98900  1.0000 -0.1975694131
C   C48       1.0  0.87930  0.72500  0.84230  1.0000 0.0916707591
C   C49       1.0  0.93990  0.58280  0.88530  1.0000 -0.1730184778
C   C50       1.0  0.97100  0.57710  0.97510  1.0000 0.1126810182
C   C51       1.0  0.94130  0.72120  0.01610  1.0000 -0.1779786273
C   C52       1.0  0.87820  0.85590  0.96930  1.0000 0.0801405982
N   N1        1.0  0.54760  0.60790  0.33970  1.0000 -0.5947983935
N   N2        1.0  0.84490  0.64100  0.38200  1.0000 -0.2584398538
N   N3        1.0  0.45240  0.10790  0.16030  1.0000 -0.5947983935
N   N4        1.0  0.15510  0.14100  0.11800  1.0000 -0.2584398538
N   N5        1.0  0.45240  0.39210  0.66030  1.0000 -0.5947983935
N   N6        1.0  0.15510  0.35900  0.61800  1.0000 -0.2584398538
N   N7        1.0  0.54760  0.89210  0.83970  1.0000 -0.5947983935
N   N8        1.0  0.84490  0.85900  0.88200  1.0000 -0.2584398538
O   O1        1.0  0.69530  0.96390  0.69170  1.0000 -0.5739067867
O   O2        1.0  0.62340  0.69510  0.67020  1.0000 -0.5507270172
O   O3        1.0  0.71180  0.33760  0.44350  1.0000 -0.5416184142
O   O4        1.0  0.66260  0.23520  0.31150  1.0000 -0.5288901403
O   O5        1.0  0.30470  0.46390  0.80830  1.0000 -0.5739067867
O   O6        1.0  0.37660  0.19510  0.82980  1.0000 -0.5507270172
O   O7        1.0  0.28820  0.83760  0.05650  1.0000 -0.5416184142
O   O8        1.0  0.33740  0.73520  0.18850  1.0000 -0.5288901403
O   O9        1.0  0.30470  0.03610  0.30830  1.0000 -0.5739067867
O   O10       1.0  0.37660  0.30490  0.32980  1.0000 -0.5507270172
O   O11       1.0  0.28820  0.66240  0.55650  1.0000 -0.5416184142
O   O12       1.0  0.33740  0.76480  0.68850  1.0000 -0.5288901403
O   O13       1.0  0.69530  0.53610  0.19170  1.0000 -0.5739067867
O   O14       1.0  0.62340  0.80490  0.17020  1.0000 -0.5507270172
O   O15       1.0  0.71180  0.16240  0.94350  1.0000 -0.5416184142
O   O16       1.0  0.66260  0.26480  0.81150  1.0000 -0.5288901403
