# DDEC6 charges by PACMAN v1.1 (https://github.com/mtap-research/PACMAN-charge/)
data_2021[Zn][lvt]3[FSR]1
_chemical_formula_sum              "Zn8 H48 C72 N48 O24"
_cell_length_a       15.6372
_cell_length_b       15.6372
_cell_length_c       15.6372
_cell_angle_alpha    117.731
_cell_angle_beta     117.731
_cell_angle_gamma    93.9776

_symmetry_space_group_name_H-M    "P 1"
_symmetry_Int_Tables_number       1

loop_
  _symmetry_equiv_pos_as_xyz
  'x, y, z'

loop_
  _atom_site_type_symbol
  _atom_site_label
  _atom_site_symmetry_multiplicity
  _atom_site_fract_x
  _atom_site_fract_y
  _atom_site_fract_z
  _atom_site_occupancy
  _atom_site_charge
Zn  Zn1       1.0  0.08581  0.76238  0.01107  1.0000 0.7105916525
Zn  Zn2       1.0  0.75131  0.07474  0.98893  1.0000 0.7105916525
Zn  Zn3       1.0  0.51238  0.00131  0.17657  1.0000 0.7105916525
Zn  Zn4       1.0  0.82474  0.33581  0.82343  1.0000 0.7105916525
Zn  Zn5       1.0  0.66419  0.48762  0.48893  1.0000 0.7105916525
Zn  Zn6       1.0  0.99869  0.17526  0.51107  1.0000 0.7105916525
Zn  Zn7       1.0  0.23762  0.24869  0.32343  1.0000 0.7105916525
Zn  Zn8       1.0  0.92526  0.91419  0.67657  1.0000 0.7105916525
H   H1        1.0  0.00909  0.40761  0.07730  1.0000 0.130112413
H   H2        1.0  0.17390  0.50297  0.25823  1.0000 0.1138529126
H   H3        1.0  0.27507  0.66369  0.32644  1.0000 0.1138529126
H   H4        1.0  0.21779  0.73979  0.22048  1.0000 0.130112413
H   H5        1.0  0.81082  0.66740  0.90898  1.0000 0.1395778293
H   H6        1.0  0.84922  0.44983  0.67655  1.0000 0.130112413
H   H7        1.0  0.33031  0.93179  0.92270  1.0000 0.130112413
H   H8        1.0  0.24474  0.91567  0.74177  1.0000 0.1138529126
H   H9        1.0  0.33725  0.94863  0.67356  1.0000 0.1138529126
H   H10       1.0  0.51931  0.99731  0.77952  1.0000 0.130112413
H   H11       1.0  0.75842  0.90184  0.09102  1.0000 0.1395778293
H   H12       1.0  0.77328  0.17267  0.32345  1.0000 0.130112413
H   H13       1.0  0.15761  0.58031  0.89852  1.0000 0.130112413
H   H14       1.0  0.25297  0.49474  0.82907  1.0000 0.1138529126
H   H15       1.0  0.41369  0.58725  0.88862  1.0000 0.1138529126
H   H16       1.0  0.48979  0.76931  0.02200  1.0000 0.130112413
H   H17       1.0  0.41740  0.00842  0.35658  1.0000 0.1395778293
H   H18       1.0  0.19983  0.02328  0.10061  1.0000 0.130112413
H   H19       1.0  0.68179  0.25909  0.10148  1.0000 0.130112413
H   H20       1.0  0.66567  0.42390  0.17093  1.0000 0.1138529126
H   H21       1.0  0.69863  0.52507  0.11138  1.0000 0.1138529126
H   H22       1.0  0.74731  0.46779  0.97800  1.0000 0.130112413
H   H23       1.0  0.65184  0.06082  0.64342  1.0000 0.1395778293
H   H24       1.0  0.92267  0.09922  0.89939  1.0000 0.130112413
H   H25       1.0  0.74091  0.84239  0.42270  1.0000 0.130112413
H   H26       1.0  0.57610  0.74703  0.24177  1.0000 0.1138529126
H   H27       1.0  0.47493  0.58631  0.17356  1.0000 0.1138529126
H   H28       1.0  0.53221  0.51021  0.27952  1.0000 0.130112413
H   H29       1.0  0.93918  0.58260  0.59102  1.0000 0.1395778293
H   H30       1.0  0.90078  0.80017  0.82345  1.0000 0.130112413
H   H31       1.0  0.41969  0.31821  0.57730  1.0000 0.130112413
H   H32       1.0  0.50526  0.33433  0.75823  1.0000 0.1138529126
H   H33       1.0  0.41275  0.30137  0.82644  1.0000 0.1138529126
H   H34       1.0  0.23069  0.25269  0.72048  1.0000 0.130112413
H   H35       1.0  0.99158  0.34816  0.40898  1.0000 0.1395778293
H   H36       1.0  0.97672  0.07733  0.17655  1.0000 0.130112413
H   H37       1.0  0.59239  0.66969  0.60148  1.0000 0.130112413
H   H38       1.0  0.49703  0.75526  0.67093  1.0000 0.1138529126
H   H39       1.0  0.33631  0.66275  0.61138  1.0000 0.1138529126
H   H40       1.0  0.26021  0.48069  0.47800  1.0000 0.130112413
H   H41       1.0  0.33260  0.24158  0.14342  1.0000 0.1395778293
H   H42       1.0  0.55017  0.22672  0.39939  1.0000 0.130112413
H   H43       1.0  0.06821  0.99091  0.39852  1.0000 0.130112413
H   H44       1.0  0.08433  0.82610  0.32907  1.0000 0.1138529126
H   H45       1.0  0.05137  0.72493  0.38862  1.0000 0.1138529126
H   H46       1.0  0.00269  0.78221  0.52200  1.0000 0.130112413
H   H47       1.0  0.09816  0.18918  0.85658  1.0000 0.1395778293
H   H48       1.0  0.82733  0.15078  0.60061  1.0000 0.130112413
C   C1        1.0  0.94120  0.55680  0.92020  1.0000 0.4334643865
C   C2        1.0  0.01980  0.51770  0.04290  1.0000 0.1512375437
C   C3        1.0  0.05120  0.47340  0.10540  1.0000 -0.1703228866
C   C4        1.0  0.14890  0.53090  0.21280  1.0000 -0.0918035423
C   C5        1.0  0.20930  0.62740  0.25370  1.0000 -0.1094479179
C   C6        1.0  0.17670  0.67310  0.19140  1.0000 -0.1788226878
C   C7        1.0  0.08150  0.61570  0.08540  1.0000 0.1512375437
C   C8        1.0  0.80280  0.61880  0.83780  1.0000 0.0807277346
C   C9        1.0  0.82420  0.49970  0.71130  1.0000 0.1222075532
C   C10       1.0  0.63660  0.02100  0.07980  1.0000 0.4334643865
C   C11       1.0  0.47480  0.97690  0.95710  1.0000 0.1512375437
C   C12       1.0  0.36800  0.94580  0.89460  1.0000 -0.1703228866
C   C13       1.0  0.31810  0.93610  0.78720  1.0000 -0.0918035423
C   C14       1.0  0.37370  0.95560  0.74630  1.0000 -0.1094479179
C   C15       1.0  0.48170  0.98530  0.80860  1.0000 -0.1788226878
C   C16       1.0  0.53030  0.99610  0.91460  1.0000 0.1512375437
C   C17       1.0  0.78100  0.96500  0.16220  1.0000 0.0807277346
C   C18       1.0  0.78840  0.11290  0.28870  1.0000 0.1222075532
C   C19       1.0  0.30680  0.88660  0.11560  1.0000 0.4334643865
C   C20       1.0  0.26770  0.72480  0.99790  1.0000 0.1512375437
C   C21       1.0  0.22340  0.61800  0.92220  1.0000 -0.1703228866
C   C22       1.0  0.28090  0.56810  0.88200  1.0000 -0.0918035423
C   C23       1.0  0.37740  0.62370  0.91810  1.0000 -0.1094479179
C   C24       1.0  0.42310  0.73170  0.99640  1.0000 -0.1788226878
C   C25       1.0  0.36570  0.78030  0.03420  1.0000 0.1512375437
C   C26       1.0  0.36880  0.03100  0.31600  1.0000 0.0807277346
C   C27       1.0  0.24970  0.03840  0.17550  1.0000 0.1222075532
C   C28       1.0  0.77100  0.19120  0.88440  1.0000 0.4334643865
C   C29       1.0  0.72690  0.26980  0.00210  1.0000 0.1512375437
C   C30       1.0  0.69580  0.30120  0.07780  1.0000 -0.1703228866
C   C31       1.0  0.68610  0.39890  0.11800  1.0000 -0.0918035423
C   C32       1.0  0.70560  0.45930  0.08190  1.0000 -0.1094479179
C   C33       1.0  0.73530  0.42670  0.00360  1.0000 -0.1788226878
C   C34       1.0  0.74610  0.33150  0.96580  1.0000 0.1512375437
C   C35       1.0  0.71500  0.05280  0.68400  1.0000 0.0807277346
C   C36       1.0  0.86290  0.07420  0.82450  1.0000 0.1222075532
C   C37       1.0  0.80880  0.69320  0.57980  1.0000 0.4334643865
C   C38       1.0  0.73020  0.73230  0.45710  1.0000 0.1512375437
C   C39       1.0  0.69880  0.77660  0.39460  1.0000 -0.1703228866
C   C40       1.0  0.60110  0.71910  0.28720  1.0000 -0.0918035423
C   C41       1.0  0.54070  0.62260  0.24630  1.0000 -0.1094479179
C   C42       1.0  0.57330  0.57690  0.30860  1.0000 -0.1788226878
C   C43       1.0  0.66850  0.63430  0.41460  1.0000 0.1512375437
C   C44       1.0  0.94720  0.63120  0.66220  1.0000 0.0807277346
C   C45       1.0  0.92580  0.75030  0.78870  1.0000 0.1222075532
C   C46       1.0  0.11340  0.22900  0.42020  1.0000 0.4334643865
C   C47       1.0  0.27520  0.27310  0.54290  1.0000 0.1512375437
C   C48       1.0  0.38200  0.30420  0.60540  1.0000 -0.1703228866
C   C49       1.0  0.43190  0.31390  0.71280  1.0000 -0.0918035423
C   C50       1.0  0.37630  0.29440  0.75370  1.0000 -0.1094479179
C   C51       1.0  0.26830  0.26470  0.69140  1.0000 -0.1788226878
C   C52       1.0  0.21970  0.25390  0.58540  1.0000 0.1512375437
C   C53       1.0  0.96900  0.28500  0.33780  1.0000 0.0807277346
C   C54       1.0  0.96160  0.13710  0.21130  1.0000 0.1222075532
C   C55       1.0  0.44320  0.36340  0.38440  1.0000 0.4334643865
C   C56       1.0  0.48230  0.52520  0.50210  1.0000 0.1512375437
C   C57       1.0  0.52660  0.63200  0.57780  1.0000 -0.1703228866
C   C58       1.0  0.46910  0.68190  0.61800  1.0000 -0.0918035423
C   C59       1.0  0.37260  0.62630  0.58190  1.0000 -0.1094479179
C   C60       1.0  0.32690  0.51830  0.50360  1.0000 -0.1788226878
C   C61       1.0  0.38430  0.46970  0.46580  1.0000 0.1512375437
C   C62       1.0  0.38120  0.21900  0.18400  1.0000 0.0807277346
C   C63       1.0  0.50030  0.21160  0.32450  1.0000 0.1222075532
C   C64       1.0  0.97900  0.05880  0.61560  1.0000 0.4334643865
C   C65       1.0  0.02310  0.98020  0.49790  1.0000 0.1512375437
C   C66       1.0  0.05420  0.94880  0.42220  1.0000 -0.1703228866
C   C67       1.0  0.06390  0.85110  0.38200  1.0000 -0.0918035423
C   C68       1.0  0.04440  0.79070  0.41810  1.0000 -0.1094479179
C   C69       1.0  0.01470  0.82330  0.49640  1.0000 -0.1788226878
C   C70       1.0  0.00390  0.91850  0.53420  1.0000 0.1512375437
C   C71       1.0  0.03500  0.19720  0.81600  1.0000 0.0807277346
C   C72       1.0  0.88710  0.17580  0.67550  1.0000 0.1222075532
N   N1        1.0  0.02850  0.63990  0.00380  1.0000 -0.4275514697
N   N2        1.0  0.92850  0.48080  0.93510  1.0000 -0.4185722982
N   N3        1.0  0.86010  0.55640  0.82610  1.0000 -0.0918035423
N   N4        1.0  0.73570  0.60070  0.73580  1.0000 -0.1864602872
N   N5        1.0  0.74990  0.52490  0.65680  1.0000 -0.1788226878
N   N6        1.0  0.08810  0.92050  0.18200  1.0000 0.6865146468
N   N7        1.0  0.63610  0.02470  0.99620  1.0000 -0.4275514697
N   N8        1.0  0.54570  0.99340  0.06490  1.0000 -0.4185722982
N   N9        1.0  0.73030  0.03400  0.17390  1.0000 -0.0918035423
N   N10       1.0  0.86490  0.99990  0.26420  1.0000 -0.1864602872
N   N11       1.0  0.86810  0.09310  0.34320  1.0000 -0.1788226878
N   N12       1.0  0.73850  0.90610  0.81800  1.0000 0.6865146468
N   N13       1.0  0.38990  0.88610  0.11140  1.0000 -0.4275514697
N   N14       1.0  0.23080  0.79570  0.05230  1.0000 -0.4185722982
N   N15       1.0  0.30640  0.98030  0.19630  1.0000 -0.0918035423
N   N16       1.0  0.35070  0.11490  0.36500  1.0000 -0.1864602872
N   N17       1.0  0.27490  0.11810  0.27500  1.0000 -0.1788226878
N   N18       1.0  0.67050  0.98850  0.33240  1.0000 0.6865146468
N   N19       1.0  0.77470  0.27850  0.88860  1.0000 -0.4275514697
N   N20       1.0  0.74340  0.17850  0.94770  1.0000 -0.4185722982
N   N21       1.0  0.78400  0.11010  0.80370  1.0000 -0.0918035423
N   N22       1.0  0.74990  0.98570  0.63500  1.0000 -0.1864602872
N   N23       1.0  0.84310  0.99990  0.72500  1.0000 -0.1788226878
N   N24       1.0  0.65610  0.33810  0.66760  1.0000 0.6865146468
N   N25       1.0  0.72150  0.61010  0.49620  1.0000 -0.4275514697
N   N26       1.0  0.82150  0.76920  0.56490  1.0000 -0.4185722982
N   N27       1.0  0.88990  0.69360  0.67390  1.0000 -0.0918035423
N   N28       1.0  0.01430  0.64930  0.76420  1.0000 -0.1864602872
N   N29       1.0  0.00010  0.72510  0.84320  1.0000 -0.1788226878
N   N30       1.0  0.66190  0.32950  0.31800  1.0000 0.6865146468
N   N31       1.0  0.11390  0.22530  0.50380  1.0000 -0.4275514697
N   N32       1.0  0.20430  0.25660  0.43510  1.0000 -0.4185722982
N   N33       1.0  0.01970  0.21600  0.32610  1.0000 -0.0918035423
N   N34       1.0  0.88510  0.25010  0.23580  1.0000 -0.1864602872
N   N35       1.0  0.88190  0.15690  0.15680  1.0000 -0.1788226878
N   N36       1.0  0.01150  0.34390  0.68200  1.0000 0.6865146468
N   N37       1.0  0.36010  0.36390  0.38860  1.0000 -0.4275514697
N   N38       1.0  0.51920  0.45430  0.44770  1.0000 -0.4185722982
N   N39       1.0  0.44360  0.26970  0.30370  1.0000 -0.0918035423
N   N40       1.0  0.39930  0.13510  0.13500  1.0000 -0.1864602872
N   N41       1.0  0.47510  0.13190  0.22500  1.0000 -0.1788226878
N   N42       1.0  0.07950  0.26150  0.16760  1.0000 0.6865146468
N   N43       1.0  0.97530  0.97150  0.61140  1.0000 -0.4275514697
N   N44       1.0  0.00660  0.07150  0.55230  1.0000 -0.4185722982
N   N45       1.0  0.96600  0.13990  0.69630  1.0000 -0.0918035423
N   N46       1.0  0.00010  0.26430  0.86500  1.0000 -0.1864602872
N   N47       1.0  0.90690  0.25010  0.77500  1.0000 -0.1788226878
N   N48       1.0  0.09390  0.91190  0.83240  1.0000 0.6865146468
O   O1        1.0  0.03750  0.88190  0.07100  1.0000 -0.4527470906
O   O2        1.0  0.07590  0.99500  0.24470  1.0000 -0.3864751076
O   O3        1.0  0.14500  0.87840  0.21760  1.0000 -0.4007724365
O   O4        1.0  0.81090  0.96650  0.92900  1.0000 -0.4527470906
O   O5        1.0  0.75030  0.83120  0.75530  1.0000 -0.3864751076
O   O6        1.0  0.66080  0.92740  0.78240  1.0000 -0.4007724365
O   O7        1.0  0.63190  0.06090  0.34440  1.0000 -0.4527470906
O   O8        1.0  0.74500  0.00030  0.41910  1.0000 -0.3864751076
O   O9        1.0  0.62840  0.91080  0.23340  1.0000 -0.4007724365
O   O10       1.0  0.71650  0.28750  0.65560  1.0000 -0.4527470906
O   O11       1.0  0.58120  0.32590  0.58090  1.0000 -0.3864751076
O   O12       1.0  0.67740  0.39500  0.76660  1.0000 -0.4007724365
O   O13       1.0  0.71250  0.36810  0.42900  1.0000 -0.4527470906
O   O14       1.0  0.67410  0.25500  0.25530  1.0000 -0.3864751076
O   O15       1.0  0.60500  0.37160  0.28240  1.0000 -0.4007724365
O   O16       1.0  0.93910  0.28350  0.57100  1.0000 -0.4527470906
O   O17       1.0  0.99970  0.41880  0.74470  1.0000 -0.3864751076
O   O18       1.0  0.08920  0.32260  0.71760  1.0000 -0.4007724365
O   O19       1.0  0.11810  0.18910  0.15560  1.0000 -0.4527470906
O   O20       1.0  0.00500  0.24970  0.08090  1.0000 -0.3864751076
O   O21       1.0  0.12160  0.33920  0.26660  1.0000 -0.4007724365
O   O22       1.0  0.03350  0.96250  0.84440  1.0000 -0.4527470906
O   O23       1.0  0.16880  0.92410  0.91910  1.0000 -0.3864751076
O   O24       1.0  0.07260  0.85500  0.73340  1.0000 -0.4007724365
