# DDEC6 charges by PACMAN v1.1 (https://github.com/mtap-research/PACMAN-charge/)
data_2021[Co][kgd]2[FSR]1
_chemical_formula_sum              "Co2 H24 C32 N4 O16"
_cell_length_a       14.5982
_cell_length_b       14.5982
_cell_length_c       15.3514
_cell_angle_alpha    62.6057
_cell_angle_beta     117.394
_cell_angle_gamma    162.572

_symmetry_space_group_name_H-M    "P 1"
_symmetry_Int_Tables_number       1

loop_
  _symmetry_equiv_pos_as_xyz
  'x, y, z'

loop_
  _atom_site_type_symbol
  _atom_site_label
  _atom_site_symmetry_multiplicity
  _atom_site_fract_x
  _atom_site_fract_y
  _atom_site_fract_z
  _atom_site_occupancy
  _atom_site_charge
Co  Co1       1.0  0.00000  0.50000  0.00000  1.0000 0.9513135147
Co  Co2       1.0  0.50000  0.00000  0.50000  1.0000 0.9513135147
H   H1        1.0  0.34982  0.36776  0.55942  1.0000 0.3624188792
H   H2        1.0  0.17114  0.55592  0.46574  1.0000 0.2915082876
H   H3        1.0  0.38339  0.69725  0.54786  1.0000 0.2915082876
H   H4        1.0  0.28990  0.72554  0.29787  1.0000 0.1321860146
H   H5        1.0  0.98736  0.23986  0.25784  1.0000 0.1248004627
H   H6        1.0  0.82260  0.03534  0.53145  1.0000 0.1416786317
H   H7        1.0  0.36776  0.34982  0.94058  1.0000 0.3624188792
H   H8        1.0  0.55592  0.17114  0.03426  1.0000 0.2915082876
H   H9        1.0  0.69725  0.38339  0.95214  1.0000 0.2915082876
H   H10       1.0  0.72554  0.28990  0.20213  1.0000 0.1321860146
H   H11       1.0  0.23986  0.98736  0.24216  1.0000 0.1248004627
H   H12       1.0  0.03534  0.82260  0.96855  1.0000 0.1416786317
H   H13       1.0  0.65018  0.63224  0.44058  1.0000 0.3624188792
H   H14       1.0  0.82886  0.44408  0.53426  1.0000 0.2915082876
H   H15       1.0  0.61661  0.30275  0.45214  1.0000 0.2915082876
H   H16       1.0  0.71010  0.27446  0.70213  1.0000 0.1321860146
H   H17       1.0  0.01264  0.76014  0.74216  1.0000 0.1248004627
H   H18       1.0  0.17740  0.96466  0.46855  1.0000 0.1416786317
H   H19       1.0  0.63224  0.65018  0.05942  1.0000 0.3624188792
H   H20       1.0  0.44408  0.82886  0.96574  1.0000 0.2915082876
H   H21       1.0  0.30275  0.61661  0.04786  1.0000 0.2915082876
H   H22       1.0  0.27446  0.71010  0.79787  1.0000 0.1321860146
H   H23       1.0  0.76014  0.01264  0.75784  1.0000 0.1248004627
H   H24       1.0  0.96466  0.17740  0.03145  1.0000 0.1416786317
C   C1        1.0  0.54680  0.95540  0.15190  1.0000 0.569942553
C   C2        1.0  0.62170  0.97170  0.26370  1.0000 -0.0086365519
C   C3        1.0  0.45510  0.83570  0.32460  1.0000 -0.1811750378
C   C4        1.0  0.18600  0.30960  0.44500  1.0000 0.5475660157
C   C5        1.0  0.86910  0.13850  0.30010  1.0000 -0.1091397661
C   C6        1.0  0.53270  0.86250  0.42590  1.0000 0.2618665885
C   C7        1.0  0.77040  0.01760  0.46400  1.0000 -0.205269422
C   C8        1.0  0.93940  0.15260  0.40300  1.0000 -0.0469076695
C   C9        1.0  0.95540  0.54680  0.34810  1.0000 0.569942553
C   C10       1.0  0.97170  0.62170  0.23630  1.0000 -0.0086365519
C   C11       1.0  0.83570  0.45510  0.17540  1.0000 -0.1811750378
C   C12       1.0  0.30960  0.18600  0.05500  1.0000 0.5475660157
C   C13       1.0  0.13850  0.86910  0.19990  1.0000 -0.1091397661
C   C14       1.0  0.86250  0.53270  0.07410  1.0000 0.2618665885
C   C15       1.0  0.01760  0.77040  0.03600  1.0000 -0.2044105041
C   C16       1.0  0.15260  0.93940  0.09700  1.0000 -0.0469076695
C   C17       1.0  0.45320  0.04460  0.84810  1.0000 0.569942553
C   C18       1.0  0.37830  0.02830  0.73630  1.0000 -0.0086365519
C   C19       1.0  0.54490  0.16430  0.67540  1.0000 -0.1811750378
C   C20       1.0  0.81400  0.69040  0.55500  1.0000 0.5475660157
C   C21       1.0  0.13090  0.86150  0.69990  1.0000 -0.1091397661
C   C22       1.0  0.46730  0.13750  0.57410  1.0000 0.2618665885
C   C23       1.0  0.22960  0.98240  0.53600  1.0000 -0.205269422
C   C24       1.0  0.06060  0.84740  0.59700  1.0000 -0.0469076695
C   C25       1.0  0.04460  0.45320  0.65190  1.0000 0.569942553
C   C26       1.0  0.02830  0.37830  0.76370  1.0000 -0.0086365519
C   C27       1.0  0.16430  0.54490  0.82460  1.0000 -0.1811750378
C   C28       1.0  0.69040  0.81400  0.94500  1.0000 0.5475660157
C   C29       1.0  0.86150  0.13090  0.80010  1.0000 -0.1091397661
C   C30       1.0  0.13750  0.46730  0.92590  1.0000 0.2618665885
C   C31       1.0  0.98240  0.22960  0.96400  1.0000 -0.205269422
C   C32       1.0  0.84740  0.06060  0.90300  1.0000 -0.0469076695
N   N1        1.0  0.36840  0.73580  0.48740  1.0000 -0.5946427096
N   N2        1.0  0.73580  0.36840  0.01260  1.0000 -0.5946427096
N   N3        1.0  0.63160  0.26420  0.51260  1.0000 -0.5946427096
N   N4        1.0  0.26420  0.63160  0.98740  1.0000 -0.5946427096
O   O1        1.0  0.74440  0.13780  0.09900  1.0000 -0.5705224383
O   O2        1.0  0.29290  0.76090  0.12080  1.0000 -0.544005971
O   O3        1.0  0.35210  0.44930  0.39260  1.0000 -0.4895492751
O   O4        1.0  0.21630  0.28610  0.54250  1.0000 -0.4494983662
O   O5        1.0  0.13780  0.74440  0.40100  1.0000 -0.5705224383
O   O6        1.0  0.76090  0.29290  0.37920  1.0000 -0.544005971
O   O7        1.0  0.44930  0.35210  0.10740  1.0000 -0.4895492751
O   O8        1.0  0.28610  0.21630  0.95750  1.0000 -0.4494983662
O   O9        1.0  0.25560  0.86220  0.90100  1.0000 -0.5705224383
O   O10       1.0  0.70710  0.23910  0.87920  1.0000 -0.544005971
O   O11       1.0  0.64790  0.55070  0.60740  1.0000 -0.4895492751
O   O12       1.0  0.78370  0.71390  0.45750  1.0000 -0.4494983662
O   O13       1.0  0.86220  0.25560  0.59900  1.0000 -0.5705224383
O   O14       1.0  0.23910  0.70710  0.62080  1.0000 -0.544005971
O   O15       1.0  0.55070  0.64790  0.89260  1.0000 -0.4895492751
O   O16       1.0  0.71390  0.78370  0.04250  1.0000 -0.4494983662
