# DDEC6 charges by PACMAN v1.1 (https://github.com/mtap-research/PACMAN-charge/)
data_2021[Al][nan]3[FSR]17
_chemical_formula_sum              "Al8 H32 C40 N16 O40"
_cell_length_a       12.2013
_cell_length_b       15.3211
_cell_length_c       13.6336
_cell_angle_alpha    90
_cell_angle_beta     102.904
_cell_angle_gamma    90

_symmetry_space_group_name_H-M    "P 1"
_symmetry_Int_Tables_number       1

loop_
  _symmetry_equiv_pos_as_xyz
  'x, y, z'

loop_
  _atom_site_type_symbol
  _atom_site_label
  _atom_site_symmetry_multiplicity
  _atom_site_fract_x
  _atom_site_fract_y
  _atom_site_fract_z
  _atom_site_occupancy
  _atom_site_charge
Al  Al1       1.0  0.26553  0.43930  0.56705  1.0000 1.6093507442
Al  Al2       1.0  0.73447  0.93930  0.93295  1.0000 1.6093507442
Al  Al3       1.0  0.73447  0.56070  0.43295  1.0000 1.6093507442
Al  Al4       1.0  0.26553  0.06070  0.06705  1.0000 1.6093507442
Al  Al5       1.0  0.50000  0.50000  0.50000  1.0000 1.6093507442
Al  Al6       1.0  0.50000  0.00000  0.00000  1.0000 1.6093507442
Al  Al7       1.0  0.00000  0.50000  0.50000  1.0000 1.6045009356
Al  Al8       1.0  0.00000  0.00000  0.00000  1.0000 1.6093507442
H   H1        1.0  0.30945  0.48040  0.40921  1.0000 0.4093563568
H   H2        1.0  0.17353  0.57229  0.50459  1.0000 0.4093563568
H   H3        1.0  0.31302  0.78121  0.84787  1.0000 0.2200863558
H   H4        1.0  0.58025  0.71020  0.75164  1.0000 0.1611621298
H   H5        1.0  0.89875  0.17176  0.20006  1.0000 0.230198608
H   H6        1.0  0.21421  0.21840  0.33413  1.0000 0.1611621298
H   H7        1.0  0.89917  0.28522  0.31472  1.0000 0.230198608
H   H8        1.0  0.26537  0.65627  0.74988  1.0000 0.2429051112
H   H9        1.0  0.69055  0.98040  0.09079  1.0000 0.4093563568
H   H10       1.0  0.82647  0.07229  0.99541  1.0000 0.4093563568
H   H11       1.0  0.68698  0.28121  0.65213  1.0000 0.2200863558
H   H12       1.0  0.41975  0.21020  0.74836  1.0000 0.1611621298
H   H13       1.0  0.10125  0.67176  0.29994  1.0000 0.230198608
H   H14       1.0  0.78579  0.71840  0.16587  1.0000 0.1611621298
H   H15       1.0  0.10083  0.78522  0.18528  1.0000 0.230198608
H   H16       1.0  0.73463  0.15627  0.75012  1.0000 0.2429051112
H   H17       1.0  0.69055  0.51960  0.59079  1.0000 0.4093563568
H   H18       1.0  0.82647  0.42771  0.49541  1.0000 0.4093563568
H   H19       1.0  0.68698  0.21879  0.15213  1.0000 0.2200863558
H   H20       1.0  0.41975  0.28980  0.24836  1.0000 0.1611621298
H   H21       1.0  0.10125  0.82824  0.79994  1.0000 0.230198608
H   H22       1.0  0.78579  0.78160  0.66587  1.0000 0.1611621298
H   H23       1.0  0.10083  0.71478  0.68528  1.0000 0.230198608
H   H24       1.0  0.73463  0.34373  0.25012  1.0000 0.2429051112
H   H25       1.0  0.30945  0.01960  0.90921  1.0000 0.4093563568
H   H26       1.0  0.17353  0.92771  0.00459  1.0000 0.4093563568
H   H27       1.0  0.31302  0.71879  0.34787  1.0000 0.2200863558
H   H28       1.0  0.58025  0.78980  0.25164  1.0000 0.1611621298
H   H29       1.0  0.89875  0.32824  0.70006  1.0000 0.230198608
H   H30       1.0  0.21421  0.28160  0.83413  1.0000 0.1611621298
H   H31       1.0  0.89917  0.21478  0.81472  1.0000 0.230198608
H   H32       1.0  0.26537  0.84373  0.24988  1.0000 0.2429051112
C   C1        1.0  0.52140  0.84780  0.87590  1.0000 0.5897344263
C   C2        1.0  0.41540  0.57790  0.66260  1.0000 0.5897344263
C   C3        1.0  0.09360  0.10580  0.17290  1.0000 0.5969948332
C   C4        1.0  0.09100  0.34590  0.42520  1.0000 0.5897344263
C   C5        1.0  0.50810  0.71180  0.76340  1.0000 -0.2279039387
C   C6        1.0  0.46480  0.77180  0.82120  1.0000 0.01077496
C   C7        1.0  0.06490  0.27560  0.35160  1.0000 0.0013482837
C   C8        1.0  0.42050  0.65530  0.72740  1.0000 0.01077496
C   C9        1.0  0.13620  0.22080  0.31530  1.0000 -0.2279039387
C   C10       1.0  0.06490  0.17020  0.24450  1.0000 0.0226183619
C   C11       1.0  0.47860  0.34780  0.62410  1.0000 0.5897344263
C   C12       1.0  0.58460  0.07790  0.83740  1.0000 0.5897344263
C   C13       1.0  0.90640  0.60580  0.32710  1.0000 0.5969948332
C   C14       1.0  0.90900  0.84590  0.07480  1.0000 0.5897344263
C   C15       1.0  0.49190  0.21180  0.73660  1.0000 -0.2279039387
C   C16       1.0  0.53520  0.27180  0.67880  1.0000 0.01077496
C   C17       1.0  0.93510  0.77560  0.14840  1.0000 0.0013482837
C   C18       1.0  0.57950  0.15530  0.77260  1.0000 0.01077496
C   C19       1.0  0.86380  0.72080  0.18470  1.0000 -0.2279039387
C   C20       1.0  0.93510  0.67020  0.25550  1.0000 0.0226183619
C   C21       1.0  0.47860  0.15220  0.12410  1.0000 0.5897344263
C   C22       1.0  0.58460  0.42210  0.33740  1.0000 0.5897344263
C   C23       1.0  0.90640  0.89420  0.82710  1.0000 0.5969948332
C   C24       1.0  0.90900  0.65410  0.57480  1.0000 0.5897344263
C   C25       1.0  0.49190  0.28820  0.23660  1.0000 -0.2279039387
C   C26       1.0  0.53520  0.22820  0.17880  1.0000 0.01077496
C   C27       1.0  0.93510  0.72440  0.64840  1.0000 0.0013482837
C   C28       1.0  0.57950  0.34470  0.27260  1.0000 0.01077496
C   C29       1.0  0.86380  0.77920  0.68470  1.0000 -0.2279039387
C   C30       1.0  0.93510  0.82980  0.75550  1.0000 0.0226183619
C   C31       1.0  0.52140  0.65220  0.37590  1.0000 0.5897344263
C   C32       1.0  0.41540  0.92210  0.16260  1.0000 0.5897344263
C   C33       1.0  0.09360  0.39420  0.67290  1.0000 0.5969948332
C   C34       1.0  0.09100  0.15410  0.92520  1.0000 0.5897344263
C   C35       1.0  0.50810  0.78820  0.26340  1.0000 -0.2279039387
C   C36       1.0  0.46480  0.72820  0.32120  1.0000 0.01077496
C   C37       1.0  0.06490  0.22440  0.85160  1.0000 0.0013482837
C   C38       1.0  0.42050  0.84470  0.22740  1.0000 0.01077496
C   C39       1.0  0.13620  0.27920  0.81530  1.0000 -0.2279039387
C   C40       1.0  0.06490  0.32980  0.74450  1.0000 0.0226183619
N   N1        1.0  0.35710  0.75260  0.81840  1.0000 -0.1321923759
N   N2        1.0  0.32990  0.68150  0.76220  1.0000 -0.1209631234
N   N3        1.0  0.95760  0.25870  0.30430  1.0000 -0.1209631234
N   N4        1.0  0.95720  0.19420  0.23900  1.0000 -0.1321923759
N   N5        1.0  0.64290  0.25260  0.68160  1.0000 -0.1321923759
N   N6        1.0  0.67010  0.18150  0.73780  1.0000 -0.1209631234
N   N7        1.0  0.04240  0.75870  0.19570  1.0000 -0.1209631234
N   N8        1.0  0.04280  0.69420  0.26100  1.0000 -0.1321923759
N   N9        1.0  0.64290  0.24740  0.18160  1.0000 -0.1321923759
N   N10       1.0  0.67010  0.31850  0.23780  1.0000 -0.1209631234
N   N11       1.0  0.04240  0.74130  0.69570  1.0000 -0.1209631234
N   N12       1.0  0.04280  0.80580  0.76100  1.0000 -0.1321923759
N   N13       1.0  0.35710  0.74740  0.31840  1.0000 -0.1321923759
N   N14       1.0  0.32990  0.81850  0.26220  1.0000 -0.1209631234
N   N15       1.0  0.95760  0.24130  0.80430  1.0000 -0.1209631234
N   N16       1.0  0.95720  0.30580  0.73900  1.0000 -0.1321923759
O   O1        1.0  0.34900  0.47474  0.47560  1.0000 -1.0278097529
O   O2        1.0  0.15130  0.51689  0.52020  1.0000 -1.0278097529
O   O3        1.0  0.19340  0.10400  0.16710  1.0000 -0.560236289
O   O4        1.0  0.62370  0.85541  0.87810  1.0000 -0.5710628409
O   O5        1.0  0.19180  0.35298  0.47310  1.0000 -0.5710628409
O   O6        1.0  0.48980  0.57040  0.61280  1.0000 -0.5710628409
O   O7        1.0  0.46280  0.89879  0.91620  1.0000 -0.6088141341
O   O8        1.0  0.33460  0.52604  0.66070  1.0000 -0.5997996468
O   O9        1.0  0.01390  0.06270  0.12260  1.0000 -0.5997996468
O   O10       1.0  0.01040  0.39300  0.43390  1.0000 -0.5920374382
O   O11       1.0  0.65100  0.97474  0.02440  1.0000 -1.0278097529
O   O12       1.0  0.84870  0.01689  0.97980  1.0000 -1.0278097529
O   O13       1.0  0.80660  0.60400  0.33290  1.0000 -0.560236289
O   O14       1.0  0.37630  0.35541  0.62190  1.0000 -0.5710628409
O   O15       1.0  0.80820  0.85298  0.02690  1.0000 -0.575093462
O   O16       1.0  0.51020  0.07040  0.88720  1.0000 -0.5710628409
O   O17       1.0  0.53720  0.39879  0.58380  1.0000 -0.6088141341
O   O18       1.0  0.66540  0.02604  0.83930  1.0000 -0.5997996468
O   O19       1.0  0.98610  0.56270  0.37740  1.0000 -0.5997996468
O   O20       1.0  0.98960  0.89300  0.06610  1.0000 -0.5920374382
O   O21       1.0  0.65100  0.52526  0.52440  1.0000 -1.0278097529
O   O22       1.0  0.84870  0.48311  0.47980  1.0000 -1.0278097529
O   O23       1.0  0.80660  0.89600  0.83290  1.0000 -0.560236289
O   O24       1.0  0.37630  0.14459  0.12190  1.0000 -0.5710628409
O   O25       1.0  0.80820  0.64702  0.52690  1.0000 -0.575093462
O   O26       1.0  0.51020  0.42960  0.38720  1.0000 -0.5710628409
O   O27       1.0  0.53720  0.10121  0.08380  1.0000 -0.6088141341
O   O28       1.0  0.66540  0.47396  0.33930  1.0000 -0.5997996468
O   O29       1.0  0.98610  0.93730  0.87740  1.0000 -0.5997996468
O   O30       1.0  0.98960  0.60700  0.56610  1.0000 -0.5920374382
O   O31       1.0  0.34900  0.02526  0.97560  1.0000 -1.0278097529
O   O32       1.0  0.15130  0.98311  0.02020  1.0000 -1.0278097529
O   O33       1.0  0.19340  0.39600  0.66710  1.0000 -0.560236289
O   O34       1.0  0.62370  0.64459  0.37810  1.0000 -0.5710628409
O   O35       1.0  0.19180  0.14702  0.97310  1.0000 -0.5710628409
O   O36       1.0  0.48980  0.92960  0.11280  1.0000 -0.5710628409
O   O37       1.0  0.46280  0.60121  0.41620  1.0000 -0.6088141341
O   O38       1.0  0.33460  0.97396  0.16070  1.0000 -0.5997996468
O   O39       1.0  0.01390  0.43730  0.62260  1.0000 -0.5997996468
O   O40       1.0  0.01040  0.10700  0.93390  1.0000 -0.5920374382
