# DDEC6 charges by PACMAN v1.1 (https://github.com/mtap-research/PACMAN-charge/)
data_2021[V][nan]3[FSR]5
_chemical_formula_sum              "V4 H16 C32 O20"
_cell_length_a       12.3205
_cell_length_b       12.3205
_cell_length_c       12.3205
_cell_angle_alpha    103.939
_cell_angle_beta     103.939
_cell_angle_gamma    121.213

_symmetry_space_group_name_H-M    "P 1"
_symmetry_Int_Tables_number       1

loop_
  _symmetry_equiv_pos_as_xyz
  'x, y, z'

loop_
  _atom_site_type_symbol
  _atom_site_label
  _atom_site_symmetry_multiplicity
  _atom_site_fract_x
  _atom_site_fract_y
  _atom_site_fract_z
  _atom_site_occupancy
  _atom_site_charge
V   V1        1.0  0.69085  0.69085  0.38170  1.0000 1.6637746414
V   V2        1.0  0.30915  0.30915  0.61830  1.0000 1.6637746414
V   V3        1.0  0.94085  0.05915  0.50000  1.0000 1.6637746414
V   V4        1.0  0.55915  0.44085  0.50000  1.0000 1.6637746414
H   H1        1.0  0.97902  0.03462  0.17824  1.0000 0.126633322
H   H2        1.0  0.85638  0.80078  0.82176  1.0000 0.126633322
H   H3        1.0  0.28462  0.60638  0.55560  1.0000 0.126633322
H   H4        1.0  0.05078  0.72902  0.44440  1.0000 0.126633322
H   H5        1.0  0.27098  0.94922  0.55560  1.0000 0.126633322
H   H6        1.0  0.39362  0.71538  0.44440  1.0000 0.126633322
H   H7        1.0  0.96538  0.02098  0.82176  1.0000 0.126633322
H   H8        1.0  0.19922  0.14362  0.17824  1.0000 0.126633322
H   H9        1.0  0.93857  0.87500  0.56357  1.0000 0.4252913912
H   H10       1.0  0.31143  0.37500  0.43643  1.0000 0.4252913912
H   H11       1.0  0.12500  0.06143  0.43643  1.0000 0.4252913912
H   H12       1.0  0.62500  0.68857  0.56357  1.0000 0.4252913912
H   H13       1.0  0.62880  0.62880  0.00000  1.0000 0.1469813158
H   H14       1.0  0.87880  0.37880  0.50000  1.0000 0.1469813158
H   H15       1.0  0.62120  0.12120  0.50000  1.0000 0.1469813158
H   H16       1.0  0.37120  0.37120  0.00000  1.0000 0.1469813158
C   C1        1.0  0.80410  0.83170  0.10860  1.0000 -0.0197274211
C   C2        1.0  0.79360  0.84440  0.22880  1.0000 0.6192163547
C   C3        1.0  0.91740  0.94890  0.10690  1.0000 -0.1483516412
C   C4        1.0  0.72310  0.69550  0.89140  1.0000 -0.0197274211
C   C5        1.0  0.61560  0.56480  0.77120  1.0000 0.6192163547
C   C6        1.0  0.84200  0.81050  0.89310  1.0000 -0.1483516412
C   C7        1.0  0.08170  0.47310  0.52760  1.0000 -0.0197274211
C   C8        1.0  0.09440  0.36560  0.55080  1.0000 0.6192163547
C   C9        1.0  0.19890  0.59200  0.53150  1.0000 -0.1483516412
C   C10       1.0  0.94550  0.55410  0.47240  1.0000 -0.0197274211
C   C11       1.0  0.81480  0.54360  0.44920  1.0000 0.6192163547
C   C12       1.0  0.06050  0.66740  0.46850  1.0000 -0.1483516412
C   C13       1.0  0.44590  0.05450  0.52760  1.0000 -0.0197274211
C   C14       1.0  0.45640  0.18520  0.55080  1.0000 0.6192163547
C   C15       1.0  0.33260  0.93950  0.53150  1.0000 -0.1483516412
C   C16       1.0  0.52690  0.91830  0.47240  1.0000 -0.0197274211
C   C17       1.0  0.63440  0.90560  0.44920  1.0000 0.6192163547
C   C18       1.0  0.40800  0.80110  0.46850  1.0000 -0.1483516412
C   C19       1.0  0.16830  0.19590  0.89140  1.0000 -0.0197274211
C   C20       1.0  0.15560  0.20640  0.77120  1.0000 0.6192163547
C   C21       1.0  0.05110  0.08260  0.89310  1.0000 -0.1483516412
C   C22       1.0  0.30450  0.27690  0.10860  1.0000 -0.0197274211
C   C23       1.0  0.43520  0.38440  0.22880  1.0000 0.6192163547
C   C24       1.0  0.18950  0.15800  0.10690  1.0000 -0.1483516412
C   C25       1.0  0.93880  0.93880  0.00000  1.0000 0.0678805654
C   C26       1.0  0.70570  0.70570  0.00000  1.0000 -0.1013921926
C   C27       1.0  0.18880  0.68880  0.50000  1.0000 0.0678805654
C   C28       1.0  0.95570  0.45570  0.50000  1.0000 -0.1013921926
C   C29       1.0  0.31120  0.81120  0.50000  1.0000 0.0678805654
C   C30       1.0  0.54430  0.04430  0.50000  1.0000 -0.1013921926
C   C31       1.0  0.06120  0.06120  0.00000  1.0000 0.0678805654
C   C32       1.0  0.29430  0.29430  0.00000  1.0000 -0.1013921926
O   O1        1.0  0.85661  0.96671  0.31212  1.0000 -0.6030102054
O   O2        1.0  0.72580  0.73096  0.23936  1.0000 -0.5837592165
O   O3        1.0  0.65459  0.54449  0.68788  1.0000 -0.6030102054
O   O4        1.0  0.49160  0.48644  0.76064  1.0000 -0.5837592165
O   O5        1.0  0.21671  0.40459  0.61010  1.0000 -0.6030102054
O   O6        1.0  0.98096  0.24160  0.50516  1.0000 -0.5837592165
O   O7        1.0  0.79449  0.60661  0.38990  1.0000 -0.6030102054
O   O8        1.0  0.73644  0.47580  0.49484  1.0000 -0.5837592165
O   O9        1.0  0.39339  0.20551  0.61010  1.0000 -0.6030102054
O   O10       1.0  0.52420  0.26356  0.50516  1.0000 -0.5837592165
O   O11       1.0  0.59541  0.78329  0.38990  1.0000 -0.6030102054
O   O12       1.0  0.75840  0.01904  0.49484  1.0000 -0.5837592165
O   O13       1.0  0.03329  0.14339  0.68788  1.0000 -0.6030102054
O   O14       1.0  0.26904  0.27420  0.76064  1.0000 -0.5837592165
O   O15       1.0  0.45551  0.34541  0.31212  1.0000 -0.6030102054
O   O16       1.0  0.51356  0.50840  0.23936  1.0000 -0.5837592165
O   O17       1.0  0.87530  0.87500  0.50030  1.0000 -0.9845381061
O   O18       1.0  0.37470  0.37500  0.49970  1.0000 -0.9845381061
O   O19       1.0  0.12500  0.12470  0.49970  1.0000 -0.9845381061
O   O20       1.0  0.62500  0.62530  0.50030  1.0000 -0.9845381061
