# DDEC6 charges by PACMAN v1.1 (https://github.com/mtap-research/PACMAN-charge/)
data_2021[Co][pcu]3[FSR]5
_chemical_formula_sum              "Co4 H64 C104 N8 O16"
_cell_length_a       8.128
_cell_length_b       30.382
_cell_length_c       11.9113
_cell_angle_alpha    90
_cell_angle_beta     113.823
_cell_angle_gamma    90

_symmetry_space_group_name_H-M    "P 1"
_symmetry_Int_Tables_number       1

loop_
  _symmetry_equiv_pos_as_xyz
  'x, y, z'

loop_
  _atom_site_type_symbol
  _atom_site_label
  _atom_site_symmetry_multiplicity
  _atom_site_fract_x
  _atom_site_fract_y
  _atom_site_fract_z
  _atom_site_occupancy
  _atom_site_charge
Co  Co1       1.0  0.61308  0.54143  0.91438  1.0000 0.8388416201
Co  Co2       1.0  0.38692  0.04143  0.58562  1.0000 0.8388416201
Co  Co3       1.0  0.38692  0.45857  0.08562  1.0000 0.8388416201
Co  Co4       1.0  0.61308  0.95857  0.41438  1.0000 0.8388416201
H   H1        1.0  0.41780  0.63750  0.98990  1.0000 0.1214824013
H   H2        1.0  0.33430  0.70530  0.04360  1.0000 0.1214824013
H   H3        1.0  0.10960  0.64250  0.24610  1.0000 0.1092400444
H   H4        1.0  0.19440  0.57530  0.19230  1.0000 0.1092400444
H   H5        1.0  0.99870  0.89570  0.25620  1.0000 0.1214824013
H   H6        1.0  0.12610  0.83860  0.19250  1.0000 0.1214824013
H   H7        1.0  0.88370  0.75120  0.33210  1.0000 0.1214824013
H   H8        1.0  0.75250  0.80870  0.39290  1.0000 0.1288858514
H   H9        1.0  0.70800  0.59460  0.15030  1.0000 0.1004442391
H   H10       1.0  0.89120  0.59370  0.35570  1.0000 0.1288858514
H   H11       1.0  0.12600  0.48490  0.29700  1.0000 0.1288858514
H   H12       1.0  0.93490  0.48800  0.09350  1.0000 0.1092400444
H   H13       1.0  0.50350  0.48640  0.67680  1.0000 0.1092400444
H   H14       1.0  0.29540  0.48380  0.47770  1.0000 0.1288858514
H   H15       1.0  0.07160  0.59240  0.53980  1.0000 0.1214824013
H   H16       1.0  0.28460  0.59200  0.73800  1.0000 0.1092400444
H   H17       1.0  0.58220  0.13750  0.51010  1.0000 0.1214824013
H   H18       1.0  0.66570  0.20530  0.45640  1.0000 0.1214824013
H   H19       1.0  0.89040  0.14250  0.25390  1.0000 0.1092400444
H   H20       1.0  0.80560  0.07530  0.30770  1.0000 0.1092400444
H   H21       1.0  0.00130  0.39570  0.24380  1.0000 0.1214824013
H   H22       1.0  0.87390  0.33860  0.30750  1.0000 0.1214824013
H   H23       1.0  0.11630  0.25120  0.16790  1.0000 0.1214824013
H   H24       1.0  0.24750  0.30870  0.10710  1.0000 0.1288858514
H   H25       1.0  0.29200  0.09460  0.34970  1.0000 0.1004442391
H   H26       1.0  0.10880  0.09370  0.14430  1.0000 0.1288858514
H   H27       1.0  0.87400  0.98490  0.20300  1.0000 0.1288858514
H   H28       1.0  0.06510  0.98800  0.40650  1.0000 0.1092400444
H   H29       1.0  0.49650  0.98640  0.82320  1.0000 0.1092400444
H   H30       1.0  0.70460  0.98380  0.02230  1.0000 0.1288858514
H   H31       1.0  0.92840  0.09240  0.96020  1.0000 0.1214824013
H   H32       1.0  0.71540  0.09200  0.76200  1.0000 0.1092400444
H   H33       1.0  0.58220  0.36250  0.01010  1.0000 0.1214824013
H   H34       1.0  0.66570  0.29470  0.95640  1.0000 0.1214824013
H   H35       1.0  0.89040  0.35750  0.75390  1.0000 0.1092400444
H   H36       1.0  0.80560  0.42470  0.80770  1.0000 0.1092400444
H   H37       1.0  0.00130  0.10430  0.74380  1.0000 0.1214824013
H   H38       1.0  0.87390  0.16140  0.80750  1.0000 0.1214824013
H   H39       1.0  0.11630  0.24880  0.66790  1.0000 0.1214824013
H   H40       1.0  0.24750  0.19130  0.60710  1.0000 0.1288858514
H   H41       1.0  0.29200  0.40540  0.84970  1.0000 0.1004442391
H   H42       1.0  0.10880  0.40630  0.64430  1.0000 0.1288858514
H   H43       1.0  0.87400  0.51510  0.70300  1.0000 0.1288858514
H   H44       1.0  0.06510  0.51200  0.90650  1.0000 0.1092400444
H   H45       1.0  0.49650  0.51360  0.32320  1.0000 0.1092400444
H   H46       1.0  0.70460  0.51620  0.52230  1.0000 0.1288858514
H   H47       1.0  0.92840  0.40760  0.46020  1.0000 0.1214824013
H   H48       1.0  0.71540  0.40800  0.26200  1.0000 0.1092400444
H   H49       1.0  0.41780  0.86250  0.48990  1.0000 0.1214824013
H   H50       1.0  0.33430  0.79470  0.54360  1.0000 0.1214824013
H   H51       1.0  0.10960  0.85750  0.74610  1.0000 0.1092400444
H   H52       1.0  0.19440  0.92470  0.69230  1.0000 0.1092400444
H   H53       1.0  0.99870  0.60430  0.75620  1.0000 0.1214824013
H   H54       1.0  0.12610  0.66140  0.69250  1.0000 0.1214824013
H   H55       1.0  0.88370  0.74880  0.83210  1.0000 0.1214824013
H   H56       1.0  0.75250  0.69130  0.89290  1.0000 0.1288858514
H   H57       1.0  0.70800  0.90540  0.65030  1.0000 0.1004442391
H   H58       1.0  0.89120  0.90630  0.85570  1.0000 0.1288858514
H   H59       1.0  0.12600  0.01510  0.79700  1.0000 0.1288858514
H   H60       1.0  0.93490  0.01200  0.59350  1.0000 0.1092400444
H   H61       1.0  0.50350  0.01360  0.17680  1.0000 0.1092400444
H   H62       1.0  0.29540  0.01620  0.97770  1.0000 0.1288858514
H   H63       1.0  0.07160  0.90760  0.03980  1.0000 0.1214824013
H   H64       1.0  0.28460  0.90800  0.23800  1.0000 0.1092400444
C   C1        1.0  0.35870  0.55636  0.04900  1.0000 0.5630303204
C   C2        1.0  0.30980  0.60016  0.08490  1.0000 -0.027599369
C   C3        1.0  0.35420  0.63858  0.04150  1.0000 -0.0988433475
C   C4        1.0  0.30470  0.67891  0.07400  1.0000 -0.1420076273
C   C5        1.0  0.21350  0.68124  0.14960  1.0000 0.1404272496
C   C6        1.0  0.17190  0.64180  0.19370  1.0000 -0.1474629462
C   C7        1.0  0.22170  0.60184  0.16120  1.0000 -0.0988433475
C   C8        1.0  0.15270  0.72171  0.18280  1.0000 -0.0988433475
C   C9        1.0  0.09520  0.75312  0.21570  1.0000 -0.1072861653
C   C10       1.0  0.85870  0.85801  0.32830  1.0000 -0.006666729
C   C11       1.0  0.97330  0.86615  0.27030  1.0000 -0.0988433475
C   C12       1.0  0.04990  0.83238  0.23350  1.0000 -0.1474629462
C   C13       1.0  0.01820  0.78908  0.25490  1.0000 0.1404272496
C   C14       1.0  0.90600  0.78066  0.31560  1.0000 -0.1420076273
C   C15       1.0  0.82830  0.81479  0.35150  1.0000 -0.0943257928
C   C16       1.0  0.76980  0.89524  0.36400  1.0000 0.531897533
C   C17       1.0  0.79420  0.57169  0.18100  1.0000 0.0784615097
C   C18       1.0  0.90460  0.57161  0.30360  1.0000 -0.206527381
C   C19       1.0  0.03650  0.53940  0.35260  1.0000 0.1004442391
C   C20       1.0  0.04100  0.50816  0.26930  1.0000 -0.1878040031
C   C21       1.0  0.92560  0.50996  0.14750  1.0000 0.1092400444
C   C22       1.0  0.41470  0.50882  0.64890  1.0000 0.0784615097
C   C23       1.0  0.29140  0.50744  0.52880  1.0000 -0.206527381
C   C24       1.0  0.16340  0.53922  0.48150  1.0000 0.1004442391
C   C25       1.0  0.16160  0.57019  0.56460  1.0000 -0.206527381
C   C26       1.0  0.28900  0.56952  0.68390  1.0000 0.0784615097
C   C27       1.0  0.64130  0.05636  0.45100  1.0000 0.5630303204
C   C28       1.0  0.69020  0.10016  0.41510  1.0000 -0.027599369
C   C29       1.0  0.64580  0.13858  0.45850  1.0000 -0.0988433475
C   C30       1.0  0.69530  0.17891  0.42600  1.0000 -0.1420076273
C   C31       1.0  0.78650  0.18124  0.35040  1.0000 0.1404272496
C   C32       1.0  0.82810  0.14180  0.30630  1.0000 -0.1474629462
C   C33       1.0  0.77830  0.10184  0.33880  1.0000 -0.0988433475
C   C34       1.0  0.84730  0.22171  0.31720  1.0000 -0.0988433475
C   C35       1.0  0.90480  0.25312  0.28430  1.0000 -0.1072861653
C   C36       1.0  0.14130  0.35801  0.17170  1.0000 -0.006666729
C   C37       1.0  0.02670  0.36615  0.22970  1.0000 -0.0988433475
C   C38       1.0  0.95010  0.33238  0.26650  1.0000 -0.1474629462
C   C39       1.0  0.98180  0.28908  0.24510  1.0000 0.1404272496
C   C40       1.0  0.09400  0.28066  0.18440  1.0000 -0.1420076273
C   C41       1.0  0.17170  0.31479  0.14850  1.0000 -0.0943257928
C   C42       1.0  0.23020  0.39524  0.13600  1.0000 0.531897533
C   C43       1.0  0.20580  0.07169  0.31900  1.0000 0.0784615097
C   C44       1.0  0.09540  0.07161  0.19640  1.0000 -0.206527381
C   C45       1.0  0.96350  0.03940  0.14740  1.0000 0.1004442391
C   C46       1.0  0.95900  0.00816  0.23070  1.0000 -0.1878040031
C   C47       1.0  0.07440  0.00996  0.35250  1.0000 0.1092400444
C   C48       1.0  0.58530  0.00882  0.85110  1.0000 0.0784615097
C   C49       1.0  0.70860  0.00744  0.97120  1.0000 -0.206527381
C   C50       1.0  0.83660  0.03922  0.01850  1.0000 0.1004442391
C   C51       1.0  0.83840  0.07019  0.93540  1.0000 -0.206527381
C   C52       1.0  0.71100  0.06952  0.81610  1.0000 0.0784615097
C   C53       1.0  0.64130  0.44364  0.95100  1.0000 0.5630303204
C   C54       1.0  0.69020  0.39984  0.91510  1.0000 -0.027599369
C   C55       1.0  0.64580  0.36142  0.95850  1.0000 -0.0988433475
C   C56       1.0  0.69530  0.32109  0.92600  1.0000 -0.1420076273
C   C57       1.0  0.78650  0.31876  0.85040  1.0000 0.1404272496
C   C58       1.0  0.82810  0.35820  0.80630  1.0000 -0.1474629462
C   C59       1.0  0.77830  0.39816  0.83880  1.0000 -0.0988433475
C   C60       1.0  0.84730  0.27829  0.81720  1.0000 -0.0988433475
C   C61       1.0  0.90480  0.24688  0.78430  1.0000 -0.1072861653
C   C62       1.0  0.14130  0.14199  0.67170  1.0000 -0.006666729
C   C63       1.0  0.02670  0.13385  0.72970  1.0000 -0.0988433475
C   C64       1.0  0.95010  0.16762  0.76650  1.0000 -0.1474629462
C   C65       1.0  0.98180  0.21092  0.74510  1.0000 0.1404272496
C   C66       1.0  0.09400  0.21934  0.68440  1.0000 -0.1420076273
C   C67       1.0  0.17170  0.18521  0.64850  1.0000 -0.0943257928
C   C68       1.0  0.23020  0.10476  0.63600  1.0000 0.531897533
C   C69       1.0  0.20580  0.42831  0.81900  1.0000 0.0784615097
C   C70       1.0  0.09540  0.42839  0.69640  1.0000 -0.206527381
C   C71       1.0  0.96350  0.46060  0.64740  1.0000 0.1004442391
C   C72       1.0  0.95900  0.49184  0.73070  1.0000 -0.1878040031
C   C73       1.0  0.07440  0.49004  0.85250  1.0000 0.1092400444
C   C74       1.0  0.58530  0.49118  0.35110  1.0000 0.0784615097
C   C75       1.0  0.70860  0.49256  0.47120  1.0000 -0.206527381
C   C76       1.0  0.83660  0.46078  0.51850  1.0000 0.1004442391
C   C77       1.0  0.83840  0.42981  0.43540  1.0000 -0.206527381
C   C78       1.0  0.71100  0.43048  0.31610  1.0000 0.0784615097
C   C79       1.0  0.35870  0.94364  0.54900  1.0000 0.5630303204
C   C80       1.0  0.30980  0.89984  0.58490  1.0000 -0.027599369
C   C81       1.0  0.35420  0.86142  0.54150  1.0000 -0.0988433475
C   C82       1.0  0.30470  0.82109  0.57400  1.0000 -0.1420076273
C   C83       1.0  0.21350  0.81876  0.64960  1.0000 0.1404272496
C   C84       1.0  0.17190  0.85820  0.69370  1.0000 -0.1474629462
C   C85       1.0  0.22170  0.89816  0.66120  1.0000 -0.0988433475
C   C86       1.0  0.15270  0.77829  0.68280  1.0000 -0.0988433475
C   C87       1.0  0.09520  0.74688  0.71570  1.0000 -0.1072861653
C   C88       1.0  0.85870  0.64199  0.82830  1.0000 -0.006666729
C   C89       1.0  0.97330  0.63385  0.77030  1.0000 -0.0988433475
C   C90       1.0  0.04990  0.66762  0.73350  1.0000 -0.1474629462
C   C91       1.0  0.01820  0.71092  0.75490  1.0000 0.1404272496
C   C92       1.0  0.90600  0.71934  0.81560  1.0000 -0.1420076273
C   C93       1.0  0.82830  0.68521  0.85150  1.0000 -0.0943257928
C   C94       1.0  0.76980  0.60476  0.86400  1.0000 0.531897533
C   C95       1.0  0.79420  0.92831  0.68100  1.0000 0.0784615097
C   C96       1.0  0.90460  0.92839  0.80360  1.0000 -0.206527381
C   C97       1.0  0.03650  0.96060  0.85260  1.0000 0.1004442391
C   C98       1.0  0.04100  0.99184  0.76930  1.0000 -0.1878040031
C   C99       1.0  0.92560  0.99004  0.64750  1.0000 0.1092400444
C   C100      1.0  0.41470  0.99118  0.14890  1.0000 0.0784615097
C   C101      1.0  0.29140  0.99256  0.02880  1.0000 -0.206527381
C   C102      1.0  0.16340  0.96078  0.98150  1.0000 0.1004442391
C   C103      1.0  0.16160  0.92981  0.06460  1.0000 -0.206527381
C   C104      1.0  0.28900  0.93048  0.18390  1.0000 0.0784615097
N   N1        1.0  0.80182  0.54105  0.10232  1.0000 -0.2420431532
N   N2        1.0  0.41668  0.53955  0.72748  1.0000 -0.206527381
N   N3        1.0  0.19818  0.04105  0.39768  1.0000 -0.2420431532
N   N4        1.0  0.58332  0.03955  0.77252  1.0000 -0.206527381
N   N5        1.0  0.19818  0.45895  0.89768  1.0000 -0.2420431532
N   N6        1.0  0.58332  0.46045  0.27252  1.0000 -0.206527381
N   N7        1.0  0.80182  0.95895  0.60232  1.0000 -0.2420431532
N   N8        1.0  0.41668  0.96045  0.22748  1.0000 -0.206527381
O   O1        1.0  0.40879  0.55517  0.96249  1.0000 -0.5567578197
O   O2        1.0  0.34276  0.52332  0.10716  1.0000 -0.5469121903
O   O3        1.0  0.80798  0.93441  0.34928  1.0000 -0.540700008
O   O4        1.0  0.65280  0.88707  0.40520  1.0000 -0.540700008
O   O5        1.0  0.59121  0.05517  0.53751  1.0000 -0.5567578197
O   O6        1.0  0.65724  0.02332  0.39284  1.0000 -0.5469121903
O   O7        1.0  0.19202  0.43441  0.15072  1.0000 -0.540700008
O   O8        1.0  0.34720  0.38707  0.09480  1.0000 -0.540700008
O   O9        1.0  0.59121  0.44483  0.03751  1.0000 -0.5567578197
O   O10       1.0  0.65724  0.47668  0.89284  1.0000 -0.5469121903
O   O11       1.0  0.19202  0.06559  0.65072  1.0000 -0.540700008
O   O12       1.0  0.34720  0.11293  0.59480  1.0000 -0.540700008
O   O13       1.0  0.40879  0.94483  0.46249  1.0000 -0.5567578197
O   O14       1.0  0.34276  0.97668  0.60716  1.0000 -0.5469121903
O   O15       1.0  0.80798  0.56559  0.84928  1.0000 -0.540700008
O   O16       1.0  0.65280  0.61293  0.90520  1.0000 -0.540700008
