# DDEC6 charges by PACMAN v1.1 (https://github.com/mtap-research/PACMAN-charge/)
data_2021[V][nan]3[FSR]10
_chemical_formula_sum              "V4 H12 C32 O20"
_cell_length_a       12.2182
_cell_length_b       12.2182
_cell_length_c       12.2182
_cell_angle_alpha    103.894
_cell_angle_beta     103.894
_cell_angle_gamma    121.315

_symmetry_space_group_name_H-M    "P 1"
_symmetry_Int_Tables_number       1

loop_
  _symmetry_equiv_pos_as_xyz
  'x, y, z'

loop_
  _atom_site_type_symbol
  _atom_site_label
  _atom_site_symmetry_multiplicity
  _atom_site_fract_x
  _atom_site_fract_y
  _atom_site_fract_z
  _atom_site_occupancy
  _atom_site_charge
V   V1        1.0  0.69611  0.69611  0.39222  1.0000 1.8594274563
V   V2        1.0  0.30389  0.30389  0.60778  1.0000 1.8594274563
V   V3        1.0  0.94611  0.05389  0.50000  1.0000 1.8594274563
V   V4        1.0  0.55389  0.44611  0.50000  1.0000 1.8594274563
H   H1        1.0  0.98166  0.03298  0.18108  1.0000 0.1353522731
H   H2        1.0  0.85190  0.80058  0.81892  1.0000 0.1353522731
H   H3        1.0  0.28298  0.60190  0.55132  1.0000 0.1353522731
H   H4        1.0  0.05058  0.73166  0.44868  1.0000 0.1353522731
H   H5        1.0  0.26834  0.94942  0.55132  1.0000 0.1353522731
H   H6        1.0  0.39810  0.71702  0.44868  1.0000 0.1353522731
H   H7        1.0  0.96702  0.01834  0.81892  1.0000 0.1353522731
H   H8        1.0  0.19942  0.14810  0.18108  1.0000 0.1353522731
H   H9        1.0  0.62538  0.62538  0.00000  1.0000 0.1456953031
H   H10       1.0  0.87538  0.37538  0.50000  1.0000 0.1456953031
H   H11       1.0  0.62462  0.12462  0.50000  1.0000 0.1456953031
H   H12       1.0  0.37462  0.37462  0.00000  1.0000 0.1456953031
C   C1        1.0  0.80310  0.83010  0.10920  1.0000 -0.0160579517
C   C2        1.0  0.79450  0.84280  0.23130  1.0000 0.6268092511
C   C3        1.0  0.91780  0.94740  0.10840  1.0000 -0.1291804793
C   C4        1.0  0.72090  0.69390  0.89080  1.0000 -0.0160579517
C   C5        1.0  0.61150  0.56320  0.76870  1.0000 0.6268092511
C   C6        1.0  0.83900  0.80940  0.89160  1.0000 -0.1291804793
C   C7        1.0  0.08010  0.47090  0.52700  1.0000 -0.0160579517
C   C8        1.0  0.09280  0.36150  0.54830  1.0000 0.6268092511
C   C9        1.0  0.19740  0.58900  0.52960  1.0000 -0.1291804793
C   C10       1.0  0.94390  0.55310  0.47300  1.0000 -0.0160579517
C   C11       1.0  0.81320  0.54450  0.45170  1.0000 0.6268092511
C   C12       1.0  0.05940  0.66780  0.47040  1.0000 -0.1291804793
C   C13       1.0  0.44690  0.05610  0.52700  1.0000 -0.0160579517
C   C14       1.0  0.45550  0.18680  0.54830  1.0000 0.6268092511
C   C15       1.0  0.33220  0.94060  0.52960  1.0000 -0.1291804793
C   C16       1.0  0.52910  0.91990  0.47300  1.0000 -0.0160579517
C   C17       1.0  0.63850  0.90720  0.45170  1.0000 0.6268092511
C   C18       1.0  0.41100  0.80260  0.47040  1.0000 -0.1291804793
C   C19       1.0  0.16990  0.19690  0.89080  1.0000 -0.0160579517
C   C20       1.0  0.15720  0.20550  0.76870  1.0000 0.6268092511
C   C21       1.0  0.05260  0.08220  0.89160  1.0000 -0.1291804793
C   C22       1.0  0.30610  0.27910  0.10920  1.0000 -0.0160579517
C   C23       1.0  0.43680  0.38850  0.23130  1.0000 0.6268092511
C   C24       1.0  0.19060  0.16100  0.10840  1.0000 -0.1291804793
C   C25       1.0  0.93770  0.93770  0.00000  1.0000 0.0624630475
C   C26       1.0  0.70300  0.70300  0.00000  1.0000 -0.0976543291
C   C27       1.0  0.18770  0.68770  0.50000  1.0000 0.0624630475
C   C28       1.0  0.95300  0.45300  0.50000  1.0000 -0.0976543291
C   C29       1.0  0.31230  0.81230  0.50000  1.0000 0.0624630475
C   C30       1.0  0.54700  0.04700  0.50000  1.0000 -0.0976543291
C   C31       1.0  0.06230  0.06230  0.00000  1.0000 0.0624630475
C   C32       1.0  0.29700  0.29700  0.00000  1.0000 -0.0976543291
O   O1        1.0  0.85883  0.96831  0.31474  1.0000 -0.5827056723
O   O2        1.0  0.72762  0.72946  0.24336  1.0000 -0.5563708576
O   O3        1.0  0.65357  0.54409  0.68526  1.0000 -0.5827056723
O   O4        1.0  0.48610  0.48426  0.75664  1.0000 -0.5563708576
O   O5        1.0  0.21831  0.40357  0.60948  1.0000 -0.5827056723
O   O6        1.0  0.97946  0.23610  0.50184  1.0000 -0.5563708576
O   O7        1.0  0.79409  0.60883  0.39052  1.0000 -0.5827056723
O   O8        1.0  0.73426  0.47762  0.49816  1.0000 -0.5563708576
O   O9        1.0  0.39117  0.20591  0.60948  1.0000 -0.5827056723
O   O10       1.0  0.52238  0.26574  0.50184  1.0000 -0.5563708576
O   O11       1.0  0.59643  0.78169  0.39052  1.0000 -0.5827056723
O   O12       1.0  0.76390  0.02054  0.49816  1.0000 -0.5563708576
O   O13       1.0  0.03169  0.14117  0.68526  1.0000 -0.5827056723
O   O14       1.0  0.27054  0.27238  0.75664  1.0000 -0.5563708576
O   O15       1.0  0.45591  0.34643  0.31474  1.0000 -0.5827056723
O   O16       1.0  0.51574  0.51390  0.24336  1.0000 -0.5563708576
O   O17       1.0  0.86830  0.87500  0.49330  1.0000 -0.9244914012
O   O18       1.0  0.38170  0.37500  0.50670  1.0000 -0.9260023392
O   O19       1.0  0.12500  0.13170  0.50670  1.0000 -0.9260023392
O   O20       1.0  0.62500  0.61830  0.49330  1.0000 -0.9260023392
