# DDEC6 charges by PACMAN v1.1 (https://github.com/mtap-research/PACMAN-charge/)
data_2021[Zn][dia]3[FSR]3
_chemical_formula_sum              "Zn4 H48 C72 N24 O16"
_cell_length_a       11.1291
_cell_length_b       11.836
_cell_length_c       17.9779
_cell_angle_alpha    90
_cell_angle_beta     90
_cell_angle_gamma    90

_symmetry_space_group_name_H-M    "P 1"
_symmetry_Int_Tables_number       1

loop_
  _symmetry_equiv_pos_as_xyz
  'x, y, z'

loop_
  _atom_site_type_symbol
  _atom_site_label
  _atom_site_symmetry_multiplicity
  _atom_site_fract_x
  _atom_site_fract_y
  _atom_site_fract_z
  _atom_site_occupancy
  _atom_site_charge
Zn  Zn1       1.0  0.95127  0.50503  0.44207  1.0000 0.7575794696
Zn  Zn2       1.0  0.45127  0.99497  0.94207  1.0000 0.7575794696
Zn  Zn3       1.0  0.45127  0.49497  0.55793  1.0000 0.7575794696
Zn  Zn4       1.0  0.95127  0.00503  0.05793  1.0000 0.7575794696
H   H1        1.0  0.87410  0.76500  0.66870  1.0000 0.1136721834
H   H2        1.0  0.96280  0.85570  0.76960  1.0000 0.1221399232
H   H3        1.0  0.28460  0.75210  0.70040  1.0000 0.1221399232
H   H4        1.0  0.19780  0.67050  0.59810  1.0000 0.1221399232
H   H5        1.0  0.34860  0.91280  0.78380  1.0000 0.1285151816
H   H6        1.0  0.19190  0.89320  0.97460  1.0000 0.1285151816
H   H7        1.0  0.25720  0.48210  0.27100  1.0000 0.1221399232
H   H8        1.0  0.36630  0.41900  0.16880  1.0000 0.1391823405
H   H9        1.0  0.13700  0.16400  0.14760  1.0000 0.1285151816
H   H10       1.0  0.02680  0.23270  0.24610  1.0000 0.1136721834
H   H11       1.0  0.30280  0.07280  0.08790  1.0000 0.1285151816
H   H12       1.0  0.46010  0.26360  0.94340  1.0000 0.1221399232
H   H13       1.0  0.37410  0.73500  0.16870  1.0000 0.1136721834
H   H14       1.0  0.46280  0.64430  0.26960  1.0000 0.1221399232
H   H15       1.0  0.78460  0.74790  0.20040  1.0000 0.1221399232
H   H16       1.0  0.69780  0.82950  0.09810  1.0000 0.1221399232
H   H17       1.0  0.84860  0.58720  0.28380  1.0000 0.1285151816
H   H18       1.0  0.69190  0.60680  0.47460  1.0000 0.1285151816
H   H19       1.0  0.75720  0.01790  0.77100  1.0000 0.1221399232
H   H20       1.0  0.86630  0.08100  0.66880  1.0000 0.1391823405
H   H21       1.0  0.63700  0.33600  0.64760  1.0000 0.1285151816
H   H22       1.0  0.52680  0.26730  0.74610  1.0000 0.1136721834
H   H23       1.0  0.80280  0.42720  0.58790  1.0000 0.1285151816
H   H24       1.0  0.96010  0.23640  0.44340  1.0000 0.1221399232
H   H25       1.0  0.37410  0.23500  0.33130  1.0000 0.1136721834
H   H26       1.0  0.46280  0.14430  0.23040  1.0000 0.1221399232
H   H27       1.0  0.78460  0.24790  0.29960  1.0000 0.1221399232
H   H28       1.0  0.69780  0.32950  0.40190  1.0000 0.1221399232
H   H29       1.0  0.84860  0.08720  0.21620  1.0000 0.1285151816
H   H30       1.0  0.69190  0.10680  0.02540  1.0000 0.1285151816
H   H31       1.0  0.75720  0.51790  0.72900  1.0000 0.1221399232
H   H32       1.0  0.86630  0.58100  0.83120  1.0000 0.1391823405
H   H33       1.0  0.63700  0.83600  0.85240  1.0000 0.1285151816
H   H34       1.0  0.52680  0.76730  0.75390  1.0000 0.1136721834
H   H35       1.0  0.80280  0.92720  0.91210  1.0000 0.1285151816
H   H36       1.0  0.96010  0.73640  0.05660  1.0000 0.1221399232
H   H37       1.0  0.87410  0.26500  0.83130  1.0000 0.1136721834
H   H38       1.0  0.96280  0.35570  0.73040  1.0000 0.1221399232
H   H39       1.0  0.28460  0.25210  0.79960  1.0000 0.1221399232
H   H40       1.0  0.19780  0.17050  0.90190  1.0000 0.1221399232
H   H41       1.0  0.34860  0.41280  0.71620  1.0000 0.1285151816
H   H42       1.0  0.19190  0.39320  0.52540  1.0000 0.1285151816
H   H43       1.0  0.25720  0.98210  0.22900  1.0000 0.1221399232
H   H44       1.0  0.36630  0.91900  0.33120  1.0000 0.1391823405
H   H45       1.0  0.13700  0.66400  0.35240  1.0000 0.1285151816
H   H46       1.0  0.02680  0.73270  0.25390  1.0000 0.1136721834
H   H47       1.0  0.30280  0.57280  0.41210  1.0000 0.1285151816
H   H48       1.0  0.46010  0.76360  0.55660  1.0000 0.1221399232
C   C1        1.0  0.96970  0.64240  0.56120  1.0000 0.5418379246
C   C2        1.0  0.02700  0.70640  0.62370  1.0000 -0.0188257498
C   C3        1.0  0.95700  0.76260  0.67490  1.0000 -0.0917046708
C   C4        1.0  0.00960  0.81580  0.73570  1.0000 -0.1776925696
C   C5        1.0  0.13210  0.80840  0.74480  1.0000 0.1285151816
C   C6        1.0  0.20170  0.75510  0.69410  1.0000 -0.1709644594
C   C7        1.0  0.14950  0.70550  0.63340  1.0000 -0.0917046708
C   C8        1.0  0.29260  0.89980  0.82130  1.0000 0.1031862633
C   C9        1.0  0.20560  0.88780  0.92370  1.0000 0.1609409093
C   C10       1.0  0.05100  0.40670  0.32960  1.0000 0.5334797143
C   C11       1.0  0.13030  0.36510  0.26730  1.0000 -0.0188257498
C   C12       1.0  0.23120  0.41870  0.24510  1.0000 -0.0917046708
C   C13       1.0  0.29740  0.38100  0.18390  1.0000 -0.1776925696
C   C14       1.0  0.25900  0.28710  0.14680  1.0000 0.1391823405
C   C15       1.0  0.16060  0.23030  0.17120  1.0000 -0.1776925696
C   C16       1.0  0.09560  0.27090  0.23080  1.0000 -0.0917046708
C   C17       1.0  0.33390  0.13500  0.06290  1.0000 0.1031862633
C   C18       1.0  0.41850  0.24060  0.98560  1.0000 0.147287698
C   C19       1.0  0.46970  0.85760  0.06120  1.0000 0.5418379246
C   C20       1.0  0.52700  0.79360  0.12370  1.0000 -0.0188257498
C   C21       1.0  0.45700  0.73740  0.17490  1.0000 -0.0917046708
C   C22       1.0  0.50960  0.68420  0.23570  1.0000 -0.1776925696
C   C23       1.0  0.63210  0.69160  0.24480  1.0000 0.1285151816
C   C24       1.0  0.70170  0.74490  0.19410  1.0000 -0.1709644594
C   C25       1.0  0.64950  0.79450  0.13340  1.0000 -0.0917046708
C   C26       1.0  0.79260  0.60020  0.32130  1.0000 0.1031862633
C   C27       1.0  0.70560  0.61220  0.42370  1.0000 0.1609409093
C   C28       1.0  0.55100  0.09330  0.82960  1.0000 0.5334797143
C   C29       1.0  0.63030  0.13490  0.76730  1.0000 -0.0188257498
C   C30       1.0  0.73120  0.08130  0.74510  1.0000 -0.0917046708
C   C31       1.0  0.79740  0.11900  0.68390  1.0000 -0.1776925696
C   C32       1.0  0.75900  0.21290  0.64680  1.0000 0.1391823405
C   C33       1.0  0.66060  0.26970  0.67120  1.0000 -0.1776925696
C   C34       1.0  0.59560  0.22910  0.73080  1.0000 -0.0917046708
C   C35       1.0  0.83390  0.36500  0.56290  1.0000 0.1031862633
C   C36       1.0  0.91850  0.25940  0.48560  1.0000 0.147287698
C   C37       1.0  0.46970  0.35760  0.43880  1.0000 0.5418379246
C   C38       1.0  0.52700  0.29360  0.37630  1.0000 -0.0188257498
C   C39       1.0  0.45700  0.23740  0.32510  1.0000 -0.0917046708
C   C40       1.0  0.50960  0.18420  0.26430  1.0000 -0.1776925696
C   C41       1.0  0.63210  0.19160  0.25520  1.0000 0.1285151816
C   C42       1.0  0.70170  0.24490  0.30590  1.0000 -0.1709644594
C   C43       1.0  0.64950  0.29450  0.36660  1.0000 -0.0917046708
C   C44       1.0  0.79260  0.10020  0.17870  1.0000 0.1031862633
C   C45       1.0  0.70560  0.11220  0.07630  1.0000 0.1609409093
C   C46       1.0  0.55100  0.59330  0.67040  1.0000 0.5334797143
C   C47       1.0  0.63030  0.63490  0.73270  1.0000 -0.0188257498
C   C48       1.0  0.73120  0.58130  0.75490  1.0000 -0.0917046708
C   C49       1.0  0.79740  0.61900  0.81610  1.0000 -0.1776925696
C   C50       1.0  0.75900  0.71290  0.85320  1.0000 0.1391823405
C   C51       1.0  0.66060  0.76970  0.82880  1.0000 -0.1776925696
C   C52       1.0  0.59560  0.72910  0.76920  1.0000 -0.0917046708
C   C53       1.0  0.83390  0.86500  0.93710  1.0000 0.1031862633
C   C54       1.0  0.91850  0.75940  0.01440  1.0000 0.147287698
C   C55       1.0  0.96970  0.14240  0.93880  1.0000 0.5418379246
C   C56       1.0  0.02700  0.20640  0.87630  1.0000 -0.0188257498
C   C57       1.0  0.95700  0.26260  0.82510  1.0000 -0.0917046708
C   C58       1.0  0.00960  0.31580  0.76430  1.0000 -0.1776925696
C   C59       1.0  0.13210  0.30840  0.75520  1.0000 0.1285151816
C   C60       1.0  0.20170  0.25510  0.80590  1.0000 -0.1709644594
C   C61       1.0  0.14950  0.20550  0.86660  1.0000 -0.0917046708
C   C62       1.0  0.29260  0.39980  0.67870  1.0000 0.1031862633
C   C63       1.0  0.20560  0.38780  0.57630  1.0000 0.1609409093
C   C64       1.0  0.05100  0.90670  0.17040  1.0000 0.5334797143
C   C65       1.0  0.13030  0.86510  0.23270  1.0000 -0.0188257498
C   C66       1.0  0.23120  0.91870  0.25490  1.0000 -0.0917046708
C   C67       1.0  0.29740  0.88100  0.31610  1.0000 -0.1776925696
C   C68       1.0  0.25900  0.78710  0.35320  1.0000 0.1391823405
C   C69       1.0  0.16060  0.73030  0.32880  1.0000 -0.1776925696
C   C70       1.0  0.09560  0.77090  0.26920  1.0000 -0.0917046708
C   C71       1.0  0.33390  0.63500  0.43710  1.0000 0.1031862633
C   C72       1.0  0.41850  0.74060  0.51440  1.0000 0.147287698
N   N1        1.0  0.18420  0.85630  0.81100  1.0000 0.1285151816
N   N2        1.0  0.12570  0.84670  0.87770  1.0000 -0.2395203174
N   N3        1.0  0.30950  0.92190  0.89200  1.0000 -0.3082472444
N   N4        1.0  0.32290  0.24270  0.08470  1.0000 0.1391823405
N   N5        1.0  0.37720  0.31320  0.03540  1.0000 -0.2497475654
N   N6        1.0  0.39590  0.13120  0.00040  1.0000 -0.3259368524
N   N7        1.0  0.68420  0.64370  0.31100  1.0000 0.1285151816
N   N8        1.0  0.62570  0.65330  0.37770  1.0000 -0.2395203174
N   N9        1.0  0.80950  0.57810  0.39200  1.0000 -0.3082472444
N   N10       1.0  0.82290  0.25730  0.58470  1.0000 0.1391823405
N   N11       1.0  0.87720  0.18680  0.53540  1.0000 -0.2497475654
N   N12       1.0  0.89590  0.36880  0.50040  1.0000 -0.3259368524
N   N13       1.0  0.68420  0.14370  0.18900  1.0000 0.1285151816
N   N14       1.0  0.62570  0.15330  0.12230  1.0000 -0.2395203174
N   N15       1.0  0.80950  0.07810  0.10800  1.0000 -0.3082472444
N   N16       1.0  0.82290  0.75730  0.91530  1.0000 0.1391823405
N   N17       1.0  0.87720  0.68680  0.96460  1.0000 -0.2497475654
N   N18       1.0  0.89590  0.86880  0.99960  1.0000 -0.3259368524
N   N19       1.0  0.18420  0.35630  0.68900  1.0000 0.1285151816
N   N20       1.0  0.12570  0.34670  0.62230  1.0000 -0.2395203174
N   N21       1.0  0.30950  0.42190  0.60800  1.0000 -0.3082472444
N   N22       1.0  0.32290  0.74270  0.41530  1.0000 0.1391823405
N   N23       1.0  0.37720  0.81320  0.46460  1.0000 -0.2497475654
N   N24       1.0  0.39590  0.63120  0.49960  1.0000 -0.3259368524
O   O1        1.0  0.03880  0.60570  0.51100  1.0000 -0.546959138
O   O2        1.0  0.86130  0.62530  0.56310  1.0000 -0.546959138
O   O3        1.0  0.09190  0.47870  0.37350  1.0000 -0.508754781
O   O4        1.0  0.94930  0.36930  0.33480  1.0000 -0.5395429493
O   O5        1.0  0.53880  0.89430  0.01100  1.0000 -0.546959138
O   O6        1.0  0.36130  0.87470  0.06310  1.0000 -0.546959138
O   O7        1.0  0.59190  0.02130  0.87350  1.0000 -0.508754781
O   O8        1.0  0.44930  0.13070  0.83480  1.0000 -0.5395429493
O   O9        1.0  0.53880  0.39430  0.48900  1.0000 -0.546959138
O   O10       1.0  0.36130  0.37470  0.43690  1.0000 -0.546959138
O   O11       1.0  0.59190  0.52130  0.62650  1.0000 -0.508754781
O   O12       1.0  0.44930  0.63070  0.66520  1.0000 -0.5395429493
O   O13       1.0  0.03880  0.10570  0.98900  1.0000 -0.546959138
O   O14       1.0  0.86130  0.12530  0.93690  1.0000 -0.546959138
O   O15       1.0  0.09190  0.97870  0.12650  1.0000 -0.508754781
O   O16       1.0  0.94930  0.86930  0.16520  1.0000 -0.5395429493
