# DDEC6 charges by PACMAN v1.1 (https://github.com/mtap-research/PACMAN-charge/)
data_2021[Al][nan]3[FSR]15
_chemical_formula_sum              "Al8 H24 C40 N16 O40"
_cell_length_a       11.7544
_cell_length_b       16.6538
_cell_length_c       12.2156
_cell_angle_alpha    90
_cell_angle_beta     104.955
_cell_angle_gamma    90

_symmetry_space_group_name_H-M    "P 1"
_symmetry_Int_Tables_number       1

loop_
  _symmetry_equiv_pos_as_xyz
  'x, y, z'

loop_
  _atom_site_type_symbol
  _atom_site_label
  _atom_site_symmetry_multiplicity
  _atom_site_fract_x
  _atom_site_fract_y
  _atom_site_fract_z
  _atom_site_occupancy
  _atom_site_charge
Al  Al1       1.0  0.40779  0.54747  0.72703  1.0000 1.6292934511
Al  Al2       1.0  0.09221  0.04747  0.27297  1.0000 1.6292934511
Al  Al3       1.0  0.59221  0.45253  0.27297  1.0000 1.6292934511
Al  Al4       1.0  0.90779  0.95253  0.72703  1.0000 1.6292934511
Al  Al5       1.0  0.50000  0.50000  0.00000  1.0000 1.6292934511
Al  Al6       1.0  0.00000  0.00000  0.00000  1.0000 1.6375158006
Al  Al7       1.0  0.00000  0.00000  0.50000  1.0000 1.6375158006
Al  Al8       1.0  0.50000  0.50000  0.50000  1.0000 1.6375158006
H   H1        1.0  0.90306  0.01329  0.30220  1.0000 0.4295339074
H   H2        1.0  0.02280  0.92587  0.17244  1.0000 0.4295339074
H   H3        1.0  0.12226  0.71983  0.77590  1.0000 0.1717379477
H   H4        1.0  0.32212  0.68482  0.08125  1.0000 0.2875043724
H   H5        1.0  0.26425  0.27881  0.41945  1.0000 0.1717379477
H   H6        1.0  0.18462  0.35084  0.69458  1.0000 0.2762521479
H   H7        1.0  0.59694  0.51329  0.69780  1.0000 0.4295339074
H   H8        1.0  0.47720  0.42587  0.82756  1.0000 0.4295339074
H   H9        1.0  0.37774  0.21983  0.22410  1.0000 0.1717379477
H   H10       1.0  0.17788  0.18482  0.91875  1.0000 0.2875043724
H   H11       1.0  0.23575  0.77881  0.58055  1.0000 0.1717379477
H   H12       1.0  0.31538  0.85084  0.30542  1.0000 0.2762521479
H   H13       1.0  0.09694  0.98671  0.69780  1.0000 0.4295339074
H   H14       1.0  0.97720  0.07413  0.82756  1.0000 0.4295339074
H   H15       1.0  0.87774  0.28017  0.22410  1.0000 0.1717379477
H   H16       1.0  0.67788  0.31518  0.91875  1.0000 0.2875043724
H   H17       1.0  0.73575  0.72119  0.58055  1.0000 0.1717379477
H   H18       1.0  0.81538  0.64916  0.30542  1.0000 0.2762521479
H   H19       1.0  0.40306  0.48671  0.30220  1.0000 0.4295339074
H   H20       1.0  0.52280  0.57413  0.17244  1.0000 0.4295339074
H   H21       1.0  0.62226  0.78017  0.77590  1.0000 0.1717379477
H   H22       1.0  0.82212  0.81518  0.08125  1.0000 0.2875043724
H   H23       1.0  0.76425  0.22119  0.41945  1.0000 0.1717379477
H   H24       1.0  0.68462  0.14916  0.69458  1.0000 0.2762521479
C   C1        1.0  0.30010  0.60210  0.89580  1.0000 0.6034252618
C   C2        1.0  0.23990  0.67390  0.92000  1.0000 0.0196434141
C   C3        1.0  0.16020  0.72550  0.85230  1.0000 -0.2295273457
C   C4        1.0  0.92350  0.13950  0.09870  1.0000 0.6097280208
C   C5        1.0  0.13760  0.14210  0.47960  1.0000 0.6179875109
C   C6        1.0  0.14960  0.78780  0.92450  1.0000 0.0257380951
C   C7        1.0  0.17330  0.22170  0.52580  1.0000 0.0015271865
C   C8        1.0  0.23580  0.28130  0.48370  1.0000 -0.2295273457
C   C9        1.0  0.24540  0.34410  0.55900  1.0000 0.0135487735
C   C10       1.0  0.30850  0.42110  0.56830  1.0000 0.6097280208
C   C11       1.0  0.19990  0.10210  0.10420  1.0000 0.6034252618
C   C12       1.0  0.26010  0.17390  0.08000  1.0000 0.0196434141
C   C13       1.0  0.33980  0.22550  0.14770  1.0000 -0.2295273457
C   C14       1.0  0.57650  0.63950  0.90130  1.0000 0.6097280208
C   C15       1.0  0.36240  0.64210  0.52040  1.0000 0.6179875109
C   C16       1.0  0.35040  0.28780  0.07550  1.0000 0.0257380951
C   C17       1.0  0.32670  0.72170  0.47420  1.0000 0.0015271865
C   C18       1.0  0.26420  0.78130  0.51630  1.0000 -0.2295273457
C   C19       1.0  0.25460  0.84410  0.44100  1.0000 0.0135487735
C   C20       1.0  0.19150  0.92110  0.43170  1.0000 0.6097280208
C   C21       1.0  0.69990  0.39790  0.10420  1.0000 0.6034252618
C   C22       1.0  0.76010  0.32610  0.08000  1.0000 0.0196434141
C   C23       1.0  0.83980  0.27450  0.14770  1.0000 -0.2295273457
C   C24       1.0  0.07650  0.86050  0.90130  1.0000 0.6097280208
C   C25       1.0  0.86240  0.85790  0.52040  1.0000 0.6179875109
C   C26       1.0  0.85040  0.21220  0.07550  1.0000 0.0257380951
C   C27       1.0  0.82670  0.77830  0.47420  1.0000 0.0015271865
C   C28       1.0  0.76420  0.71870  0.51630  1.0000 -0.2295273457
C   C29       1.0  0.75460  0.65590  0.44100  1.0000 0.0135487735
C   C30       1.0  0.69150  0.57890  0.43170  1.0000 0.6097280208
C   C31       1.0  0.80010  0.89790  0.89580  1.0000 0.6034252618
C   C32       1.0  0.73990  0.82610  0.92000  1.0000 0.0196434141
C   C33       1.0  0.66020  0.77450  0.85230  1.0000 -0.2295273457
C   C34       1.0  0.42350  0.36050  0.09870  1.0000 0.6097280208
C   C35       1.0  0.63760  0.35790  0.47960  1.0000 0.6179875109
C   C36       1.0  0.64960  0.71220  0.92450  1.0000 0.0257380951
C   C37       1.0  0.67330  0.27830  0.52580  1.0000 0.0015271865
C   C38       1.0  0.73580  0.21870  0.48370  1.0000 -0.2295273457
C   C39       1.0  0.74540  0.15590  0.55900  1.0000 0.0135487735
C   C40       1.0  0.80850  0.07890  0.56830  1.0000 0.6097280208
N   N1        1.0  0.27320  0.70660  0.02430  1.0000 -0.0571693766
N   N2        1.0  0.22060  0.77690  0.02760  1.0000 -0.1927725363
N   N3        1.0  0.14560  0.24830  0.62030  1.0000 -0.1986000228
N   N4        1.0  0.19010  0.32120  0.63850  1.0000 -0.0516151579
N   N5        1.0  0.22680  0.20660  0.97570  1.0000 -0.0571693766
N   N6        1.0  0.27940  0.27690  0.97240  1.0000 -0.1927725363
N   N7        1.0  0.35440  0.74830  0.37970  1.0000 -0.1986000228
N   N8        1.0  0.30990  0.82120  0.36150  1.0000 -0.0516151579
N   N9        1.0  0.72680  0.29340  0.97570  1.0000 -0.0571693766
N   N10       1.0  0.77940  0.22310  0.97240  1.0000 -0.1927725363
N   N11       1.0  0.85440  0.75170  0.37970  1.0000 -0.1986000228
N   N12       1.0  0.80990  0.67880  0.36150  1.0000 -0.0516151579
N   N13       1.0  0.77320  0.79340  0.02430  1.0000 -0.0571693766
N   N14       1.0  0.72060  0.72310  0.02760  1.0000 -0.1927725363
N   N15       1.0  0.64560  0.25170  0.62030  1.0000 -0.1986000228
N   N16       1.0  0.69010  0.17880  0.63850  1.0000 -0.0516151579
O   O1        1.0  0.36850  0.57010  0.98000  1.0000 -0.5801075922
O   O2        1.0  0.19640  0.96580  0.34970  1.0000 -0.5801075922
O   O3        1.0  0.28500  0.58270  0.79390  1.0000 -0.5389403131
O   O4        1.0  0.99410  0.13300  0.19410  1.0000 -0.5604918253
O   O5        1.0  0.97950  0.01885  0.34740  1.0000 -1.0124928381
O   O6        1.0  0.03530  0.97853  0.15300  1.0000 -1.0173562195
O   O7        1.0  0.15510  0.12610  0.38480  1.0000 -0.5715362977
O   O8        1.0  0.09150  0.09580  0.53770  1.0000 -0.5801075922
O   O9        1.0  0.90660  0.08920  0.01830  1.0000 -0.5715362977
O   O10       1.0  0.13620  0.93560  0.50540  1.0000 -0.5604918253
O   O11       1.0  0.13150  0.07010  0.02000  1.0000 -0.5801075922
O   O12       1.0  0.30360  0.46580  0.65030  1.0000 -0.5801075922
O   O13       1.0  0.21500  0.08270  0.20610  1.0000 -0.5389403131
O   O14       1.0  0.50590  0.63300  0.80590  1.0000 -0.5604918253
O   O15       1.0  0.52050  0.51885  0.65260  1.0000 -1.0124928381
O   O16       1.0  0.46470  0.47853  0.84700  1.0000 -1.0173562195
O   O17       1.0  0.34490  0.62610  0.61520  1.0000 -0.5715362977
O   O18       1.0  0.40850  0.59580  0.46230  1.0000 -0.5801075922
O   O19       1.0  0.59340  0.58920  0.98170  1.0000 -0.5715362977
O   O20       1.0  0.36380  0.43560  0.49460  1.0000 -0.5604918253
O   O21       1.0  0.63150  0.42990  0.02000  1.0000 -0.5801075922
O   O22       1.0  0.80360  0.03420  0.65030  1.0000 -0.5801075922
O   O23       1.0  0.71500  0.41730  0.20610  1.0000 -0.5389403131
O   O24       1.0  0.00590  0.86700  0.80590  1.0000 -0.5604918253
O   O25       1.0  0.02050  0.98115  0.65260  1.0000 -1.0124928381
O   O26       1.0  0.96470  0.02147  0.84700  1.0000 -1.0173562195
O   O27       1.0  0.84490  0.87390  0.61520  1.0000 -0.5715362977
O   O28       1.0  0.90850  0.90420  0.46230  1.0000 -0.5801075922
O   O29       1.0  0.09340  0.91080  0.98170  1.0000 -0.5715362977
O   O30       1.0  0.86380  0.06440  0.49460  1.0000 -0.5604918253
O   O31       1.0  0.86850  0.92990  0.98000  1.0000 -0.5801075922
O   O32       1.0  0.69640  0.53420  0.34970  1.0000 -0.5801075922
O   O33       1.0  0.78500  0.91730  0.79390  1.0000 -0.5389403131
O   O34       1.0  0.49410  0.36700  0.19410  1.0000 -0.5604918253
O   O35       1.0  0.47950  0.48115  0.34740  1.0000 -1.0124928381
O   O36       1.0  0.53530  0.52147  0.15300  1.0000 -1.0173562195
O   O37       1.0  0.65510  0.37390  0.38480  1.0000 -0.5715362977
O   O38       1.0  0.59150  0.40420  0.53770  1.0000 -0.5801075922
O   O39       1.0  0.40660  0.41080  0.01830  1.0000 -0.5715362977
O   O40       1.0  0.63620  0.56440  0.50540  1.0000 -0.5604918253
