# DDEC6 charges by PACMAN v1.1 (https://github.com/mtap-research/PACMAN-charge/)
data_2021[Co][nan]3[FSR]9
_chemical_formula_sum              "Co4 H40 C64 N16 O16"
_cell_length_a       10.1287
_cell_length_b       9.511
_cell_length_c       19.365
_cell_angle_alpha    90
_cell_angle_beta     95.81
_cell_angle_gamma    90

_symmetry_space_group_name_H-M    "P 1"
_symmetry_Int_Tables_number       1

loop_
  _symmetry_equiv_pos_as_xyz
  'x, y, z'

loop_
  _atom_site_type_symbol
  _atom_site_label
  _atom_site_symmetry_multiplicity
  _atom_site_fract_x
  _atom_site_fract_y
  _atom_site_fract_z
  _atom_site_occupancy
  _atom_site_charge
Co  Co1       1.0  0.80845  0.90367  0.44948  1.0000 0.8685448192
Co  Co2       1.0  0.19155  0.40367  0.05052  1.0000 0.8685448192
Co  Co3       1.0  0.19155  0.09633  0.55052  1.0000 0.8685448192
Co  Co4       1.0  0.80845  0.59633  0.94948  1.0000 0.8685448192
H   H1        1.0  0.64388  0.10252  0.53644  1.0000 0.1403954573
H   H2        1.0  0.52621  0.33398  0.69321  1.0000 0.1403954573
H   H3        1.0  0.91234  0.32489  0.65932  1.0000 0.1403954573
H   H4        1.0  0.61188  0.74453  0.53632  1.0000 0.113008181
H   H5        1.0  0.61257  0.60832  0.63474  1.0000 0.1403954573
H   H6        1.0  0.99011  0.72506  0.68609  1.0000 0.1403954573
H   H7        1.0  0.62027  0.27722  0.83783  1.0000 0.1655595623
H   H8        1.0  0.74946  0.20003  0.82023  1.0000 0.1583897624
H   H9        1.0  0.74687  0.27733  0.89158  1.0000 0.1764892064
H   H10       1.0  0.98105  0.85081  0.58488  1.0000 0.113008181
H   H11       1.0  0.35612  0.60252  0.96356  1.0000 0.1403954573
H   H12       1.0  0.47379  0.83398  0.80679  1.0000 0.1403954573
H   H13       1.0  0.08766  0.82489  0.84068  1.0000 0.1403954573
H   H14       1.0  0.38812  0.24453  0.96368  1.0000 0.113008181
H   H15       1.0  0.38743  0.10832  0.86526  1.0000 0.1403954573
H   H16       1.0  0.00989  0.22506  0.81391  1.0000 0.1403954573
H   H17       1.0  0.37973  0.77722  0.66217  1.0000 0.1655595623
H   H18       1.0  0.25054  0.70003  0.67977  1.0000 0.1583897624
H   H19       1.0  0.25313  0.77733  0.60842  1.0000 0.1764892064
H   H20       1.0  0.01895  0.35081  0.91512  1.0000 0.113008181
H   H21       1.0  0.35612  0.89748  0.46356  1.0000 0.1403954573
H   H22       1.0  0.47379  0.66602  0.30679  1.0000 0.1403954573
H   H23       1.0  0.08766  0.67511  0.34068  1.0000 0.1403954573
H   H24       1.0  0.38812  0.25547  0.46368  1.0000 0.113008181
H   H25       1.0  0.38743  0.39168  0.36526  1.0000 0.1403954573
H   H26       1.0  0.00989  0.27494  0.31391  1.0000 0.1403954573
H   H27       1.0  0.37973  0.72278  0.16217  1.0000 0.1655595623
H   H28       1.0  0.25054  0.79997  0.17977  1.0000 0.1583897624
H   H29       1.0  0.25313  0.72267  0.10842  1.0000 0.1764892064
H   H30       1.0  0.01895  0.14919  0.41512  1.0000 0.113008181
H   H31       1.0  0.64388  0.39748  0.03644  1.0000 0.1403954573
H   H32       1.0  0.52621  0.16602  0.19321  1.0000 0.1403954573
H   H33       1.0  0.91234  0.17511  0.15932  1.0000 0.1403954573
H   H34       1.0  0.61188  0.75547  0.03632  1.0000 0.113008181
H   H35       1.0  0.61257  0.89168  0.13474  1.0000 0.1403954573
H   H36       1.0  0.99011  0.77494  0.18609  1.0000 0.1403954573
H   H37       1.0  0.62027  0.22278  0.33783  1.0000 0.1655595623
H   H38       1.0  0.74946  0.29997  0.32023  1.0000 0.1583897624
H   H39       1.0  0.74687  0.22267  0.39158  1.0000 0.1764892064
H   H40       1.0  0.98105  0.64919  0.08488  1.0000 0.113008181
C   C1        1.0  0.66410  0.16410  0.57331  1.0000 -0.1299029044
C   C2        1.0  0.90210  0.16000  0.54704  1.0000 0.5739670418
C   C3        1.0  0.56440  0.21130  0.61160  1.0000 0.0135805462
C   C4        1.0  0.80440  0.57090  0.73657  1.0000 0.2127093397
C   C5        1.0  0.42350  0.16790  0.59036  1.0000 0.5241550826
C   C6        1.0  0.59320  0.30130  0.66786  1.0000 -0.2015605677
C   C7        1.0  0.79450  0.20870  0.58994  1.0000 0.0023191608
C   C8        1.0  0.82530  0.29650  0.64700  1.0000 -0.2015605677
C   C9        1.0  0.72400  0.34090  0.68513  1.0000 0.1583897624
C   C10       1.0  0.76180  0.41110  0.81178  1.0000 0.3508961894
C   C11       1.0  0.80350  0.64920  0.67109  1.0000 0.0662463888
C   C12       1.0  0.68980  0.73720  0.56594  1.0000 0.1006063637
C   C13       1.0  0.68870  0.65660  0.62550  1.0000 -0.1781562544
C   C14       1.0  0.91290  0.72500  0.65569  1.0000 -0.1706164494
C   C15       1.0  0.71550  0.27980  0.84313  1.0000 -0.5098763384
C   C16       1.0  0.90640  0.80060  0.59472  1.0000 0.1006063637
C   C17       1.0  0.33590  0.66410  0.92669  1.0000 -0.1299029044
C   C18       1.0  0.09790  0.66000  0.95296  1.0000 0.5739670418
C   C19       1.0  0.43560  0.71130  0.88840  1.0000 0.0135805462
C   C20       1.0  0.19560  0.07090  0.76343  1.0000 0.2127093397
C   C21       1.0  0.57650  0.66790  0.90964  1.0000 0.5241550826
C   C22       1.0  0.40680  0.80130  0.83214  1.0000 -0.2015605677
C   C23       1.0  0.20550  0.70870  0.91006  1.0000 0.0023191608
C   C24       1.0  0.17470  0.79650  0.85300  1.0000 -0.2015605677
C   C25       1.0  0.27600  0.84090  0.81487  1.0000 0.1583897624
C   C26       1.0  0.23820  0.91110  0.68822  1.0000 0.3508961894
C   C27       1.0  0.19650  0.14920  0.82891  1.0000 0.0662463888
C   C28       1.0  0.31020  0.23720  0.93406  1.0000 0.1006063637
C   C29       1.0  0.31130  0.15660  0.87450  1.0000 -0.1781562544
C   C30       1.0  0.08710  0.22500  0.84431  1.0000 -0.1706164494
C   C31       1.0  0.28450  0.77980  0.65687  1.0000 -0.5098763384
C   C32       1.0  0.09360  0.30060  0.90528  1.0000 0.1006063637
C   C33       1.0  0.33590  0.83590  0.42669  1.0000 -0.1299029044
C   C34       1.0  0.09790  0.84000  0.45296  1.0000 0.5739670418
C   C35       1.0  0.43560  0.78870  0.38840  1.0000 0.0135805462
C   C36       1.0  0.19560  0.42910  0.26343  1.0000 0.2127093397
C   C37       1.0  0.57650  0.83210  0.40964  1.0000 0.5241550826
C   C38       1.0  0.40680  0.69870  0.33214  1.0000 -0.2015605677
C   C39       1.0  0.20550  0.79130  0.41006  1.0000 0.0023191608
C   C40       1.0  0.17470  0.70350  0.35300  1.0000 -0.2015605677
C   C41       1.0  0.27600  0.65910  0.31487  1.0000 0.1583897624
C   C42       1.0  0.23820  0.58890  0.18822  1.0000 0.3508961894
C   C43       1.0  0.19650  0.35080  0.32891  1.0000 0.0662463888
C   C44       1.0  0.31020  0.26280  0.43406  1.0000 0.1006063637
C   C45       1.0  0.31130  0.34340  0.37450  1.0000 -0.1781562544
C   C46       1.0  0.08710  0.27500  0.34431  1.0000 -0.1706164494
C   C47       1.0  0.28450  0.72020  0.15687  1.0000 -0.5098763384
C   C48       1.0  0.09360  0.19940  0.40528  1.0000 0.1006063637
C   C49       1.0  0.66410  0.33590  0.07331  1.0000 -0.1299029044
C   C50       1.0  0.90210  0.34000  0.04704  1.0000 0.5739670418
C   C51       1.0  0.56440  0.28870  0.11160  1.0000 0.0135805462
C   C52       1.0  0.80440  0.92910  0.23657  1.0000 0.2127093397
C   C53       1.0  0.42350  0.33210  0.09036  1.0000 0.5241550826
C   C54       1.0  0.59320  0.19870  0.16786  1.0000 -0.2015605677
C   C55       1.0  0.79450  0.29130  0.08994  1.0000 0.0023191608
C   C56       1.0  0.82530  0.20350  0.14700  1.0000 -0.2015605677
C   C57       1.0  0.72400  0.15910  0.18513  1.0000 0.1583897624
C   C58       1.0  0.76180  0.08890  0.31178  1.0000 0.3508961894
C   C59       1.0  0.80350  0.85080  0.17109  1.0000 0.0662463888
C   C60       1.0  0.68980  0.76280  0.06594  1.0000 0.1006063637
C   C61       1.0  0.68870  0.84340  0.12550  1.0000 -0.1781562544
C   C62       1.0  0.91290  0.77500  0.15569  1.0000 -0.1706164494
C   C63       1.0  0.71550  0.22020  0.34313  1.0000 -0.5098763384
C   C64       1.0  0.90640  0.69940  0.09472  1.0000 0.1006063637
N   N1        1.0  0.81190  0.52040  0.84535  1.0000 -0.2601037003
N   N2        1.0  0.79850  0.80530  0.54903  1.0000 -0.2416311033
N   N3        1.0  0.75660  0.43690  0.74205  1.0000 -0.1299029044
N   N4        1.0  0.83920  0.62320  0.79739  1.0000 -0.2332161345
N   N5        1.0  0.18810  0.02040  0.65465  1.0000 -0.2601037003
N   N6        1.0  0.20150  0.30530  0.95097  1.0000 -0.2416311033
N   N7        1.0  0.24340  0.93690  0.75795  1.0000 -0.1299029044
N   N8        1.0  0.16080  0.12320  0.70261  1.0000 -0.2332161345
N   N9        1.0  0.18810  0.47960  0.15465  1.0000 -0.2601037003
N   N10       1.0  0.20150  0.19470  0.45097  1.0000 -0.2416311033
N   N11       1.0  0.24340  0.56310  0.25795  1.0000 -0.1299029044
N   N12       1.0  0.16080  0.37680  0.20261  1.0000 -0.2332161345
N   N13       1.0  0.81190  0.97960  0.34535  1.0000 -0.2601037003
N   N14       1.0  0.79850  0.69470  0.04903  1.0000 -0.2416311033
N   N15       1.0  0.75660  0.06310  0.24205  1.0000 -0.1299029044
N   N16       1.0  0.83920  0.87680  0.29739  1.0000 -0.2332161345
O   O1        1.0  0.86870  0.08570  0.49454  1.0000 -0.5674701311
O   O2        1.0  0.01870  0.19980  0.56499  1.0000 -0.5290579774
O   O3        1.0  0.33100  0.25510  0.59729  1.0000 -0.5290579774
O   O4        1.0  0.40100  0.04970  0.56375  1.0000 -0.5183402277
O   O5        1.0  0.13130  0.58570  0.00546  1.0000 -0.5674701311
O   O6        1.0  0.98130  0.69980  0.93501  1.0000 -0.5290579774
O   O7        1.0  0.66900  0.75510  0.90271  1.0000 -0.5290579774
O   O8        1.0  0.59900  0.54970  0.93625  1.0000 -0.5183402277
O   O9        1.0  0.13130  0.91430  0.50546  1.0000 -0.5674701311
O   O10       1.0  0.98130  0.80020  0.43501  1.0000 -0.5290579774
O   O11       1.0  0.66900  0.74490  0.40271  1.0000 -0.5290579774
O   O12       1.0  0.59900  0.95030  0.43625  1.0000 -0.5183402277
O   O13       1.0  0.86870  0.41430  0.99454  1.0000 -0.5674701311
O   O14       1.0  0.01870  0.30020  0.06499  1.0000 -0.5290579774
O   O15       1.0  0.33100  0.24490  0.09729  1.0000 -0.5290579774
O   O16       1.0  0.40100  0.45030  0.06375  1.0000 -0.5183402277
