# DDEC6 charges by PACMAN v1.1 (https://github.com/mtap-research/PACMAN-charge/)
data_2021[Co][pcu]3[FSR]6
_chemical_formula_sum              "Co4 H64 C104 N8 O16"
_cell_length_a       8.022
_cell_length_b       30.5853
_cell_length_c       11.9483
_cell_angle_alpha    90
_cell_angle_beta     113.897
_cell_angle_gamma    90

_symmetry_space_group_name_H-M    "P 1"
_symmetry_Int_Tables_number       1

loop_
  _symmetry_equiv_pos_as_xyz
  'x, y, z'

loop_
  _atom_site_type_symbol
  _atom_site_label
  _atom_site_symmetry_multiplicity
  _atom_site_fract_x
  _atom_site_fract_y
  _atom_site_fract_z
  _atom_site_occupancy
  _atom_site_charge
Co  Co1       1.0  0.61321  0.54160  0.91329  1.0000 0.8541517476
Co  Co2       1.0  0.38679  0.04160  0.58671  1.0000 0.8541517476
Co  Co3       1.0  0.38679  0.45840  0.08671  1.0000 0.8541517476
Co  Co4       1.0  0.61321  0.95840  0.41329  1.0000 0.8541517476
H   H1        1.0  0.41300  0.63680  0.98590  1.0000 0.1223007737
H   H2        1.0  0.34130  0.70440  0.04520  1.0000 0.1223007737
H   H3        1.0  0.11370  0.64320  0.25020  1.0000 0.1109371501
H   H4        1.0  0.19510  0.57590  0.19600  1.0000 0.1109371501
H   H5        1.0  0.99880  0.89570  0.25210  1.0000 0.1109371501
H   H6        1.0  0.13170  0.83810  0.18950  1.0000 0.1223007737
H   H7        1.0  0.89380  0.75210  0.33780  1.0000 0.1223007737
H   H8        1.0  0.75730  0.80950  0.39540  1.0000 0.127887717
H   H9        1.0  0.70560  0.59580  0.14540  1.0000 0.1031636537
H   H10       1.0  0.88820  0.59590  0.35140  1.0000 0.127887717
H   H11       1.0  0.12520  0.48490  0.29930  1.0000 0.127887717
H   H12       1.0  0.93450  0.48850  0.09460  1.0000 0.1109371501
H   H13       1.0  0.50760  0.48750  0.67620  1.0000 0.1109371501
H   H14       1.0  0.30490  0.48640  0.47500  1.0000 0.127887717
H   H15       1.0  0.06440  0.59340  0.53990  1.0000 0.1223007737
H   H16       1.0  0.28010  0.59230  0.73960  1.0000 0.1031636537
H   H17       1.0  0.58700  0.13680  0.51410  1.0000 0.127887717
H   H18       1.0  0.65870  0.20440  0.45480  1.0000 0.1223007737
H   H19       1.0  0.88630  0.14320  0.24980  1.0000 0.1109371501
H   H20       1.0  0.80490  0.07590  0.30400  1.0000 0.1109371501
H   H21       1.0  0.00120  0.39570  0.24790  1.0000 0.1109371501
H   H22       1.0  0.86830  0.33810  0.31050  1.0000 0.1223007737
H   H23       1.0  0.10620  0.25210  0.16220  1.0000 0.1223007737
H   H24       1.0  0.24270  0.30950  0.10460  1.0000 0.127887717
H   H25       1.0  0.29440  0.09580  0.35460  1.0000 0.1031636537
H   H26       1.0  0.11180  0.09590  0.14860  1.0000 0.127887717
H   H27       1.0  0.87480  0.98490  0.20070  1.0000 0.127887717
H   H28       1.0  0.06550  0.98850  0.40540  1.0000 0.1109371501
H   H29       1.0  0.49240  0.98750  0.82380  1.0000 0.1109371501
H   H30       1.0  0.69510  0.98640  0.02500  1.0000 0.127887717
H   H31       1.0  0.93560  0.09340  0.96010  1.0000 0.1223007737
H   H32       1.0  0.71990  0.09230  0.76040  1.0000 0.1031636537
H   H33       1.0  0.58700  0.36320  0.01410  1.0000 0.127887717
H   H34       1.0  0.65870  0.29560  0.95480  1.0000 0.1223007737
H   H35       1.0  0.88630  0.35680  0.74980  1.0000 0.1109371501
H   H36       1.0  0.80490  0.42410  0.80400  1.0000 0.1109371501
H   H37       1.0  0.00120  0.10430  0.74790  1.0000 0.1109371501
H   H38       1.0  0.86830  0.16190  0.81050  1.0000 0.1223007737
H   H39       1.0  0.10620  0.24790  0.66220  1.0000 0.1223007737
H   H40       1.0  0.24270  0.19050  0.60460  1.0000 0.127887717
H   H41       1.0  0.29440  0.40420  0.85460  1.0000 0.1031636537
H   H42       1.0  0.11180  0.40410  0.64860  1.0000 0.127887717
H   H43       1.0  0.87480  0.51510  0.70070  1.0000 0.127887717
H   H44       1.0  0.06550  0.51150  0.90540  1.0000 0.1109371501
H   H45       1.0  0.49240  0.51250  0.32380  1.0000 0.1109371501
H   H46       1.0  0.69510  0.51360  0.52500  1.0000 0.127887717
H   H47       1.0  0.93560  0.40660  0.46010  1.0000 0.1223007737
H   H48       1.0  0.71990  0.40770  0.26040  1.0000 0.1031636537
H   H49       1.0  0.41300  0.86320  0.48590  1.0000 0.1223007737
H   H50       1.0  0.34130  0.79560  0.54520  1.0000 0.1223007737
H   H51       1.0  0.11370  0.85680  0.75020  1.0000 0.1109371501
H   H52       1.0  0.19510  0.92410  0.69600  1.0000 0.1109371501
H   H53       1.0  0.99880  0.60430  0.75210  1.0000 0.1109371501
H   H54       1.0  0.13170  0.66190  0.68950  1.0000 0.1223007737
H   H55       1.0  0.89380  0.74790  0.83780  1.0000 0.1223007737
H   H56       1.0  0.75730  0.69050  0.89540  1.0000 0.127887717
H   H57       1.0  0.70560  0.90420  0.64540  1.0000 0.1031636537
H   H58       1.0  0.88820  0.90410  0.85140  1.0000 0.127887717
H   H59       1.0  0.12520  0.01510  0.79930  1.0000 0.127887717
H   H60       1.0  0.93450  0.01150  0.59460  1.0000 0.1109371501
H   H61       1.0  0.50760  0.01250  0.17620  1.0000 0.1109371501
H   H62       1.0  0.30490  0.01360  0.97500  1.0000 0.127887717
H   H63       1.0  0.06440  0.90660  0.03990  1.0000 0.1223007737
H   H64       1.0  0.28010  0.90770  0.23960  1.0000 0.1031636537
C   C1        1.0  0.35690  0.55583  0.04900  1.0000 0.5679592559
C   C2        1.0  0.30960  0.59983  0.08510  1.0000 -0.024212171
C   C3        1.0  0.35330  0.63814  0.04010  1.0000 -0.0995216878
C   C4        1.0  0.30920  0.67826  0.07460  1.0000 -0.1423814209
C   C5        1.0  0.21790  0.68058  0.15230  1.0000 0.141655953
C   C6        1.0  0.17540  0.64203  0.19710  1.0000 -0.1506347047
C   C7        1.0  0.22260  0.60206  0.16410  1.0000 -0.0995216878
C   C8        1.0  0.16150  0.72150  0.18580  1.0000 -0.0995216878
C   C9        1.0  0.10400  0.75313  0.21740  1.0000 -0.1070571007
C   C10       1.0  0.86210  0.85829  0.32810  1.0000 -0.008016326
C   C11       1.0  0.97580  0.86642  0.26820  1.0000 -0.0995216878
C   C12       1.0  0.05590  0.83216  0.23160  1.0000 -0.1506347047
C   C13       1.0  0.02510  0.78929  0.25630  1.0000 0.141655953
C   C14       1.0  0.91380  0.78125  0.31900  1.0000 -0.1423814209
C   C15       1.0  0.83340  0.81541  0.35350  1.0000 -0.0927505499
C   C16       1.0  0.77120  0.89545  0.36290  1.0000 0.5372356692
C   C17       1.0  0.79210  0.57297  0.17760  1.0000 0.0898887966
C   C18       1.0  0.90100  0.57336  0.30070  1.0000 -0.2040724928
C   C19       1.0  0.03120  0.54025  0.35130  1.0000 0.1031636537
C   C20       1.0  0.04010  0.50818  0.27010  1.0000 -0.1850952139
C   C21       1.0  0.92520  0.51050  0.14790  1.0000 0.1109371501
C   C22       1.0  0.41690  0.50964  0.64790  1.0000 0.0834539005
C   C23       1.0  0.29560  0.50863  0.52750  1.0000 -0.2070459468
C   C24       1.0  0.15910  0.54000  0.48200  1.0000 0.1031636537
C   C25       1.0  0.15540  0.57130  0.56510  1.0000 -0.2040724928
C   C26       1.0  0.28460  0.57022  0.68490  1.0000 0.0898887966
C   C27       1.0  0.64310  0.05583  0.45100  1.0000 0.5679592559
C   C28       1.0  0.69040  0.09983  0.41490  1.0000 -0.024212171
C   C29       1.0  0.64670  0.13814  0.45990  1.0000 -0.0995216878
C   C30       1.0  0.69080  0.17826  0.42540  1.0000 -0.1423814209
C   C31       1.0  0.78210  0.18058  0.34770  1.0000 0.141655953
C   C32       1.0  0.82460  0.14203  0.30290  1.0000 -0.1506347047
C   C33       1.0  0.77740  0.10206  0.33590  1.0000 -0.0995216878
C   C34       1.0  0.83850  0.22150  0.31420  1.0000 -0.0995216878
C   C35       1.0  0.89600  0.25313  0.28260  1.0000 -0.1070571007
C   C36       1.0  0.13790  0.35829  0.17190  1.0000 -0.008016326
C   C37       1.0  0.02420  0.36642  0.23180  1.0000 -0.0995216878
C   C38       1.0  0.94410  0.33216  0.26840  1.0000 -0.1506347047
C   C39       1.0  0.97490  0.28929  0.24370  1.0000 0.141655953
C   C40       1.0  0.08620  0.28125  0.18100  1.0000 -0.1423814209
C   C41       1.0  0.16660  0.31541  0.14650  1.0000 -0.0927505499
C   C42       1.0  0.22880  0.39545  0.13710  1.0000 0.5372356692
C   C43       1.0  0.20790  0.07297  0.32240  1.0000 0.0898887966
C   C44       1.0  0.09900  0.07336  0.19930  1.0000 -0.2040724928
C   C45       1.0  0.96880  0.04025  0.14870  1.0000 0.1031636537
C   C46       1.0  0.95990  0.00818  0.22990  1.0000 -0.1850952139
C   C47       1.0  0.07480  0.01050  0.35210  1.0000 0.1109371501
C   C48       1.0  0.58310  0.00964  0.85210  1.0000 0.0834539005
C   C49       1.0  0.70440  0.00863  0.97250  1.0000 -0.2070459468
C   C50       1.0  0.84090  0.04000  0.01800  1.0000 0.1031636537
C   C51       1.0  0.84460  0.07130  0.93490  1.0000 -0.2040724928
C   C52       1.0  0.71540  0.07022  0.81510  1.0000 0.0898887966
C   C53       1.0  0.64310  0.44417  0.95100  1.0000 0.5679592559
C   C54       1.0  0.69040  0.40017  0.91490  1.0000 -0.024212171
C   C55       1.0  0.64670  0.36186  0.95990  1.0000 -0.0995216878
C   C56       1.0  0.69080  0.32174  0.92540  1.0000 -0.1423814209
C   C57       1.0  0.78210  0.31942  0.84770  1.0000 0.141655953
C   C58       1.0  0.82460  0.35797  0.80290  1.0000 -0.1506347047
C   C59       1.0  0.77740  0.39794  0.83590  1.0000 -0.0995216878
C   C60       1.0  0.83850  0.27850  0.81420  1.0000 -0.0995216878
C   C61       1.0  0.89600  0.24687  0.78260  1.0000 -0.1070571007
C   C62       1.0  0.13790  0.14171  0.67190  1.0000 -0.008016326
C   C63       1.0  0.02420  0.13358  0.73180  1.0000 -0.0995216878
C   C64       1.0  0.94410  0.16784  0.76840  1.0000 -0.1506347047
C   C65       1.0  0.97490  0.21071  0.74370  1.0000 0.141655953
C   C66       1.0  0.08620  0.21875  0.68100  1.0000 -0.1423814209
C   C67       1.0  0.16660  0.18459  0.64650  1.0000 -0.0927505499
C   C68       1.0  0.22880  0.10455  0.63710  1.0000 0.5372356692
C   C69       1.0  0.20790  0.42703  0.82240  1.0000 0.0898887966
C   C70       1.0  0.09900  0.42664  0.69930  1.0000 -0.2040724928
C   C71       1.0  0.96880  0.45975  0.64870  1.0000 0.1031636537
C   C72       1.0  0.95990  0.49182  0.72990  1.0000 -0.1850952139
C   C73       1.0  0.07480  0.48950  0.85210  1.0000 0.1109371501
C   C74       1.0  0.58310  0.49036  0.35210  1.0000 0.0834539005
C   C75       1.0  0.70440  0.49137  0.47250  1.0000 -0.2070459468
C   C76       1.0  0.84090  0.46000  0.51800  1.0000 0.1109371501
C   C77       1.0  0.84460  0.42870  0.43490  1.0000 -0.2040724928
C   C78       1.0  0.71540  0.42978  0.31510  1.0000 0.0898887966
C   C79       1.0  0.35690  0.94417  0.54900  1.0000 0.5679592559
C   C80       1.0  0.30960  0.90017  0.58510  1.0000 -0.024212171
C   C81       1.0  0.35330  0.86186  0.54010  1.0000 -0.0995216878
C   C82       1.0  0.30920  0.82174  0.57460  1.0000 -0.1423814209
C   C83       1.0  0.21790  0.81942  0.65230  1.0000 0.141655953
C   C84       1.0  0.17540  0.85797  0.69710  1.0000 -0.1506347047
C   C85       1.0  0.22260  0.89794  0.66410  1.0000 -0.0995216878
C   C86       1.0  0.16150  0.77850  0.68580  1.0000 -0.0995216878
C   C87       1.0  0.10400  0.74687  0.71740  1.0000 -0.1070571007
C   C88       1.0  0.86210  0.64171  0.82810  1.0000 -0.008016326
C   C89       1.0  0.97580  0.63358  0.76820  1.0000 -0.0995216878
C   C90       1.0  0.05590  0.66784  0.73160  1.0000 -0.1506347047
C   C91       1.0  0.02510  0.71071  0.75630  1.0000 0.141655953
C   C92       1.0  0.91380  0.71875  0.81900  1.0000 -0.1423814209
C   C93       1.0  0.83340  0.68459  0.85350  1.0000 -0.0927505499
C   C94       1.0  0.77120  0.60455  0.86290  1.0000 0.5372356692
C   C95       1.0  0.79210  0.92703  0.67760  1.0000 0.0898887966
C   C96       1.0  0.90100  0.92664  0.80070  1.0000 -0.2040724928
C   C97       1.0  0.03120  0.95975  0.85130  1.0000 0.1031636537
C   C98       1.0  0.04010  0.99182  0.77010  1.0000 -0.1850952139
C   C99       1.0  0.92520  0.98950  0.64790  1.0000 0.1109371501
C   C100      1.0  0.41690  0.99036  0.14790  1.0000 0.0834539005
C   C101      1.0  0.29560  0.99137  0.02750  1.0000 -0.2070459468
C   C102      1.0  0.15910  0.96000  0.98200  1.0000 0.1109371501
C   C103      1.0  0.15540  0.92870  0.06510  1.0000 -0.2040724928
C   C104      1.0  0.28460  0.92978  0.18490  1.0000 0.0898887966
N   N1        1.0  0.80090  0.54215  0.10010  1.0000 -0.2498360207
N   N2        1.0  0.41460  0.53999  0.72750  1.0000 -0.2156193597
N   N3        1.0  0.19910  0.04215  0.39990  1.0000 -0.2498360207
N   N4        1.0  0.58540  0.03999  0.77250  1.0000 -0.2156193597
N   N5        1.0  0.19910  0.45785  0.89990  1.0000 -0.2498360207
N   N6        1.0  0.58540  0.46001  0.27250  1.0000 -0.2156193597
N   N7        1.0  0.80090  0.95785  0.60010  1.0000 -0.2498360207
N   N8        1.0  0.41460  0.96001  0.22750  1.0000 -0.2156193597
O   O1        1.0  0.40401  0.55436  0.96041  1.0000 -0.5708953819
O   O2        1.0  0.34271  0.52297  0.10871  1.0000 -0.5595611414
O   O3        1.0  0.80980  0.93440  0.34650  1.0000 -0.5507746717
O   O4        1.0  0.65290  0.88748  0.40460  1.0000 -0.5507746717
O   O5        1.0  0.59599  0.05436  0.53959  1.0000 -0.5708953819
O   O6        1.0  0.65729  0.02297  0.39129  1.0000 -0.5595611414
O   O7        1.0  0.19020  0.43440  0.15350  1.0000 -0.5507746717
O   O8        1.0  0.34710  0.38748  0.09540  1.0000 -0.5507746717
O   O9        1.0  0.59599  0.44564  0.03959  1.0000 -0.5708953819
O   O10       1.0  0.65729  0.47703  0.89129  1.0000 -0.5595611414
O   O11       1.0  0.19020  0.06560  0.65350  1.0000 -0.5507746717
O   O12       1.0  0.34710  0.11252  0.59540  1.0000 -0.5507746717
O   O13       1.0  0.40401  0.94564  0.46041  1.0000 -0.5708953819
O   O14       1.0  0.34271  0.97703  0.60871  1.0000 -0.5595611414
O   O15       1.0  0.80980  0.56560  0.84650  1.0000 -0.5507746717
O   O16       1.0  0.65290  0.61252  0.90460  1.0000 -0.5507746717
