# DDEC6 charges by PACMAN v1.1 (https://github.com/mtap-research/PACMAN-charge/)
data_2021[Eu][nan]3[FSR]3
_chemical_formula_sum              "Eu2 H26 C24 O22"
_cell_length_a       8.8291
_cell_length_b       9.9655
_cell_length_c       10.369
_cell_angle_alpha    77.569
_cell_angle_beta     83.197
_cell_angle_gamma    87.193

_symmetry_space_group_name_H-M    "P 1"
_symmetry_Int_Tables_number       1

loop_
  _symmetry_equiv_pos_as_xyz
  'x, y, z'

loop_
  _atom_site_type_symbol
  _atom_site_label
  _atom_site_symmetry_multiplicity
  _atom_site_fract_x
  _atom_site_fract_y
  _atom_site_fract_z
  _atom_site_occupancy
  _atom_site_charge
Eu  Eu1       1.0  0.25059  0.00441  0.51502  1.0000 2.0441431385
Eu  Eu2       1.0  0.74941  0.99559  0.48498  1.0000 2.0441431385
H   H1        1.0  0.33293  0.70085  0.48440  1.0000 0.2735626977
H   H2        1.0  0.43344  0.78088  0.46080  1.0000 0.2812804562
H   H3        1.0  0.10850  0.94081  0.30734  1.0000 0.4009485227
H   H4        1.0  0.27179  0.94085  0.26274  1.0000 0.3621832114
H   H5        1.0  0.58023  0.43230  0.20258  1.0000 0.148959985
H   H6        1.0  0.89029  0.68234  0.95774  1.0000 0.1318222266
H   H7        1.0  0.74534  0.35112  0.84809  1.0000 0.1609106344
H   H8        1.0  0.39156  0.15429  0.14790  1.0000 0.1384207827
H   H9        1.0  0.42025  0.28961  0.19431  1.0000 0.1384207827
H   H10       1.0  0.82604  0.81270  0.10190  1.0000 0.1384207827
H   H11       1.0  0.93015  0.70222  0.18401  1.0000 0.1318222266
H   H12       1.0  0.11576  0.62337  0.67508  1.0000 0.1384207827
H   H13       1.0  0.04903  0.68093  0.79980  1.0000 0.1384207827
H   H14       1.0  0.66707  0.29915  0.51560  1.0000 0.2735626977
H   H15       1.0  0.56656  0.21912  0.53920  1.0000 0.2812804562
H   H16       1.0  0.89150  0.05919  0.69266  1.0000 0.4009485227
H   H17       1.0  0.72821  0.05915  0.73726  1.0000 0.3621832114
H   H18       1.0  0.41977  0.56770  0.79742  1.0000 0.148959985
H   H19       1.0  0.10971  0.31766  0.04226  1.0000 0.1318222266
H   H20       1.0  0.25466  0.64888  0.15191  1.0000 0.1609106344
H   H21       1.0  0.60844  0.84571  0.85210  1.0000 0.1384207827
H   H22       1.0  0.57975  0.71039  0.80569  1.0000 0.1384207827
H   H23       1.0  0.17396  0.18730  0.89810  1.0000 0.1384207827
H   H24       1.0  0.06985  0.29778  0.81599  1.0000 0.1318222266
H   H25       1.0  0.88424  0.37663  0.32492  1.0000 0.1384207827
H   H26       1.0  0.95097  0.31907  0.20020  1.0000 0.1384207827
C   C1        1.0  0.64830  0.37400  0.03020  1.0000 0.2899091325
C   C2        1.0  0.64290  0.45420  0.12270  1.0000 -0.3673470634
C   C3        1.0  0.73450  0.57020  0.09340  1.0000 0.2899091325
C   C4        1.0  0.83070  0.60470  0.97600  1.0000 -0.3922204989
C   C5        1.0  0.83410  0.51780  0.88640  1.0000 0.2899091325
C   C6        1.0  0.74360  0.40570  0.91060  1.0000 -0.3514194507
C   C7        1.0  0.47030  0.21140  0.16390  1.0000 -0.1689406354
C   C8        1.0  0.55940  0.12920  0.27260  1.0000 0.6396769863
C   C9        1.0  0.82910  0.74500  0.18430  1.0000 -0.1590120736
C   C10       1.0  0.79900  0.81490  0.29950  1.0000 0.622761665
C   C11       1.0  0.02220  0.65080  0.72270  1.0000 -0.1773999352
C   C12       1.0  0.94940  0.76850  0.63480  1.0000 0.6601009947
C   C13       1.0  0.35170  0.62600  0.96980  1.0000 0.2899091325
C   C14       1.0  0.35710  0.54580  0.87730  1.0000 -0.3673470634
C   C15       1.0  0.26550  0.42980  0.90660  1.0000 0.2899091325
C   C16       1.0  0.16930  0.39530  0.02400  1.0000 -0.3922204989
C   C17       1.0  0.16590  0.48220  0.11360  1.0000 0.2899091325
C   C18       1.0  0.25640  0.59430  0.08940  1.0000 -0.3514194507
C   C19       1.0  0.52970  0.78860  0.83610  1.0000 -0.1689406354
C   C20       1.0  0.44060  0.87080  0.72740  1.0000 0.6396769863
C   C21       1.0  0.17090  0.25500  0.81570  1.0000 -0.1590120736
C   C22       1.0  0.20100  0.18510  0.70050  1.0000 0.622761665
C   C23       1.0  0.97780  0.34920  0.27730  1.0000 -0.1773999352
C   C24       1.0  0.05060  0.23150  0.36520  1.0000 0.6601009947
O   O1        1.0  0.48210  0.06910  0.37850  1.0000 -0.7440804261
O   O2        1.0  0.70020  0.12220  0.25690  1.0000 -0.5836363453
O   O3        1.0  0.66870  0.81200  0.36540  1.0000 -0.61010044
O   O4        1.0  0.90420  0.88180  0.32250  1.0000 -0.61010044
O   O5        1.0  0.03330  0.86900  0.57970  1.0000 -0.7510588783
O   O6        1.0  0.81230  0.76530  0.61530  1.0000 -0.61010044
O   O7        1.0  0.56240  0.25890  0.04360  1.0000 -0.1689406354
O   O8        1.0  0.72000  0.64440  0.19170  1.0000 -0.1590120736
O   O9        1.0  0.92680  0.53420  0.76660  1.0000 -0.1923584658
O   O10       1.0  0.35540  0.76990  0.49250  1.0000 -0.6420414764
O   O11       1.0  0.20050  0.96650  0.30020  1.0000 -0.7322347778
O   O12       1.0  0.51790  0.93090  0.62150  1.0000 -0.7440804261
O   O13       1.0  0.29980  0.87780  0.74310  1.0000 -0.5836363453
O   O14       1.0  0.33130  0.18800  0.63460  1.0000 -0.61010044
O   O15       1.0  0.09580  0.11820  0.67750  1.0000 -0.61010044
O   O16       1.0  0.96670  0.13100  0.42030  1.0000 -0.7510588783
O   O17       1.0  0.18770  0.23470  0.38470  1.0000 -0.61010044
O   O18       1.0  0.43760  0.74110  0.95640  1.0000 -0.1689406354
O   O19       1.0  0.28000  0.35560  0.80830  1.0000 -0.1590120736
O   O20       1.0  0.07320  0.46580  0.23340  1.0000 -0.1923584658
O   O21       1.0  0.64460  0.23010  0.50750  1.0000 -0.6420414764
O   O22       1.0  0.79950  0.03350  0.69980  1.0000 -0.7322347778
