# DDEC6 charges by PACMAN v1.1 (https://github.com/mtap-research/PACMAN-charge/)
data_2021[Al][nan]3[FSR]19
_chemical_formula_sum              "Al8 H24 C40 N16 O40"
_cell_length_a       12.27
_cell_length_b       15.01
_cell_length_c       13.844
_cell_angle_alpha    90
_cell_angle_beta     102.5
_cell_angle_gamma    90

_symmetry_space_group_name_H-M    "P 1"
_symmetry_Int_Tables_number       1

loop_
  _symmetry_equiv_pos_as_xyz
  'x, y, z'

loop_
  _atom_site_type_symbol
  _atom_site_label
  _atom_site_symmetry_multiplicity
  _atom_site_fract_x
  _atom_site_fract_y
  _atom_site_fract_z
  _atom_site_occupancy
  _atom_site_charge
Al  Al1       1.0  0.23540  0.44050  0.93980  1.0000 1.6125135325
Al  Al2       1.0  0.76460  0.94050  0.56020  1.0000 1.6125135325
Al  Al3       1.0  0.76460  0.55950  0.06020  1.0000 1.6125135325
Al  Al4       1.0  0.23540  0.05950  0.43980  1.0000 1.6125135325
Al  Al5       1.0  0.50000  0.50000  0.00000  1.0000 1.6224617265
Al  Al6       1.0  0.50000  0.00000  0.50000  1.0000 1.6224617265
Al  Al7       1.0  0.00000  0.50000  0.00000  1.0000 1.6263645194
Al  Al8       1.0  0.00000  0.00000  0.50000  1.0000 1.6263645194
H   H1        1.0  0.33038  0.57326  0.99806  1.0000 0.4241324864
H   H2        1.0  0.18809  0.48915  0.08894  1.0000 0.4275255285
H   H3        1.0  0.71517  0.78066  0.82072  1.0000 0.1685244791
H   H4        1.0  0.40879  0.75423  0.85436  1.0000 0.289780458
H   H5        1.0  0.21229  0.63204  0.71755  1.0000 0.2829868175
H   H6        1.0  0.92308  0.70999  0.75016  1.0000 0.1685244791
H   H7        1.0  0.66962  0.07326  0.50194  1.0000 0.4241324864
H   H8        1.0  0.81191  0.98915  0.41106  1.0000 0.4275255285
H   H9        1.0  0.28483  0.28066  0.67928  1.0000 0.1685244791
H   H10       1.0  0.59121  0.25423  0.64564  1.0000 0.289780458
H   H11       1.0  0.78771  0.13204  0.78245  1.0000 0.2829868175
H   H12       1.0  0.07692  0.20999  0.74984  1.0000 0.1685244791
H   H13       1.0  0.66962  0.42674  0.00194  1.0000 0.4241324864
H   H14       1.0  0.81191  0.51085  0.91106  1.0000 0.4275255285
H   H15       1.0  0.28483  0.21934  0.17928  1.0000 0.1685244791
H   H16       1.0  0.59121  0.24577  0.14564  1.0000 0.289780458
H   H17       1.0  0.78771  0.36796  0.28245  1.0000 0.2829868175
H   H18       1.0  0.07692  0.29001  0.24984  1.0000 0.1685244791
H   H19       1.0  0.33038  0.92674  0.49806  1.0000 0.4275255285
H   H20       1.0  0.18809  0.01085  0.58894  1.0000 0.4275255285
H   H21       1.0  0.71517  0.71934  0.32072  1.0000 0.1685244791
H   H22       1.0  0.40879  0.74577  0.35436  1.0000 0.289780458
H   H23       1.0  0.21229  0.86796  0.21755  1.0000 0.2829868175
H   H24       1.0  0.92308  0.79001  0.25016  1.0000 0.1685244791
C   C1        1.0  0.59700  0.66120  0.93020  1.0000 0.5872550509
C   C2        1.0  0.57000  0.73760  0.86380  1.0000 0.0304751364
C   C3        1.0  0.08000  0.56820  0.83090  1.0000 0.6079298359
C   C4        1.0  0.63800  0.78560  0.81320  1.0000 -0.2181948931
C   C5        1.0  0.06700  0.64480  0.76210  1.0000 -0.0088260353
C   C6        1.0  0.57100  0.83930  0.75280  1.0000 0.0452466929
C   C7        1.0  0.99100  0.70490  0.73130  1.0000 -0.2094203897
C   C8        1.0  0.59200  0.90130  0.67340  1.0000 0.6294798456
C   C9        1.0  0.02900  0.75990  0.66520  1.0000 0.0129362499
C   C10       1.0  0.97700  0.83770  0.61450  1.0000 0.6042535208
C   C11       1.0  0.40300  0.16120  0.56980  1.0000 0.5872550509
C   C12       1.0  0.43000  0.23760  0.63620  1.0000 0.0304751364
C   C13       1.0  0.92000  0.06820  0.66910  1.0000 0.6079298359
C   C14       1.0  0.36200  0.28560  0.68680  1.0000 -0.2251878925
C   C15       1.0  0.93300  0.14480  0.73790  1.0000 -0.0088260353
C   C16       1.0  0.42900  0.33930  0.74720  1.0000 0.0452466929
C   C17       1.0  0.00900  0.20490  0.76870  1.0000 -0.2094203897
C   C18       1.0  0.40800  0.40130  0.82660  1.0000 0.6294798456
C   C19       1.0  0.97100  0.25990  0.83480  1.0000 0.0129362499
C   C20       1.0  0.02300  0.33770  0.88550  1.0000 0.6079298359
C   C21       1.0  0.40300  0.33880  0.06980  1.0000 0.5872550509
C   C22       1.0  0.43000  0.26240  0.13620  1.0000 0.0304751364
C   C23       1.0  0.92000  0.43180  0.16910  1.0000 0.6079298359
C   C24       1.0  0.36200  0.21440  0.18680  1.0000 -0.2251878925
C   C25       1.0  0.93300  0.35520  0.23790  1.0000 -0.0088260353
C   C26       1.0  0.42900  0.16070  0.24720  1.0000 0.0452466929
C   C27       1.0  0.00900  0.29510  0.26870  1.0000 -0.2094203897
C   C28       1.0  0.40800  0.09870  0.32660  1.0000 0.6294798456
C   C29       1.0  0.97100  0.24010  0.33480  1.0000 0.0129362499
C   C30       1.0  0.02300  0.16230  0.38550  1.0000 0.6042535208
C   C31       1.0  0.59700  0.83880  0.43020  1.0000 0.5872550509
C   C32       1.0  0.57000  0.76240  0.36380  1.0000 0.0304751364
C   C33       1.0  0.08000  0.93180  0.33090  1.0000 0.6079298359
C   C34       1.0  0.63800  0.71440  0.31320  1.0000 -0.2251878925
C   C35       1.0  0.06700  0.85520  0.26210  1.0000 -0.0088260353
C   C36       1.0  0.57100  0.66070  0.25280  1.0000 0.0452466929
C   C37       1.0  0.99100  0.79510  0.23130  1.0000 -0.2094203897
C   C38       1.0  0.59200  0.59870  0.17340  1.0000 0.6294798456
C   C39       1.0  0.02900  0.74010  0.16520  1.0000 0.0129362499
C   C40       1.0  0.97700  0.66230  0.11450  1.0000 0.6079298359
N   N1        1.0  0.46600  0.77220  0.83350  1.0000 -0.0570770999
N   N2        1.0  0.46300  0.84050  0.76450  1.0000 -0.2094203897
N   N3        1.0  0.15200  0.66240  0.71100  1.0000 -0.0470724436
N   N4        1.0  0.12600  0.73140  0.65160  1.0000 -0.1768951364
N   N5        1.0  0.53400  0.27220  0.66650  1.0000 -0.0570770999
N   N6        1.0  0.53700  0.34050  0.73550  1.0000 -0.2181948931
N   N7        1.0  0.84800  0.16240  0.78900  1.0000 -0.0470724436
N   N8        1.0  0.87400  0.23140  0.84840  1.0000 -0.1768951364
N   N9        1.0  0.53400  0.22780  0.16650  1.0000 -0.0570770999
N   N10       1.0  0.53700  0.15950  0.23550  1.0000 -0.2181948931
N   N11       1.0  0.84800  0.33760  0.28900  1.0000 -0.0470724436
N   N12       1.0  0.87400  0.26860  0.34840  1.0000 -0.1768951364
N   N13       1.0  0.46600  0.72780  0.33350  1.0000 -0.0570770999
N   N14       1.0  0.46300  0.65950  0.26450  1.0000 -0.2181948931
N   N15       1.0  0.15200  0.83760  0.21100  1.0000 -0.0470724436
N   N16       1.0  0.12600  0.76860  0.15160  1.0000 -0.1768951364
O   O1        1.0  0.35130  0.51640  0.98250  1.0000 -1.0112640359
O   O2        1.0  0.48300  0.44800  0.87290  1.0000 -0.5491030388
O   O3        1.0  0.51280  0.61890  0.94610  1.0000 -0.5898751203
O   O4        1.0  0.14980  0.47890  0.02420  1.0000 -1.0194166698
O   O5        1.0  0.30950  0.39180  0.84350  1.0000 -0.5898751203
O   O6        1.0  0.16950  0.52300  0.84170  1.0000 -0.6007654288
O   O7        1.0  0.12800  0.35050  0.88610  1.0000 -0.5844692983
O   O8        1.0  0.30500  0.34780  0.02630  1.0000 -0.5416686558
O   O9        1.0  0.00900  0.56460  0.88270  1.0000 -0.5491030388
O   O10       1.0  0.97150  0.38920  0.92870  1.0000 -0.5416686558
O   O11       1.0  0.64870  0.01640  0.51750  1.0000 -1.0112640359
O   O12       1.0  0.51700  0.94800  0.62710  1.0000 -0.5491030388
O   O13       1.0  0.48720  0.11890  0.55390  1.0000 -0.5898751203
O   O14       1.0  0.85020  0.97890  0.47580  1.0000 -1.0194166698
O   O15       1.0  0.69050  0.89180  0.65650  1.0000 -0.5898751203
O   O16       1.0  0.83050  0.02300  0.65830  1.0000 -0.6007654288
O   O17       1.0  0.87200  0.85050  0.61390  1.0000 -0.5844692983
O   O18       1.0  0.69500  0.84780  0.47370  1.0000 -0.5416686558
O   O19       1.0  0.99100  0.06460  0.61730  1.0000 -0.5491030388
O   O20       1.0  0.02850  0.88920  0.57130  1.0000 -0.5416686558
O   O21       1.0  0.64870  0.48360  0.01750  1.0000 -1.0112640359
O   O22       1.0  0.51700  0.55200  0.12710  1.0000 -0.5491030388
O   O23       1.0  0.48720  0.38110  0.05390  1.0000 -0.5898751203
O   O24       1.0  0.85020  0.52110  0.97580  1.0000 -1.0194166698
O   O25       1.0  0.69050  0.60820  0.15650  1.0000 -0.5898751203
O   O26       1.0  0.83050  0.47700  0.15830  1.0000 -0.6007654288
O   O27       1.0  0.87200  0.64950  0.11390  1.0000 -0.5844692983
O   O28       1.0  0.69500  0.65220  0.97370  1.0000 -0.5416686558
O   O29       1.0  0.99100  0.43540  0.11730  1.0000 -0.5491030388
O   O30       1.0  0.02850  0.61080  0.07130  1.0000 -0.5416686558
O   O31       1.0  0.35130  0.98360  0.48250  1.0000 -1.0112640359
O   O32       1.0  0.48300  0.05200  0.37290  1.0000 -0.5491030388
O   O33       1.0  0.51280  0.88110  0.44610  1.0000 -0.6007654288
O   O34       1.0  0.14980  0.02110  0.52420  1.0000 -1.0194166698
O   O35       1.0  0.30950  0.10820  0.34350  1.0000 -0.5898751203
O   O36       1.0  0.16950  0.97700  0.34170  1.0000 -0.6007654288
O   O37       1.0  0.12800  0.14950  0.38610  1.0000 -0.5844692983
O   O38       1.0  0.30500  0.15220  0.52630  1.0000 -0.5416686558
O   O39       1.0  0.00900  0.93540  0.38270  1.0000 -0.5491030388
O   O40       1.0  0.97150  0.11080  0.42870  1.0000 -0.5416686558
