# DDEC6 charges by PACMAN v1.1 (https://github.com/mtap-research/PACMAN-charge/)
data_2021[Mn][kgd]2[FSR]3
_chemical_formula_sum              "Mn2 H24 C32 N4 O16"
_cell_length_a       14.278
_cell_length_b       14.278
_cell_length_c       15.4895
_cell_angle_alpha    63.2986
_cell_angle_beta     116.701
_cell_angle_gamma    161.542

_symmetry_space_group_name_H-M    "P 1"
_symmetry_Int_Tables_number       1

loop_
  _symmetry_equiv_pos_as_xyz
  'x, y, z'

loop_
  _atom_site_type_symbol
  _atom_site_label
  _atom_site_symmetry_multiplicity
  _atom_site_fract_x
  _atom_site_fract_y
  _atom_site_fract_z
  _atom_site_occupancy
  _atom_site_charge
Mn  Mn1       1.0  0.00000  0.50000  0.00000  1.0000 0.9654232498
Mn  Mn2       1.0  0.50000  0.00000  0.50000  1.0000 0.9654232498
H   H1        1.0  0.04787  0.66793  0.53959  1.0000 0.291524985
H   H2        1.0  0.17255  0.86695  0.45748  1.0000 0.2974687453
H   H3        1.0  0.21886  0.78906  0.70312  1.0000 0.1294775411
H   H4        1.0  0.51178  0.30790  0.47158  1.0000 0.1416658397
H   H5        1.0  0.71862  0.47644  0.73995  1.0000 0.1294775411
H   H6        1.0  0.02420  0.97780  0.59220  1.0000 0.3652557816
H   H7        1.0  0.66793  0.04787  0.96041  1.0000 0.291524985
H   H8        1.0  0.86695  0.17255  0.04252  1.0000 0.2974687453
H   H9        1.0  0.78906  0.21886  0.79688  1.0000 0.1294775411
H   H10       1.0  0.30790  0.51178  0.02842  1.0000 0.1416658397
H   H11       1.0  0.47644  0.71862  0.76005  1.0000 0.1294775411
H   H12       1.0  0.97780  0.02420  0.90780  1.0000 0.3652557816
H   H13       1.0  0.95213  0.33207  0.46041  1.0000 0.291524985
H   H14       1.0  0.82745  0.13305  0.54252  1.0000 0.2974687453
H   H15       1.0  0.78114  0.21094  0.29688  1.0000 0.1294775411
H   H16       1.0  0.48822  0.69210  0.52842  1.0000 0.1416658397
H   H17       1.0  0.28138  0.52356  0.26005  1.0000 0.1294775411
H   H18       1.0  0.97580  0.02220  0.40780  1.0000 0.3652557816
H   H19       1.0  0.33207  0.95213  0.03959  1.0000 0.291524985
H   H20       1.0  0.13305  0.82745  0.95748  1.0000 0.2974687453
H   H21       1.0  0.21094  0.78114  0.20312  1.0000 0.1294775411
H   H22       1.0  0.69210  0.48822  0.97158  1.0000 0.1416658397
H   H23       1.0  0.52356  0.28138  0.23995  1.0000 0.1294775411
H   H24       1.0  0.02220  0.97580  0.09220  1.0000 0.3652557816
C   C1        1.0  0.32500  0.95080  0.67640  1.0000 -0.1922346268
C   C2        1.0  0.34090  0.01870  0.57590  1.0000 0.2639000948
C   C3        1.0  0.45460  0.05100  0.84640  1.0000 0.5706443276
C   C4        1.0  0.46680  0.12300  0.73710  1.0000 -0.0058582474
C   C5        1.0  0.49650  0.25730  0.53810  1.0000 -0.2094535742
C   C6        1.0  0.63190  0.42370  0.60010  1.0000 -0.0338658158
C   C7        1.0  0.62170  0.36010  0.69940  1.0000 -0.1365813081
C   C8        1.0  0.78930  0.67290  0.55650  1.0000 0.5706443276
C   C9        1.0  0.95080  0.32500  0.82360  1.0000 -0.1922346268
C   C10       1.0  0.01870  0.34090  0.92410  1.0000 0.2639000948
C   C11       1.0  0.05100  0.45460  0.65360  1.0000 0.5706443276
C   C12       1.0  0.12300  0.46680  0.76290  1.0000 -0.0058582474
C   C13       1.0  0.25730  0.49650  0.96190  1.0000 -0.2094535742
C   C14       1.0  0.42370  0.63190  0.89990  1.0000 -0.0338658158
C   C15       1.0  0.36010  0.62170  0.80060  1.0000 -0.1365813081
C   C16       1.0  0.67290  0.78930  0.94350  1.0000 0.5706443276
C   C17       1.0  0.67500  0.04920  0.32360  1.0000 -0.1922346268
C   C18       1.0  0.65910  0.98130  0.42410  1.0000 0.2639000948
C   C19       1.0  0.54540  0.94900  0.15360  1.0000 0.5706443276
C   C20       1.0  0.53320  0.87700  0.26290  1.0000 -0.0058582474
C   C21       1.0  0.50350  0.74270  0.46190  1.0000 -0.2094535742
C   C22       1.0  0.36810  0.57630  0.39990  1.0000 -0.0338658158
C   C23       1.0  0.37830  0.63990  0.30060  1.0000 -0.1365813081
C   C24       1.0  0.21070  0.32710  0.44350  1.0000 0.5706443276
C   C25       1.0  0.04920  0.67500  0.17640  1.0000 -0.1922346268
C   C26       1.0  0.98130  0.65910  0.07590  1.0000 0.2639000948
C   C27       1.0  0.94900  0.54540  0.34640  1.0000 0.5706443276
C   C28       1.0  0.87700  0.53320  0.23710  1.0000 -0.0058582474
C   C29       1.0  0.74270  0.50350  0.03810  1.0000 -0.2094535742
C   C30       1.0  0.57630  0.36810  0.10010  1.0000 -0.0338658158
C   C31       1.0  0.63990  0.37830  0.19940  1.0000 -0.1365813081
C   C32       1.0  0.32710  0.21070  0.05650  1.0000 0.5706443276
N   N1        1.0  0.21750  0.85750  0.51640  1.0000 -0.5824360613
N   N2        1.0  0.85750  0.21750  0.98360  1.0000 -0.5824360613
N   N3        1.0  0.78250  0.14250  0.48360  1.0000 -0.5824360613
N   N4        1.0  0.14250  0.78250  0.01640  1.0000 -0.5824360613
O   O1        1.0  0.63287  0.24373  0.89857  1.0000 -0.5679857944
O   O2        1.0  0.26882  0.80238  0.87772  1.0000 -0.5679857944
O   O3        1.0  0.91530  0.82650  0.61120  1.0000 -0.3970010642
O   O4        1.0  0.78980  0.72260  0.46420  1.0000 -0.549368522
O   O5        1.0  0.24373  0.63287  0.60143  1.0000 -0.5679857944
O   O6        1.0  0.80238  0.26882  0.62228  1.0000 -0.5679857944
O   O7        1.0  0.82650  0.91530  0.88880  1.0000 -0.3970010642
O   O8        1.0  0.72260  0.78980  0.03580  1.0000 -0.549368522
O   O9        1.0  0.36713  0.75627  0.10143  1.0000 -0.5679857944
O   O10       1.0  0.73118  0.19762  0.12228  1.0000 -0.5679857944
O   O11       1.0  0.08470  0.17350  0.38880  1.0000 -0.3970010642
O   O12       1.0  0.21020  0.27740  0.53580  1.0000 -0.549368522
O   O13       1.0  0.75627  0.36713  0.39857  1.0000 -0.5679857944
O   O14       1.0  0.19762  0.73118  0.37772  1.0000 -0.5679857944
O   O15       1.0  0.17350  0.08470  0.11120  1.0000 -0.3970010642
O   O16       1.0  0.27740  0.21020  0.96420  1.0000 -0.549368522
