# DDEC6 charges by PACMAN v1.1 (https://github.com/mtap-research/PACMAN-charge/)
data_2021[U][pcu]3[FSR]3
_chemical_formula_sum              "U16 H80 C104 N16 O80"
_cell_length_a       7.16
_cell_length_b       32.8225
_cell_length_c       17.4561
_cell_angle_alpha    90
_cell_angle_beta     104.675
_cell_angle_gamma    90

_symmetry_space_group_name_H-M    "P 1"
_symmetry_Int_Tables_number       1

loop_
  _symmetry_equiv_pos_as_xyz
  'x, y, z'

loop_
  _atom_site_type_symbol
  _atom_site_label
  _atom_site_symmetry_multiplicity
  _atom_site_fract_x
  _atom_site_fract_y
  _atom_site_fract_z
  _atom_site_occupancy
  _atom_site_charge
U   U1        1.0  0.92141  0.35064  0.37765  1.0000 2.5424170395
U   U2        1.0  0.76623  0.37762  0.13655  1.0000 2.5241252681
U   U3        1.0  0.86442  0.45688  0.30228  1.0000 2.5882502099
U   U4        1.0  0.01281  0.44526  0.52268  1.0000 2.5989870728
U   U5        1.0  0.07859  0.85064  0.12235  1.0000 2.5424170395
U   U6        1.0  0.23377  0.87762  0.36345  1.0000 2.5241252681
U   U7        1.0  0.13558  0.95688  0.19772  1.0000 2.5882502099
U   U8        1.0  0.98719  0.94526  0.97732  1.0000 2.5989870728
U   U9        1.0  0.07859  0.64936  0.62235  1.0000 2.5424170395
U   U10       1.0  0.23377  0.62238  0.86345  1.0000 2.5241252681
U   U11       1.0  0.13558  0.54312  0.69772  1.0000 2.5882502099
U   U12       1.0  0.98719  0.55474  0.47732  1.0000 2.5882502099
U   U13       1.0  0.92141  0.14936  0.87765  1.0000 2.5424170395
U   U14       1.0  0.76623  0.12238  0.63655  1.0000 2.5241252681
U   U15       1.0  0.86442  0.04312  0.80228  1.0000 2.5882502099
U   U16       1.0  0.01281  0.05474  0.02268  1.0000 2.5989870728
H   H1        1.0  0.92924  0.12999  0.16466  1.0000 0.1594735814
H   H2        1.0  0.92230  0.24842  0.09359  1.0000 0.1504074926
H   H3        1.0  0.39975  0.43000  0.87531  1.0000 0.1504074926
H   H4        1.0  0.53057  0.24601  0.85096  1.0000 0.1707105476
H   H5        1.0  0.30982  0.26023  0.83218  1.0000 0.1504074926
H   H6        1.0  0.36239  0.21541  0.80817  1.0000 0.191523665
H   H7        1.0  0.27199  0.36876  0.66775  1.0000 0.1504074926
H   H8        1.0  0.57139  0.31265  0.86841  1.0000 0.1421523368
H   H9        1.0  0.40378  0.20936  0.65727  1.0000 0.191523665
H   H10       1.0  0.88531  0.22131  0.31711  1.0000 0.1421523368
H   H11       1.0  0.30850  0.26477  0.48953  1.0000 0.1707105476
H   H12       1.0  0.52860  0.27959  0.51120  1.0000 0.1707105476
H   H13       1.0  0.47908  0.23241  0.51832  1.0000 0.1707105476
H   H14       1.0  0.01609  0.09277  0.46829  1.0000 0.191523665
H   H15       1.0  0.14192  0.16791  0.49352  1.0000 0.191523665
H   H16       1.0  0.19351  0.18737  0.41735  1.0000 0.1594735814
H   H17       1.0  0.99202  0.19784  0.43672  1.0000 0.1707105476
H   H18       1.0  0.69178  0.03389  0.34820  1.0000 0.1594735814
H   H19       1.0  0.82876  0.02562  0.29026  1.0000 0.1805790489
H   H20       1.0  0.91189  0.02075  0.38394  1.0000 0.1707105476
H   H21       1.0  0.07076  0.62999  0.33534  1.0000 0.1594735814
H   H22       1.0  0.07770  0.74842  0.40641  1.0000 0.1504074926
H   H23       1.0  0.60025  0.93000  0.62469  1.0000 0.1504074926
H   H24       1.0  0.46943  0.74601  0.64904  1.0000 0.1707105476
H   H25       1.0  0.69018  0.76023  0.66782  1.0000 0.1504074926
H   H26       1.0  0.63761  0.71541  0.69183  1.0000 0.191523665
H   H27       1.0  0.72801  0.86876  0.83225  1.0000 0.1504074926
H   H28       1.0  0.42861  0.81265  0.63159  1.0000 0.1421523368
H   H29       1.0  0.59622  0.70936  0.84273  1.0000 0.191523665
H   H30       1.0  0.11469  0.72131  0.18289  1.0000 0.1421523368
H   H31       1.0  0.69150  0.76477  0.01047  1.0000 0.1707105476
H   H32       1.0  0.47140  0.77959  0.98880  1.0000 0.1707105476
H   H33       1.0  0.52092  0.73241  0.98168  1.0000 0.1707105476
H   H34       1.0  0.98391  0.59277  0.03171  1.0000 0.191523665
H   H35       1.0  0.85808  0.66791  0.00648  1.0000 0.191523665
H   H36       1.0  0.80649  0.68737  0.08265  1.0000 0.1594735814
H   H37       1.0  0.00798  0.69784  0.06328  1.0000 0.1707105476
H   H38       1.0  0.30822  0.53389  0.15180  1.0000 0.1594735814
H   H39       1.0  0.17124  0.52562  0.20974  1.0000 0.1805790489
H   H40       1.0  0.08811  0.52075  0.11606  1.0000 0.1707105476
H   H41       1.0  0.07076  0.87001  0.83534  1.0000 0.1594735814
H   H42       1.0  0.07770  0.75158  0.90641  1.0000 0.1504074926
H   H43       1.0  0.60025  0.57000  0.12469  1.0000 0.1504074926
H   H44       1.0  0.46943  0.75399  0.14904  1.0000 0.1707105476
H   H45       1.0  0.69018  0.73977  0.16782  1.0000 0.1504074926
H   H46       1.0  0.63761  0.78459  0.19183  1.0000 0.191523665
H   H47       1.0  0.72801  0.63124  0.33225  1.0000 0.1504074926
H   H48       1.0  0.42861  0.68735  0.13159  1.0000 0.1421523368
H   H49       1.0  0.59622  0.79064  0.34273  1.0000 0.191523665
H   H50       1.0  0.11469  0.77869  0.68289  1.0000 0.1421523368
H   H51       1.0  0.69150  0.73523  0.51047  1.0000 0.1707105476
H   H52       1.0  0.47140  0.72041  0.48880  1.0000 0.1707105476
H   H53       1.0  0.52092  0.76759  0.48168  1.0000 0.1707105476
H   H54       1.0  0.98391  0.90723  0.53171  1.0000 0.191523665
H   H55       1.0  0.85808  0.83209  0.50648  1.0000 0.191523665
H   H56       1.0  0.80649  0.81263  0.58265  1.0000 0.1594735814
H   H57       1.0  0.00798  0.80216  0.56328  1.0000 0.1707105476
H   H58       1.0  0.30822  0.96611  0.65180  1.0000 0.1594735814
H   H59       1.0  0.17124  0.97438  0.70974  1.0000 0.1805790489
H   H60       1.0  0.08811  0.97925  0.61606  1.0000 0.1707105476
H   H61       1.0  0.92924  0.37001  0.66466  1.0000 0.1594735814
H   H62       1.0  0.92230  0.25158  0.59359  1.0000 0.1504074926
H   H63       1.0  0.39975  0.07000  0.37531  1.0000 0.1504074926
H   H64       1.0  0.53057  0.25399  0.35096  1.0000 0.1707105476
H   H65       1.0  0.30982  0.23977  0.33218  1.0000 0.1504074926
H   H66       1.0  0.36239  0.28459  0.30817  1.0000 0.191523665
H   H67       1.0  0.27199  0.13124  0.16775  1.0000 0.1504074926
H   H68       1.0  0.57139  0.18735  0.36841  1.0000 0.1421523368
H   H69       1.0  0.40378  0.29064  0.15727  1.0000 0.191523665
H   H70       1.0  0.88531  0.27869  0.81711  1.0000 0.1421523368
H   H71       1.0  0.30850  0.23523  0.98953  1.0000 0.1707105476
H   H72       1.0  0.52860  0.22041  0.01120  1.0000 0.1707105476
H   H73       1.0  0.47908  0.26759  0.01832  1.0000 0.1707105476
H   H74       1.0  0.01609  0.40723  0.96829  1.0000 0.191523665
H   H75       1.0  0.14192  0.33209  0.99352  1.0000 0.191523665
H   H76       1.0  0.19351  0.31263  0.91735  1.0000 0.1594735814
H   H77       1.0  0.99202  0.30216  0.93672  1.0000 0.1707105476
H   H78       1.0  0.69178  0.46611  0.84820  1.0000 0.1594735814
H   H79       1.0  0.82876  0.47438  0.79026  1.0000 0.1805790489
H   H80       1.0  0.91189  0.47925  0.88394  1.0000 0.1707105476
C   C1        1.0  0.96110  0.17380  0.04040  1.0000 0.579870989
C   C2        1.0  0.92870  0.15820  0.17670  1.0000 -0.1613486433
C   C3        1.0  0.92070  0.22880  0.13340  1.0000 -0.0930908905
C   C4        1.0  0.40490  0.40570  0.84630  1.0000 -0.0790688569
C   C5        1.0  0.40380  0.24400  0.81320  1.0000 -0.4929067963
C   C6        1.0  0.32970  0.36960  0.72310  1.0000 -0.1613486433
C   C7        1.0  0.59560  0.37340  0.97070  1.0000 0.5296113392
C   C8        1.0  0.87540  0.28490  0.22280  1.0000 0.6228800999
C   C9        1.0  0.43030  0.26680  0.60790  1.0000 0.2946450612
C   C10       1.0  0.31660  0.40450  0.76530  1.0000 -0.0055602183
C   C11       1.0  0.20410  0.43960  0.72180  1.0000 0.6228800999
C   C12       1.0  0.50930  0.33620  0.84210  1.0000 -0.1732303935
C   C13       1.0  0.41660  0.25940  0.73490  1.0000 0.2428885897
C   C14       1.0  0.41430  0.23800  0.66460  1.0000 -0.3313572655
C   C15       1.0  0.49880  0.37230  0.88430  1.0000 -0.0007456756
C   C16       1.0  0.89900  0.24060  0.20820  1.0000 -0.0186405541
C   C17       1.0  0.89850  0.21270  0.26680  1.0000 -0.1732303935
C   C18       1.0  0.43720  0.26040  0.52470  1.0000 -0.4790360952
C   C19       1.0  0.42630  0.33580  0.76080  1.0000 0.1594735814
C   C20       1.0  0.91790  0.17110  0.25050  1.0000 0.1594735814
C   C21       1.0  0.93930  0.18790  0.11970  1.0000 0.0075098746
C   C22       1.0  0.99930  0.14150  0.39070  1.0000 0.219003593
C   C23       1.0  0.97630  0.10270  0.41550  1.0000 -0.321412983
C   C24       1.0  0.88290  0.08040  0.34810  1.0000 0.3010537426
C   C25       1.0  0.08920  0.17660  0.43860  1.0000 -0.4790360952
C   C26       1.0  0.82410  0.03630  0.34210  1.0000 -0.4413769344
C   C27       1.0  0.03890  0.67380  0.45960  1.0000 0.579870989
C   C28       1.0  0.07130  0.65820  0.32330  1.0000 -0.1613486433
C   C29       1.0  0.07930  0.72880  0.36660  1.0000 -0.0930908905
C   C30       1.0  0.59510  0.90570  0.65370  1.0000 -0.0790688569
C   C31       1.0  0.59620  0.74400  0.68680  1.0000 -0.4929067963
C   C32       1.0  0.67030  0.86960  0.77690  1.0000 -0.1613486433
C   C33       1.0  0.40440  0.87340  0.52930  1.0000 0.5296113392
C   C34       1.0  0.12460  0.78490  0.27720  1.0000 0.6228800999
C   C35       1.0  0.56970  0.76680  0.89210  1.0000 0.3010537426
C   C36       1.0  0.68340  0.90450  0.73470  1.0000 -0.0055602183
C   C37       1.0  0.79590  0.93960  0.77820  1.0000 0.6228800999
C   C38       1.0  0.49070  0.83620  0.65790  1.0000 -0.1732303935
C   C39       1.0  0.58340  0.75940  0.76510  1.0000 0.2428885897
C   C40       1.0  0.58570  0.73800  0.83540  1.0000 -0.3313572655
C   C41       1.0  0.50120  0.87230  0.61570  1.0000 -0.0007456756
C   C42       1.0  0.10100  0.74060  0.29180  1.0000 -0.0186405541
C   C43       1.0  0.10150  0.71270  0.23320  1.0000 -0.1732303935
C   C44       1.0  0.56280  0.76040  0.97530  1.0000 -0.4790360952
C   C45       1.0  0.57370  0.83580  0.73920  1.0000 0.1594735814
C   C46       1.0  0.08210  0.67110  0.24950  1.0000 0.1594735814
C   C47       1.0  0.06070  0.68790  0.38030  1.0000 0.0075098746
C   C48       1.0  0.00070  0.64150  0.10930  1.0000 0.219003593
C   C49       1.0  0.02370  0.60270  0.08450  1.0000 -0.321412983
C   C50       1.0  0.11710  0.58040  0.15190  1.0000 0.3010537426
C   C51       1.0  0.91080  0.67660  0.06140  1.0000 -0.4790360952
C   C52       1.0  0.17590  0.53630  0.15790  1.0000 -0.4413769344
C   C53       1.0  0.03890  0.82620  0.95960  1.0000 0.579870989
C   C54       1.0  0.07130  0.84180  0.82330  1.0000 -0.1613486433
C   C55       1.0  0.07930  0.77120  0.86660  1.0000 -0.0930908905
C   C56       1.0  0.59510  0.59430  0.15370  1.0000 -0.0790688569
C   C57       1.0  0.59620  0.75600  0.18680  1.0000 -0.4929067963
C   C58       1.0  0.67030  0.63040  0.27690  1.0000 -0.1613486433
C   C59       1.0  0.40440  0.62660  0.02930  1.0000 0.5296113392
C   C60       1.0  0.12460  0.71510  0.77720  1.0000 0.6228800999
C   C61       1.0  0.56970  0.73320  0.39210  1.0000 0.3010537426
C   C62       1.0  0.68340  0.59550  0.23470  1.0000 -0.0055602183
C   C63       1.0  0.79590  0.56040  0.27820  1.0000 0.6228800999
C   C64       1.0  0.49070  0.66380  0.15790  1.0000 -0.1732303935
C   C65       1.0  0.58340  0.74060  0.26510  1.0000 0.2428885897
C   C66       1.0  0.58570  0.76200  0.33540  1.0000 -0.3313572655
C   C67       1.0  0.50120  0.62770  0.11570  1.0000 -0.0007456756
C   C68       1.0  0.10100  0.75940  0.79180  1.0000 -0.0186405541
C   C69       1.0  0.10150  0.78730  0.73320  1.0000 -0.1732303935
C   C70       1.0  0.56280  0.73960  0.47530  1.0000 -0.4790360952
C   C71       1.0  0.57370  0.66420  0.23920  1.0000 0.1594735814
C   C72       1.0  0.08210  0.82890  0.74950  1.0000 0.1594735814
C   C73       1.0  0.06070  0.81210  0.88030  1.0000 0.0075098746
C   C74       1.0  0.00070  0.85850  0.60930  1.0000 0.219003593
C   C75       1.0  0.02370  0.89730  0.58450  1.0000 -0.321412983
C   C76       1.0  0.11710  0.91960  0.65190  1.0000 0.3010537426
C   C77       1.0  0.91080  0.82340  0.56140  1.0000 -0.4790360952
C   C78       1.0  0.17590  0.96370  0.65790  1.0000 -0.4413769344
C   C79       1.0  0.96110  0.32620  0.54040  1.0000 0.579870989
C   C80       1.0  0.92870  0.34180  0.67670  1.0000 -0.1613486433
C   C81       1.0  0.92070  0.27120  0.63340  1.0000 -0.0930908905
C   C82       1.0  0.40490  0.09430  0.34630  1.0000 -0.0790688569
C   C83       1.0  0.40380  0.25600  0.31320  1.0000 -0.4929067963
C   C84       1.0  0.32970  0.13040  0.22310  1.0000 -0.1613486433
C   C85       1.0  0.59560  0.12660  0.47070  1.0000 0.5296113392
C   C86       1.0  0.87540  0.21510  0.72280  1.0000 0.6228800999
C   C87       1.0  0.43030  0.23320  0.10790  1.0000 0.2946450612
C   C88       1.0  0.31660  0.09550  0.26530  1.0000 -0.0055602183
C   C89       1.0  0.20410  0.06040  0.22180  1.0000 0.6258371374
C   C90       1.0  0.50930  0.16380  0.34210  1.0000 -0.1732303935
C   C91       1.0  0.41660  0.24060  0.23490  1.0000 0.2428885897
C   C92       1.0  0.41430  0.26200  0.16460  1.0000 -0.3313572655
C   C93       1.0  0.49880  0.12770  0.38430  1.0000 -0.0007456756
C   C94       1.0  0.89900  0.25940  0.70820  1.0000 -0.0186405541
C   C95       1.0  0.89850  0.28730  0.76680  1.0000 -0.1732303935
C   C96       1.0  0.43720  0.23960  0.02470  1.0000 -0.4790360952
C   C97       1.0  0.42630  0.16420  0.26080  1.0000 0.1594735814
C   C98       1.0  0.91790  0.32890  0.75050  1.0000 0.1594735814
C   C99       1.0  0.93930  0.31210  0.61970  1.0000 0.0075098746
C   C100      1.0  0.99930  0.35850  0.89070  1.0000 0.219003593
C   C101      1.0  0.97630  0.39730  0.91550  1.0000 -0.321412983
C   C102      1.0  0.88290  0.41960  0.84810  1.0000 0.3010537426
C   C103      1.0  0.08920  0.32340  0.93860  1.0000 -0.4790360952
C   C104      1.0  0.82410  0.46370  0.84210  1.0000 -0.4413769344
N   N1        1.0  0.43310  0.30070  0.71520  1.0000 0.0763675472
N   N2        1.0  0.92030  0.14060  0.31050  1.0000 0.0611407807
N   N3        1.0  0.43790  0.30520  0.63710  1.0000 -0.2819274912
N   N4        1.0  0.84850  0.10280  0.28420  1.0000 -0.2819274912
N   N5        1.0  0.56690  0.80070  0.78480  1.0000 0.0763675472
N   N6        1.0  0.07970  0.64060  0.18950  1.0000 0.0611407807
N   N7        1.0  0.56210  0.80520  0.86290  1.0000 -0.2819274912
N   N8        1.0  0.15150  0.60280  0.21580  1.0000 -0.2819274912
N   N9        1.0  0.56690  0.69930  0.28480  1.0000 0.0763675472
N   N10       1.0  0.07970  0.85940  0.68950  1.0000 0.0611407807
N   N11       1.0  0.56210  0.69480  0.36290  1.0000 -0.2819274912
N   N12       1.0  0.15150  0.89720  0.71580  1.0000 -0.2819274912
N   N13       1.0  0.43310  0.19930  0.21520  1.0000 0.0763675472
N   N14       1.0  0.92030  0.35940  0.81050  1.0000 0.0611407807
N   N15       1.0  0.43790  0.19480  0.13710  1.0000 -0.2819274912
N   N16       1.0  0.84850  0.39720  0.78420  1.0000 -0.2819274912
O   O1        1.0  0.53490  0.36620  0.15170  1.0000 -0.6202593793
O   O2        1.0  0.66750  0.35280  0.37320  1.0000 -0.6202593793
O   O3        1.0  0.17640  0.34480  0.38640  1.0000 -0.5921909312
O   O4        1.0  0.87240  0.31010  0.16880  1.0000 -0.5818826804
O   O5        1.0  0.10400  0.46410  0.29150  1.0000 -0.5921909312
O   O6        1.0  0.94690  0.19920  0.98600  1.0000 -0.5578591426
O   O7        1.0  0.62470  0.45210  0.31230  1.0000 -0.5578591426
O   O8        1.0  0.99570  0.38840  0.11760  1.0000 -0.5921909312
O   O9        1.0  0.23240  0.47470  0.75040  1.0000 -0.5307918513
O   O10       1.0  0.08390  0.43140  0.65740  1.0000 -0.5818826804
O   O11       1.0  0.98950  0.13620  0.02960  1.0000 -0.6202593793
O   O12       1.0  0.66350  0.34151  0.00750  1.0000 -0.5675342182
O   O13       1.0  0.88710  0.38720  0.26510  1.0000 -1.1163233021
O   O14       1.0  0.59610  0.40716  0.00770  1.0000 -0.5307918513
O   O15       1.0  0.73500  0.44720  0.16470  1.0000 -0.8131329516
O   O16       1.0  0.96360  0.41505  0.40710  1.0000 -1.0937774876
O   O17       1.0  0.76010  0.44420  0.52080  1.0000 -0.5999948779
O   O18       1.0  0.86540  0.29480  0.29170  1.0000 -0.6070633689
O   O19       1.0  0.27050  0.44450  0.53190  1.0000 -0.6070633689
O   O20       1.0  0.95580  0.49250  0.42220  1.0000 -1.1104240516
O   O21       1.0  0.46510  0.86620  0.34830  1.0000 -0.6202593793
O   O22       1.0  0.33250  0.85280  0.12680  1.0000 -0.6202593793
O   O23       1.0  0.82360  0.84480  0.11360  1.0000 -0.5921909312
O   O24       1.0  0.12760  0.81010  0.33120  1.0000 -0.5818826804
O   O25       1.0  0.89600  0.96410  0.20850  1.0000 -0.5921909312
O   O26       1.0  0.05310  0.69920  0.51400  1.0000 -0.554773877
O   O27       1.0  0.37530  0.95210  0.18770  1.0000 -0.5578591426
O   O28       1.0  0.00430  0.88840  0.38240  1.0000 -0.5999948779
O   O29       1.0  0.76760  0.97470  0.74960  1.0000 -0.5307918513
O   O30       1.0  0.91610  0.93140  0.84260  1.0000 -0.5818826804
O   O31       1.0  0.01050  0.63620  0.47040  1.0000 -0.6202593793
O   O32       1.0  0.33650  0.84151  0.49250  1.0000 -0.5675342182
O   O33       1.0  0.11290  0.88720  0.23490  1.0000 -1.1104240516
O   O34       1.0  0.40390  0.90716  0.49230  1.0000 -0.5307918513
O   O35       1.0  0.26500  0.94720  0.33530  1.0000 -0.8184939126
O   O36       1.0  0.03640  0.91505  0.09290  1.0000 -1.0937774876
O   O37       1.0  0.23990  0.94420  0.97920  1.0000 -0.6070633689
O   O38       1.0  0.13460  0.79480  0.20830  1.0000 -0.6070633689
O   O39       1.0  0.72950  0.94450  0.96810  1.0000 -0.6070633689
O   O40       1.0  0.04420  0.99250  0.07780  1.0000 -1.1006414393
O   O41       1.0  0.46510  0.63380  0.84830  1.0000 -0.6202593793
O   O42       1.0  0.33250  0.64720  0.62680  1.0000 -0.6202593793
O   O43       1.0  0.82360  0.65520  0.61360  1.0000 -0.5921909312
O   O44       1.0  0.12760  0.68990  0.83120  1.0000 -0.5818826804
O   O45       1.0  0.89600  0.53590  0.70850  1.0000 -0.5921909312
O   O46       1.0  0.05310  0.80080  0.01400  1.0000 -0.5578591426
O   O47       1.0  0.37530  0.54790  0.68770  1.0000 -0.5578591426
O   O48       1.0  0.00430  0.61160  0.88240  1.0000 -0.5921909312
O   O49       1.0  0.76760  0.52530  0.24960  1.0000 -0.5307918513
O   O50       1.0  0.91610  0.56860  0.34260  1.0000 -0.5818826804
O   O51       1.0  0.01050  0.86380  0.97040  1.0000 -0.6202593793
O   O52       1.0  0.33650  0.65849  0.99250  1.0000 -0.5675342182
O   O53       1.0  0.11290  0.61280  0.73490  1.0000 -1.1104240516
O   O54       1.0  0.40390  0.59284  0.99230  1.0000 -0.5307918513
O   O55       1.0  0.26500  0.55280  0.83530  1.0000 -0.8184939126
O   O56       1.0  0.03640  0.58495  0.59290  1.0000 -1.0937774876
O   O57       1.0  0.23990  0.55580  0.47920  1.0000 -0.5999948779
O   O58       1.0  0.13460  0.70520  0.70830  1.0000 -0.6070633689
O   O59       1.0  0.72950  0.55550  0.46810  1.0000 -0.6070633689
O   O60       1.0  0.04420  0.50750  0.57780  1.0000 -1.1006414393
O   O61       1.0  0.53490  0.13380  0.65170  1.0000 -0.6202593793
O   O62       1.0  0.66750  0.14720  0.87320  1.0000 -0.6202593793
O   O63       1.0  0.17640  0.15520  0.88640  1.0000 -0.5999948779
O   O64       1.0  0.87240  0.18990  0.66880  1.0000 -0.5818826804
O   O65       1.0  0.10400  0.03590  0.79150  1.0000 -0.5921909312
O   O66       1.0  0.94690  0.30080  0.48600  1.0000 -0.554773877
O   O67       1.0  0.62470  0.04790  0.81230  1.0000 -0.5578591426
O   O68       1.0  0.99570  0.11160  0.61760  1.0000 -0.5921909312
O   O69       1.0  0.23240  0.02530  0.25040  1.0000 -0.5307918513
O   O70       1.0  0.08390  0.06860  0.15740  1.0000 -0.5818826804
O   O71       1.0  0.98950  0.36380  0.52960  1.0000 -0.6202593793
O   O72       1.0  0.66350  0.15849  0.50750  1.0000 -0.5675342182
O   O73       1.0  0.88710  0.11280  0.76510  1.0000 -1.1104240516
O   O74       1.0  0.59610  0.09284  0.50770  1.0000 -0.5307918513
O   O75       1.0  0.73500  0.05280  0.66470  1.0000 -0.8184939126
O   O76       1.0  0.96360  0.08495  0.90710  1.0000 -1.0937774876
O   O77       1.0  0.76010  0.05580  0.02080  1.0000 -0.6070633689
O   O78       1.0  0.86540  0.20520  0.79170  1.0000 -0.6070633689
O   O79       1.0  0.27050  0.05550  0.03190  1.0000 -0.6070633689
O   O80       1.0  0.95580  0.00750  0.92220  1.0000 -1.1006414393
