# DDEC6 charges by PACMAN v1.1 (https://github.com/mtap-research/PACMAN-charge/)
data_2021[Nd][rtl]3[FSR]1
_chemical_formula_sum              "Nd4 H80 C80 N12 O32"
_cell_length_a       10.7643
_cell_length_b       16.793
_cell_length_c       17.1589
_cell_angle_alpha    90
_cell_angle_beta     118.009
_cell_angle_gamma    90

_symmetry_space_group_name_H-M    "P 1"
_symmetry_Int_Tables_number       1

loop_
  _symmetry_equiv_pos_as_xyz
  'x, y, z'

loop_
  _atom_site_type_symbol
  _atom_site_label
  _atom_site_symmetry_multiplicity
  _atom_site_fract_x
  _atom_site_fract_y
  _atom_site_fract_z
  _atom_site_occupancy
  _atom_site_charge
Nd  Nd1       1.0  0.42670  0.09548  0.54037  1.0000 2.0729409171
Nd  Nd2       1.0  0.57330  0.59548  0.95963  1.0000 2.0729409171
Nd  Nd3       1.0  0.57330  0.90452  0.45963  1.0000 2.0729409171
Nd  Nd4       1.0  0.42670  0.40452  0.04037  1.0000 2.0729409171
H   H1        1.0  0.39379  0.48139  0.68711  1.0000 0.1105468845
H   H2        1.0  0.16758  0.32992  0.74776  1.0000 0.119335228
H   H3        1.0  0.15597  0.32738  0.51173  1.0000 0.1105468845
H   H4        1.0  0.96891  0.07868  0.49535  1.0000 0.1383422949
H   H5        1.0  0.73735  0.20203  0.58043  1.0000 0.119335228
H   H6        1.0  0.90192  0.30146  0.62688  1.0000 0.1105468845
H   H7        1.0  0.54420  0.27382  0.65547  1.0000 0.1004403842
H   H8        1.0  0.78041  0.23425  0.90597  1.0000 0.119335228
H   H9        1.0  0.81789  0.18390  0.84293  1.0000 0.1383422949
H   H10       1.0  0.68282  0.16365  0.85170  1.0000 0.1383422949
H   H11       1.0  0.71082  0.34849  0.86686  1.0000 0.1308971954
H   H12       1.0  0.56315  0.36040  0.78434  1.0000 0.1308971954
H   H13       1.0  0.70065  0.37680  0.77699  1.0000 0.1383422949
H   H14       1.0  0.32582  0.23693  0.37794  1.0000 0.1105468845
H   H15       1.0  0.37801  0.42343  0.31417  1.0000 0.1383422949
H   H16       1.0  0.24590  0.37314  0.29914  1.0000 0.1383422949
H   H17       1.0  0.35673  0.33771  0.27368  1.0000 0.1459011523
H   H18       1.0  0.53108  0.43518  0.44919  1.0000 0.1308971954
H   H19       1.0  0.61303  0.35847  0.49884  1.0000 0.1308971954
H   H20       1.0  0.49386  0.39302  0.51709  1.0000 0.1308971954
H   H21       1.0  0.60621  0.98139  0.81289  1.0000 0.1105468845
H   H22       1.0  0.83242  0.82992  0.75224  1.0000 0.119335228
H   H23       1.0  0.84403  0.82738  0.98827  1.0000 0.1105468845
H   H24       1.0  0.03109  0.57868  0.00465  1.0000 0.1383422949
H   H25       1.0  0.26265  0.70203  0.91957  1.0000 0.119335228
H   H26       1.0  0.09808  0.80146  0.87312  1.0000 0.1105468845
H   H27       1.0  0.45580  0.77382  0.84453  1.0000 0.1004403842
H   H28       1.0  0.21959  0.73425  0.59403  1.0000 0.119335228
H   H29       1.0  0.18211  0.68390  0.65707  1.0000 0.1383422949
H   H30       1.0  0.31718  0.66365  0.64830  1.0000 0.1383422949
H   H31       1.0  0.28918  0.84849  0.63314  1.0000 0.1308971954
H   H32       1.0  0.43685  0.86040  0.71566  1.0000 0.1308971954
H   H33       1.0  0.29935  0.87680  0.72301  1.0000 0.1383422949
H   H34       1.0  0.67418  0.73693  0.12206  1.0000 0.1105468845
H   H35       1.0  0.62199  0.92343  0.18583  1.0000 0.1383422949
H   H36       1.0  0.75410  0.87314  0.20086  1.0000 0.1383422949
H   H37       1.0  0.64327  0.83771  0.22632  1.0000 0.1459011523
H   H38       1.0  0.46892  0.93518  0.05081  1.0000 0.1308971954
H   H39       1.0  0.38697  0.85847  0.00116  1.0000 0.1308971954
H   H40       1.0  0.50614  0.89302  0.98291  1.0000 0.1308971954
H   H41       1.0  0.60621  0.51861  0.31289  1.0000 0.1105468845
H   H42       1.0  0.83242  0.67008  0.25224  1.0000 0.119335228
H   H43       1.0  0.84403  0.67262  0.48827  1.0000 0.1105468845
H   H44       1.0  0.03109  0.92132  0.50465  1.0000 0.1383422949
H   H45       1.0  0.26265  0.79797  0.41957  1.0000 0.119335228
H   H46       1.0  0.09808  0.69854  0.37312  1.0000 0.1105468845
H   H47       1.0  0.45580  0.72618  0.34453  1.0000 0.1004403842
H   H48       1.0  0.21959  0.76575  0.09403  1.0000 0.119335228
H   H49       1.0  0.18211  0.81610  0.15707  1.0000 0.1383422949
H   H50       1.0  0.31718  0.83635  0.14830  1.0000 0.1383422949
H   H51       1.0  0.28918  0.65151  0.13314  1.0000 0.1308971954
H   H52       1.0  0.43685  0.63960  0.21566  1.0000 0.1308971954
H   H53       1.0  0.29935  0.62320  0.22301  1.0000 0.1383422949
H   H54       1.0  0.67418  0.76307  0.62206  1.0000 0.1105468845
H   H55       1.0  0.62199  0.57657  0.68583  1.0000 0.1383422949
H   H56       1.0  0.75410  0.62686  0.70086  1.0000 0.1383422949
H   H57       1.0  0.64327  0.66229  0.72632  1.0000 0.1459011523
H   H58       1.0  0.46892  0.56482  0.55081  1.0000 0.1308971954
H   H59       1.0  0.38697  0.64153  0.50116  1.0000 0.1308971954
H   H60       1.0  0.50614  0.60698  0.48291  1.0000 0.1308971954
H   H61       1.0  0.39379  0.01861  0.18711  1.0000 0.1105468845
H   H62       1.0  0.16758  0.17008  0.24776  1.0000 0.119335228
H   H63       1.0  0.15597  0.17262  0.01173  1.0000 0.1105468845
H   H64       1.0  0.96891  0.42132  0.99535  1.0000 0.1383422949
H   H65       1.0  0.73735  0.29797  0.08043  1.0000 0.119335228
H   H66       1.0  0.90192  0.19854  0.12688  1.0000 0.1105468845
H   H67       1.0  0.54420  0.22618  0.15547  1.0000 0.1004403842
H   H68       1.0  0.78041  0.26575  0.40597  1.0000 0.119335228
H   H69       1.0  0.81789  0.31610  0.34293  1.0000 0.1383422949
H   H70       1.0  0.68282  0.33635  0.35170  1.0000 0.1383422949
H   H71       1.0  0.71082  0.15151  0.36686  1.0000 0.1308971954
H   H72       1.0  0.56315  0.13960  0.28434  1.0000 0.1308971954
H   H73       1.0  0.70065  0.12320  0.27699  1.0000 0.1383422949
H   H74       1.0  0.32582  0.26307  0.87794  1.0000 0.1105468845
H   H75       1.0  0.37801  0.07657  0.81417  1.0000 0.1383422949
H   H76       1.0  0.24590  0.12686  0.79914  1.0000 0.1383422949
H   H77       1.0  0.35673  0.16229  0.77368  1.0000 0.1459011523
H   H78       1.0  0.53108  0.06482  0.94919  1.0000 0.1308971954
H   H79       1.0  0.61303  0.14153  0.99884  1.0000 0.1308971954
H   H80       1.0  0.49386  0.10698  0.01709  1.0000 0.1308971954
C   C1        1.0  0.32990  0.43950  0.67070  1.0000 0.023013662
C   C2        1.0  0.29300  0.41120  0.73320  1.0000 -0.0737861382
C   C3        1.0  0.19600  0.34980  0.70810  1.0000 -0.1209929517
C   C4        1.0  0.14040  0.31750  0.62280  1.0000 0.0269968583
C   C5        1.0  0.18920  0.34980  0.56750  1.0000 0.0269968583
C   C6        1.0  0.03800  0.25170  0.59210  1.0000 0.0438831704
C   C7        1.0  0.05750  0.18300  0.55370  1.0000 -0.0555756899
C   C8        1.0  0.95680  0.12300  0.52360  1.0000 -0.1121454375
C   C9        1.0  0.83770  0.12910  0.53550  1.0000 -0.0268196413
C   C10       1.0  0.81760  0.19670  0.57350  1.0000 -0.1025133046
C   C11       1.0  0.91680  0.25620  0.60110  1.0000 -0.1529016482
C   C12       1.0  0.36120  0.44420  0.82510  1.0000 0.6245118094
C   C13       1.0  0.18870  0.16800  0.54680  1.0000 0.5593411637
C   C14       1.0  0.73520  0.06150  0.50740  1.0000 0.6100053353
C   C15       1.0  0.59840  0.23650  0.69790  1.0000 0.3091153217
C   C16       1.0  0.74200  0.20590  0.85100  1.0000 -0.3212084757
C   C17       1.0  0.65850  0.34370  0.80380  1.0000 -0.3397394256
C   C18       1.0  0.39720  0.26550  0.42330  1.0000 0.2615353031
C   C19       1.0  0.34410  0.37070  0.31510  1.0000 -0.3397394256
C   C20       1.0  0.52290  0.38470  0.47290  1.0000 -0.3086448299
C   C21       1.0  0.67010  0.93950  0.82930  1.0000 0.023013662
C   C22       1.0  0.70700  0.91120  0.76680  1.0000 -0.0737861382
C   C23       1.0  0.80400  0.84980  0.79190  1.0000 -0.1209929517
C   C24       1.0  0.85960  0.81750  0.87720  1.0000 0.0269968583
C   C25       1.0  0.81080  0.84980  0.93250  1.0000 0.0269968583
C   C26       1.0  0.96200  0.75170  0.90790  1.0000 0.0438831704
C   C27       1.0  0.94250  0.68300  0.94630  1.0000 -0.0555756899
C   C28       1.0  0.04320  0.62300  0.97640  1.0000 -0.1121454375
C   C29       1.0  0.16230  0.62910  0.96450  1.0000 -0.0268196413
C   C30       1.0  0.18240  0.69670  0.92650  1.0000 -0.1025133046
C   C31       1.0  0.08320  0.75620  0.89890  1.0000 -0.1529016482
C   C32       1.0  0.63880  0.94420  0.67490  1.0000 0.6245118094
C   C33       1.0  0.81130  0.66800  0.95320  1.0000 0.5593411637
C   C34       1.0  0.26480  0.56150  0.99260  1.0000 0.6100053353
C   C35       1.0  0.40160  0.73650  0.80210  1.0000 0.3091153217
C   C36       1.0  0.25800  0.70590  0.64900  1.0000 -0.3212084757
C   C37       1.0  0.34150  0.84370  0.69620  1.0000 -0.3397394256
C   C38       1.0  0.60280  0.76550  0.07670  1.0000 0.2615353031
C   C39       1.0  0.65590  0.87070  0.18490  1.0000 -0.3397394256
C   C40       1.0  0.47710  0.88470  0.02710  1.0000 -0.3086448299
C   C41       1.0  0.67010  0.56050  0.32930  1.0000 0.023013662
C   C42       1.0  0.70700  0.58880  0.26680  1.0000 -0.0737861382
C   C43       1.0  0.80400  0.65020  0.29190  1.0000 -0.1209929517
C   C44       1.0  0.85960  0.68250  0.37720  1.0000 0.0269968583
C   C45       1.0  0.81080  0.65020  0.43250  1.0000 0.0269968583
C   C46       1.0  0.96200  0.74830  0.40790  1.0000 0.0438831704
C   C47       1.0  0.94250  0.81700  0.44630  1.0000 -0.0555756899
C   C48       1.0  0.04320  0.87700  0.47640  1.0000 -0.1121454375
C   C49       1.0  0.16230  0.87090  0.46450  1.0000 -0.0268196413
C   C50       1.0  0.18240  0.80330  0.42650  1.0000 -0.1025133046
C   C51       1.0  0.08320  0.74380  0.39890  1.0000 -0.1529016482
C   C52       1.0  0.63880  0.55580  0.17490  1.0000 0.6245118094
C   C53       1.0  0.81130  0.83200  0.45320  1.0000 0.5593411637
C   C54       1.0  0.26480  0.93850  0.49260  1.0000 0.6100053353
C   C55       1.0  0.40160  0.76350  0.30210  1.0000 0.3091153217
C   C56       1.0  0.25800  0.79410  0.14900  1.0000 -0.3212084757
C   C57       1.0  0.34150  0.65630  0.19620  1.0000 -0.3397394256
C   C58       1.0  0.60280  0.73450  0.57670  1.0000 0.2615353031
C   C59       1.0  0.65590  0.62930  0.68490  1.0000 -0.3397394256
C   C60       1.0  0.47710  0.61530  0.52710  1.0000 -0.3086448299
C   C61       1.0  0.32990  0.06050  0.17070  1.0000 0.023013662
C   C62       1.0  0.29300  0.08880  0.23320  1.0000 -0.0737861382
C   C63       1.0  0.19600  0.15020  0.20810  1.0000 -0.1209929517
C   C64       1.0  0.14040  0.18250  0.12280  1.0000 0.0269968583
C   C65       1.0  0.18920  0.15020  0.06750  1.0000 0.0269968583
C   C66       1.0  0.03800  0.24830  0.09210  1.0000 0.0438831704
C   C67       1.0  0.05750  0.31700  0.05370  1.0000 -0.0555756899
C   C68       1.0  0.95680  0.37700  0.02360  1.0000 -0.1121454375
C   C69       1.0  0.83770  0.37090  0.03550  1.0000 -0.0268196413
C   C70       1.0  0.81760  0.30330  0.07350  1.0000 -0.1025133046
C   C71       1.0  0.91680  0.24380  0.10110  1.0000 -0.1529016482
C   C72       1.0  0.36120  0.05580  0.32510  1.0000 0.6245118094
C   C73       1.0  0.18870  0.33200  0.04680  1.0000 0.5593411637
C   C74       1.0  0.73520  0.43850  0.00740  1.0000 0.6100053353
C   C75       1.0  0.59840  0.26350  0.19790  1.0000 0.3091153217
C   C76       1.0  0.74200  0.29410  0.35100  1.0000 -0.3212084757
C   C77       1.0  0.65850  0.15630  0.30380  1.0000 -0.3397394256
C   C78       1.0  0.39720  0.23450  0.92330  1.0000 0.2615353031
C   C79       1.0  0.34410  0.12930  0.81510  1.0000 -0.3397394256
C   C80       1.0  0.52290  0.11530  0.97290  1.0000 -0.3086448299
N   N1        1.0  0.27970  0.41040  0.58780  1.0000 -0.2726729797
N   N2        1.0  0.66000  0.26070  0.77830  1.0000 0.0269968583
N   N3        1.0  0.42320  0.33690  0.40440  1.0000 0.0269968583
N   N4        1.0  0.72030  0.91040  0.91220  1.0000 -0.2726729797
N   N5        1.0  0.34000  0.76070  0.72170  1.0000 0.0269968583
N   N6        1.0  0.57680  0.83690  0.09560  1.0000 0.0269968583
N   N7        1.0  0.72030  0.58960  0.41220  1.0000 -0.2726729797
N   N8        1.0  0.34000  0.73930  0.22170  1.0000 0.0269968583
N   N9        1.0  0.57680  0.66310  0.59560  1.0000 0.0269968583
N   N10       1.0  0.27970  0.08960  0.08780  1.0000 -0.2726729797
N   N11       1.0  0.66000  0.23930  0.27830  1.0000 0.0269968583
N   N12       1.0  0.42320  0.16310  0.90440  1.0000 0.0269968583
O   O1        1.0  0.33110  0.41110  0.87980  1.0000 -0.6485518502
O   O2        1.0  0.44510  0.50180  0.84060  1.0000 -0.6485518502
O   O3        1.0  0.30370  0.16070  0.61580  1.0000 -0.6212356525
O   O4        1.0  0.18130  0.15900  0.47150  1.0000 -0.6212356525
O   O5        1.0  0.62880  0.06470  0.52050  1.0000 -0.7248638557
O   O6        1.0  0.75640  0.00250  0.47070  1.0000 -0.5971083926
O   O7        1.0  0.60340  0.16900  0.67100  1.0000 -0.5275607096
O   O8        1.0  0.45820  0.23290  0.49500  1.0000 -0.5275607096
O   O9        1.0  0.66890  0.91110  0.62020  1.0000 -0.6485518502
O   O10       1.0  0.55490  0.00180  0.65940  1.0000 -0.6485518502
O   O11       1.0  0.69630  0.66070  0.88420  1.0000 -0.6212356525
O   O12       1.0  0.81870  0.65900  0.02850  1.0000 -0.6212356525
O   O13       1.0  0.37120  0.56470  0.97950  1.0000 -0.7248638557
O   O14       1.0  0.24360  0.50250  0.02930  1.0000 -0.5971083926
O   O15       1.0  0.39660  0.66900  0.82900  1.0000 -0.5275607096
O   O16       1.0  0.54180  0.73290  0.00500  1.0000 -0.5275607096
O   O17       1.0  0.66890  0.58890  0.12020  1.0000 -0.6485518502
O   O18       1.0  0.55490  0.49820  0.15940  1.0000 -0.6485518502
O   O19       1.0  0.69630  0.83930  0.38420  1.0000 -0.6212356525
O   O20       1.0  0.81870  0.84100  0.52850  1.0000 -0.6212356525
O   O21       1.0  0.37120  0.93530  0.47950  1.0000 -0.7248638557
O   O22       1.0  0.24360  0.99750  0.52930  1.0000 -0.5971083926
O   O23       1.0  0.39660  0.83100  0.32900  1.0000 -0.5275607096
O   O24       1.0  0.54180  0.76710  0.50500  1.0000 -0.5275607096
O   O25       1.0  0.33110  0.08890  0.37980  1.0000 -0.6485518502
O   O26       1.0  0.44510  0.99820  0.34060  1.0000 -0.6485518502
O   O27       1.0  0.30370  0.33930  0.11580  1.0000 -0.6212356525
O   O28       1.0  0.18130  0.34100  0.97150  1.0000 -0.6212356525
O   O29       1.0  0.62880  0.43530  0.02050  1.0000 -0.7248638557
O   O30       1.0  0.75640  0.49750  0.97070  1.0000 -0.5971083926
O   O31       1.0  0.60340  0.33100  0.17100  1.0000 -0.5275607096
O   O32       1.0  0.45820  0.26710  0.99500  1.0000 -0.5275607096
