# DDEC6 charges by PACMAN v1.1 (https://github.com/mtap-research/PACMAN-charge/)
data_2021[U][nan]2[FSR]2
_chemical_formula_sum              "U6 H84 C72 S2 N28 O50"
_cell_length_a       13.5715
_cell_length_b       15.6906
_cell_length_c       19.3847
_cell_angle_alpha    108.29
_cell_angle_beta     91.967
_cell_angle_gamma    94.949

_symmetry_space_group_name_H-M    "P 1"
_symmetry_Int_Tables_number       1

loop_
  _symmetry_equiv_pos_as_xyz
  'x, y, z'

loop_
  _atom_site_type_symbol
  _atom_site_label
  _atom_site_symmetry_multiplicity
  _atom_site_fract_x
  _atom_site_fract_y
  _atom_site_fract_z
  _atom_site_occupancy
  _atom_site_charge
U   U1        1.0  0.63953  0.42294  0.23939  1.0000 2.5469178262
U   U2        1.0  0.72355  0.39624  0.41639  1.0000 2.5646574797
U   U3        1.0  0.89834  0.55020  0.35000  1.0000 2.5736906829
U   U4        1.0  0.36047  0.57706  0.76061  1.0000 2.5469178262
U   U5        1.0  0.27645  0.60376  0.58361  1.0000 2.5646574797
U   U6        1.0  0.10166  0.44980  0.65000  1.0000 2.5736906829
H   H1        1.0  0.72920  0.89210  0.72970  1.0000 0.0817919953
H   H2        1.0  0.30930  0.31690  0.45500  1.0000 0.1081652162
H   H3        1.0  0.62790  0.36390  0.59160  1.0000 0.1290682173
H   H4        1.0  0.54190  0.40720  0.64140  1.0000 0.1290682173
H   H5        1.0  0.70970  0.03850  0.79330  1.0000 0.06660755
H   H6        1.0  0.36310  0.37150  0.57580  1.0000 0.1204844189
H   H7        1.0  0.59670  0.27200  0.80330  1.0000 0.0817919953
H   H8        1.0  0.26360  0.77780  0.52210  1.0000 0.1290682173
H   H9        1.0  0.50150  0.76590  0.66150  1.0000 0.138695815
H   H10       1.0  0.61620  0.75090  0.66650  1.0000 0.1081652162
H   H11       1.0  0.51160  0.35290  0.74520  1.0000 0.1018041385
H   H12       1.0  0.25500  0.18530  0.16190  1.0000 0.1204844189
H   H13       1.0  0.75380  0.19130  0.77940  1.0000 0.0894970337
H   H14       1.0  0.79990  0.18930  0.70420  1.0000 0.1081652162
H   H15       1.0  0.45510  0.07090  0.79820  1.0000 0.1081652162
H   H16       1.0  0.55940  0.12550  0.83270  1.0000 0.0817919953
H   H17       1.0  0.27320  0.23360  0.67230  1.0000 0.1204844189
H   H18       1.0  0.33220  0.33060  0.68500  1.0000 0.1204844189
H   H19       1.0  0.54790  0.19810  0.13410  1.0000 0.138695815
H   H20       1.0  0.14800  0.11890  0.42690  1.0000 0.1018041385
H   H21       1.0  0.18740  0.18260  0.38140  1.0000 0.1018041385
H   H22       1.0  0.20790  0.95310  0.07390  1.0000 0.1204844189
H   H23       1.0  0.16870  0.03220  0.13800  1.0000 0.1204844189
H   H24       1.0  0.96950  0.76680  0.48330  1.0000 0.138695815
H   H25       1.0  0.34510  0.92330  0.60530  1.0000 0.138695815
H   H26       1.0  0.29970  0.01260  0.60130  1.0000 0.1290682173
H   H27       1.0  0.16760  0.02650  0.99000  1.0000 0.1018041385
H   H28       1.0  0.12960  0.10670  0.05410  1.0000 0.1018041385
H   H29       1.0  0.97990  0.92230  0.53030  1.0000 0.138695815
H   H30       1.0  0.33170  0.97520  0.47760  1.0000 0.1081652162
H   H31       1.0  0.37630  0.88540  0.48120  1.0000 0.1018041385
H   H32       1.0  0.50550  0.97430  0.56440  1.0000 0.1018041385
H   H33       1.0  0.46120  0.06390  0.56010  1.0000 0.1018041385
H   H34       1.0  0.00490  0.00260  0.07460  1.0000 0.0894970337
H   H35       1.0  0.04220  0.92350  0.00950  1.0000 0.0894970337
H   H36       1.0  0.13340  0.00480  0.56780  1.0000 0.138695815
H   H37       1.0  0.37210  0.96410  0.05060  1.0000 0.1204844189
H   H38       1.0  0.52950  0.04260  0.07260  1.0000 0.1290682173
H   H39       1.0  0.63410  0.47700  0.10430  1.0000 0.4276045265
H   H40       1.0  0.53400  0.43730  0.10630  1.0000 0.4359551968
H   H41       1.0  0.04330  0.64450  0.25770  1.0000 0.4212131204
H   H42       1.0  0.08740  0.68460  0.34240  1.0000 0.3985762896
H   H43       1.0  0.27080  0.10790  0.27030  1.0000 0.0817919953
H   H44       1.0  0.69070  0.68310  0.54500  1.0000 0.1081652162
H   H45       1.0  0.37210  0.63610  0.40840  1.0000 0.1290682173
H   H46       1.0  0.45810  0.59280  0.35860  1.0000 0.1290682173
H   H47       1.0  0.29030  0.96150  0.20670  1.0000 0.06660755
H   H48       1.0  0.63690  0.62850  0.42420  1.0000 0.1204844189
H   H49       1.0  0.40330  0.72800  0.19670  1.0000 0.0817919953
H   H50       1.0  0.73640  0.22220  0.47790  1.0000 0.1290682173
H   H51       1.0  0.49850  0.23410  0.33850  1.0000 0.138695815
H   H52       1.0  0.38380  0.24910  0.33350  1.0000 0.1081652162
H   H53       1.0  0.48840  0.64710  0.25480  1.0000 0.1018041385
H   H54       1.0  0.74500  0.81470  0.83810  1.0000 0.1204844189
H   H55       1.0  0.24620  0.80870  0.22060  1.0000 0.0894970337
H   H56       1.0  0.20010  0.81070  0.29580  1.0000 0.1081652162
H   H57       1.0  0.54490  0.92910  0.20180  1.0000 0.1081652162
H   H58       1.0  0.44060  0.87450  0.16730  1.0000 0.0817919953
H   H59       1.0  0.72680  0.76640  0.32770  1.0000 0.1204844189
H   H60       1.0  0.66780  0.66940  0.31500  1.0000 0.1204844189
H   H61       1.0  0.45210  0.80190  0.86590  1.0000 0.138695815
H   H62       1.0  0.85200  0.88110  0.57310  1.0000 0.1018041385
H   H63       1.0  0.81260  0.81740  0.61860  1.0000 0.1018041385
H   H64       1.0  0.79210  0.04690  0.92610  1.0000 0.1204844189
H   H65       1.0  0.83130  0.96780  0.86200  1.0000 0.1204844189
H   H66       1.0  0.03050  0.23320  0.51670  1.0000 0.138695815
H   H67       1.0  0.65490  0.07670  0.39470  1.0000 0.138695815
H   H68       1.0  0.70030  0.98740  0.39870  1.0000 0.1290682173
H   H69       1.0  0.83240  0.97350  0.01000  1.0000 0.1081652162
H   H70       1.0  0.87040  0.89330  0.94590  1.0000 0.1018041385
H   H71       1.0  0.02010  0.07770  0.46970  1.0000 0.138695815
H   H72       1.0  0.66830  0.02480  0.52240  1.0000 0.1081652162
H   H73       1.0  0.62370  0.11460  0.51880  1.0000 0.1018041385
H   H74       1.0  0.49450  0.02570  0.43560  1.0000 0.1018041385
H   H75       1.0  0.53880  0.93610  0.43990  1.0000 0.1018041385
H   H76       1.0  0.99510  0.99740  0.92540  1.0000 0.0894970337
H   H77       1.0  0.95780  0.07650  0.99050  1.0000 0.0894970337
H   H78       1.0  0.86660  0.99520  0.43220  1.0000 0.138695815
H   H79       1.0  0.62790  0.03590  0.94940  1.0000 0.1204844189
H   H80       1.0  0.47050  0.95740  0.92740  1.0000 0.1290682173
H   H81       1.0  0.36590  0.52300  0.89570  1.0000 0.4276045265
H   H82       1.0  0.46600  0.56270  0.89370  1.0000 0.4359551968
H   H83       1.0  0.95670  0.35550  0.74230  1.0000 0.4212131204
H   H84       1.0  0.91260  0.31540  0.65760  1.0000 0.3985762896
C   C1        1.0  0.69130  0.92120  0.69960  1.0000 0.1018041385
C   C2        1.0  0.51630  0.28350  0.47640  1.0000 0.5589582028
C   C3        1.0  0.34280  0.27130  0.47090  1.0000 0.1204844189
C   C4        1.0  0.66040  0.25050  0.65290  1.0000 0.5142471495
C   C5        1.0  0.56270  0.35000  0.60910  1.0000 0.0315222128
C   C6        1.0  0.67740  0.02070  0.74300  1.0000 0.0817919953
C   C7        1.0  0.38400  0.31000  0.55190  1.0000 0.1290682173
C   C8        1.0  0.57460  0.23510  0.75210  1.0000 0.1018041385
C   C9        1.0  0.20500  0.80700  0.52300  1.0000 0.0498446955
C   C10       1.0  0.26740  0.18560  0.53730  1.0000 0.5355774464
C   C11       1.0  0.56780  0.78290  0.64720  1.0000 0.0315222128
C   C12       1.0  0.51650  0.28990  0.71280  1.0000 0.1290682173
C   C13       1.0  0.31180  0.15690  0.14280  1.0000 -0.0496224218
C   C14       1.0  0.11590  0.75610  0.49750  1.0000 -0.0602023422
C   C15       1.0  0.74050  0.17000  0.72590  1.0000 0.0213387626
C   C16       1.0  0.52280  0.93560  0.70990  1.0000 0.5208281877
C   C17       1.0  0.40210  0.20610  0.15540  1.0000 -0.0602023422
C   C18       1.0  0.52000  0.09450  0.78630  1.0000 0.0213387626
C   C19       1.0  0.41310  0.16520  0.71970  1.0000 0.5208281877
C   C20       1.0  0.33490  0.26490  0.66230  1.0000 0.0436625334
C   C21       1.0  0.48470  0.16440  0.12750  1.0000 -0.0406265573
C   C22       1.0  0.11950  0.65510  0.46510  1.0000 0.6363519432
C   C23       1.0  0.77430  0.01950  0.64580  1.0000 0.5270337166
C   C24       1.0  0.20810  0.14300  0.40890  1.0000 0.0213387626
C   C25       1.0  0.20100  0.01860  0.09130  1.0000 -0.1614107189
C   C26       1.0  0.03210  0.80050  0.50040  1.0000 -0.0406265573
C   C27       1.0  0.30880  0.94950  0.57300  1.0000 -0.1191191261
C   C28       1.0  0.13640  0.04120  0.03720  1.0000 -0.2078351674
C   C29       1.0  0.03810  0.89220  0.52750  1.0000 -0.1191191261
C   C30       1.0  0.36830  0.94870  0.50960  1.0000 -0.1671897171
C   C31       1.0  0.46930  0.00050  0.53200  1.0000 -0.1413614562
C   C32       1.0  0.03480  0.98890  0.02690  1.0000 -0.1812495065
C   C33       1.0  0.12840  0.94080  0.55070  1.0000 0.0498446955
C   C34       1.0  0.38060  0.02660  0.07770  1.0000 -0.0779772212
C   C35       1.0  0.40610  0.30490  0.19790  1.0000 0.6005578937
C   C36       1.0  0.47340  0.07320  0.08990  1.0000 -0.1413614562
C   C37       1.0  0.30870  0.07880  0.30040  1.0000 0.1018041385
C   C38       1.0  0.48370  0.71650  0.52360  1.0000 0.5589582028
C   C39       1.0  0.65720  0.72870  0.52910  1.0000 0.1204844189
C   C40       1.0  0.33960  0.74950  0.34710  1.0000 0.5142471495
C   C41       1.0  0.43730  0.65000  0.39090  1.0000 0.0315222128
C   C42       1.0  0.32260  0.97930  0.25700  1.0000 0.0817919953
C   C43       1.0  0.61600  0.69000  0.44810  1.0000 0.1290682173
C   C44       1.0  0.42540  0.76490  0.24790  1.0000 0.1018041385
C   C45       1.0  0.79500  0.19300  0.47700  1.0000 0.0498446955
C   C46       1.0  0.73260  0.81440  0.46270  1.0000 0.5355774464
C   C47       1.0  0.43220  0.21710  0.35280  1.0000 0.0315222128
C   C48       1.0  0.48350  0.71010  0.28720  1.0000 0.1290682173
C   C49       1.0  0.68820  0.84310  0.85720  1.0000 -0.0496224218
C   C50       1.0  0.88410  0.24390  0.50250  1.0000 -0.0602023422
C   C51       1.0  0.25950  0.83000  0.27410  1.0000 0.0213387626
C   C52       1.0  0.47720  0.06440  0.29010  1.0000 0.5208281877
C   C53       1.0  0.59790  0.79390  0.84460  1.0000 -0.0602023422
C   C54       1.0  0.48000  0.90550  0.21370  1.0000 0.0213387626
C   C55       1.0  0.58690  0.83480  0.28030  1.0000 0.5208281877
C   C56       1.0  0.66510  0.73510  0.33770  1.0000 0.0436625334
C   C57       1.0  0.51530  0.83560  0.87250  1.0000 -0.0406265573
C   C58       1.0  0.88050  0.34490  0.53490  1.0000 0.6363519432
C   C59       1.0  0.22570  0.98050  0.35420  1.0000 0.5270337166
C   C60       1.0  0.79190  0.85700  0.59110  1.0000 0.0213387626
C   C61       1.0  0.79900  0.98140  0.90870  1.0000 -0.1614107189
C   C62       1.0  0.96790  0.19950  0.49960  1.0000 -0.0406265573
C   C63       1.0  0.69120  0.05050  0.42700  1.0000 -0.1191191261
C   C64       1.0  0.86360  0.95880  0.96280  1.0000 -0.2078351674
C   C65       1.0  0.96190  0.10780  0.47250  1.0000 -0.1191191261
C   C66       1.0  0.63170  0.05130  0.49040  1.0000 -0.1671897171
C   C67       1.0  0.53070  0.99950  0.46800  1.0000 -0.1413614562
C   C68       1.0  0.96520  0.01110  0.97310  1.0000 -0.1812495065
C   C69       1.0  0.87160  0.05920  0.44930  1.0000 0.0498446955
C   C70       1.0  0.61940  0.97340  0.92230  1.0000 -0.0779772212
C   C71       1.0  0.59390  0.69510  0.80210  1.0000 0.6005578937
C   C72       1.0  0.52660  0.92680  0.91010  1.0000 -0.1413614562
S   S1        1.0  0.81830  0.55620  0.17660  1.0000 1.3831242027
S   S2        1.0  0.18170  0.44380  0.82340  1.0000 1.3831242027
N   N1        1.0  0.49040  0.31340  0.54660  1.0000 -0.2178318558
N   N2        1.0  0.27420  0.19590  0.47060  1.0000 -0.2178318558
N   N3        1.0  0.43270  0.24740  0.43190  1.0000 -0.2262614993
N   N4        1.0  0.74660  0.93130  0.63950  1.0000 -0.2386797069
N   N5        1.0  0.57310  0.28860  0.65070  1.0000 -0.2606747744
N   N6        1.0  0.57040  0.01920  0.74480  1.0000 -0.2497722765
N   N7        1.0  0.59240  0.87870  0.68030  1.0000 -0.2497722765
N   N8        1.0  0.33970  0.24470  0.58410  1.0000 -0.2753868101
N   N9        1.0  0.72490  0.07220  0.70070  1.0000 -0.2262614993
N   N10       1.0  0.21040  0.89740  0.54920  1.0000 0.138695815
N   N11       1.0  0.41980  0.23730  0.69520  1.0000 -0.2655664531
N   N12       1.0  0.50390  0.15970  0.74950  1.0000 -0.2178318558
N   N13       1.0  0.65760  0.21230  0.70780  1.0000 -0.2386797069
N   N14       1.0  0.30200  0.06970  0.10410  1.0000 0.1018041385
N   N15       1.0  0.50960  0.68660  0.45340  1.0000 -0.2178318558
N   N16       1.0  0.72580  0.80410  0.52940  1.0000 -0.2178318558
N   N17       1.0  0.56730  0.75260  0.56810  1.0000 -0.2262614993
N   N18       1.0  0.25340  0.06870  0.36050  1.0000 -0.2386797069
N   N19       1.0  0.42690  0.71140  0.34930  1.0000 -0.2606747744
N   N20       1.0  0.42960  0.98080  0.25520  1.0000 -0.2497722765
N   N21       1.0  0.40760  0.12130  0.31970  1.0000 -0.2497722765
N   N22       1.0  0.66030  0.75530  0.41590  1.0000 -0.2753868101
N   N23       1.0  0.27510  0.92780  0.29930  1.0000 -0.2262614993
N   N24       1.0  0.78960  0.10260  0.45080  1.0000 0.138695815
N   N25       1.0  0.58020  0.76270  0.30480  1.0000 -0.2655664531
N   N26       1.0  0.49610  0.84030  0.25050  1.0000 -0.2262614993
N   N27       1.0  0.34240  0.78770  0.29220  1.0000 -0.2386797069
N   N28       1.0  0.69800  0.93030  0.89590  1.0000 0.1018041385
O   O1        1.0  0.19680  0.62200  0.47600  1.0000 -0.5702608523
O   O2        1.0  0.88300  0.48100  0.43930  1.0000 -0.8597644267
O   O3        1.0  0.72850  0.25300  0.61490  1.0000 -0.5015803772
O   O4        1.0  0.60130  0.28820  0.45650  1.0000 -0.5788018403
O   O5        1.0  0.20770  0.13370  0.55340  1.0000 -0.5109061895
O   O6        1.0  0.75720  0.45960  0.32970  1.0000 -1.0801072416
O   O7        1.0  0.58610  0.37090  0.33360  1.0000 -0.911558151
O   O8        1.0  0.77520  0.29740  0.36560  1.0000 -0.6158044038
O   O9        1.0  0.33820  0.11400  0.71620  1.0000 -0.5015803772
O   O10       1.0  0.66860  0.49080  0.47300  1.0000 -0.6569468675
O   O11       1.0  0.83760  0.64290  0.40230  1.0000 -0.6900673507
O   O12       1.0  0.83250  0.04620  0.60800  1.0000 -0.5217753348
O   O13       1.0  0.43390  0.91430  0.70740  1.0000 -0.4807309059
O   O14       1.0  0.04540  0.61010  0.42770  1.0000 -0.5404933987
O   O15       1.0  0.58830  0.52570  0.27820  1.0000 -0.6900673507
O   O16       1.0  0.68610  0.31920  0.19780  1.0000 -0.6015823183
O   O17       1.0  0.96530  0.46330  0.29720  1.0000 -0.6368719039
O   O18       1.0  0.48140  0.35460  0.19060  1.0000 -0.6294342873
O   O19       1.0  0.33890  0.33140  0.23670  1.0000 -0.5015803772
O   O20       1.0  0.87260  0.60520  0.24970  1.0000 -0.6294342873
O   O21       1.0  0.60010  0.42720  0.11360  1.0000 -0.802357286
O   O22       1.0  0.77530  0.48010  0.19320  1.0000 -0.7494269309
O   O23       1.0  0.89570  0.52980  0.12820  1.0000 -0.5217753348
O   O24       1.0  0.76200  0.62320  0.16460  1.0000 -0.5788018403
O   O25       1.0  0.01380  0.66450  0.31320  1.0000 -0.7824982999
O   O26       1.0  0.80320  0.37800  0.52400  1.0000 -0.5702608523
O   O27       1.0  0.11700  0.51900  0.56070  1.0000 -0.8597644267
O   O28       1.0  0.27150  0.74700  0.38510  1.0000 -0.5015803772
O   O29       1.0  0.39870  0.71180  0.54350  1.0000 -0.5788018403
O   O30       1.0  0.79230  0.86630  0.44660  1.0000 -0.5109061895
O   O31       1.0  0.24280  0.54040  0.67030  1.0000 -1.0801072416
O   O32       1.0  0.41390  0.62910  0.66640  1.0000 -0.911558151
O   O33       1.0  0.22480  0.70260  0.63440  1.0000 -0.6158044038
O   O34       1.0  0.66180  0.88600  0.28380  1.0000 -0.5015803772
O   O35       1.0  0.33140  0.50920  0.52700  1.0000 -0.6569468675
O   O36       1.0  0.16240  0.35710  0.59770  1.0000 -0.6900673507
O   O37       1.0  0.16750  0.95380  0.39200  1.0000 -0.5217753348
O   O38       1.0  0.56610  0.08570  0.29260  1.0000 -0.4807309059
O   O39       1.0  0.95460  0.38990  0.57230  1.0000 -0.5404933987
O   O40       1.0  0.41170  0.47430  0.72180  1.0000 -0.6900673507
O   O41       1.0  0.31390  0.68080  0.80220  1.0000 -0.6015823183
O   O42       1.0  0.03470  0.53670  0.70280  1.0000 -0.6368719039
O   O43       1.0  0.51860  0.64540  0.80940  1.0000 -0.6294342873
O   O44       1.0  0.66110  0.66860  0.76330  1.0000 -0.5015803772
O   O45       1.0  0.12740  0.39480  0.75030  1.0000 -0.6294342873
O   O46       1.0  0.39990  0.57280  0.88640  1.0000 -0.802357286
O   O47       1.0  0.22470  0.51990  0.80680  1.0000 -0.7494269309
O   O48       1.0  0.10430  0.47020  0.87180  1.0000 -0.5217753348
O   O49       1.0  0.23800  0.37680  0.83540  1.0000 -0.5788018403
O   O50       1.0  0.98620  0.33550  0.68680  1.0000 -0.7824982999
