# DDEC6 charges by PACMAN v1.1 (https://github.com/mtap-research/PACMAN-charge/)
data_2021[Zn][nan]3[FSR]18
_chemical_formula_sum              "Zn12 H24 C28 N24 O24"
_cell_length_a       7.7769
_cell_length_b       11.2145
_cell_length_c       20.8454
_cell_angle_alpha    90
_cell_angle_beta     90
_cell_angle_gamma    90

_symmetry_space_group_name_H-M    "P 1"
_symmetry_Int_Tables_number       1

loop_
  _symmetry_equiv_pos_as_xyz
  'x, y, z'

loop_
  _atom_site_type_symbol
  _atom_site_label
  _atom_site_symmetry_multiplicity
  _atom_site_fract_x
  _atom_site_fract_y
  _atom_site_fract_z
  _atom_site_occupancy
  _atom_site_charge
Zn  Zn1       1.0  0.55507  0.97450  0.70947  1.0000 0.8201561237
Zn  Zn2       1.0  0.57092  0.25852  0.62794  1.0000 0.8143294865
Zn  Zn3       1.0  0.27287  0.04491  0.59079  1.0000 0.9125258589
Zn  Zn4       1.0  0.94493  0.02550  0.20947  1.0000 0.8201561237
Zn  Zn5       1.0  0.92908  0.74148  0.12794  1.0000 0.8143294865
Zn  Zn6       1.0  0.22713  0.95509  0.09079  1.0000 0.9125258589
Zn  Zn7       1.0  0.44493  0.47450  0.79053  1.0000 0.8201561237
Zn  Zn8       1.0  0.42908  0.75852  0.87206  1.0000 0.8143294865
Zn  Zn9       1.0  0.72713  0.54491  0.90921  1.0000 0.9125258589
Zn  Zn10      1.0  0.05507  0.52550  0.29053  1.0000 0.8201561237
Zn  Zn11      1.0  0.07092  0.24148  0.37206  1.0000 0.8143294865
Zn  Zn12      1.0  0.77287  0.45509  0.40921  1.0000 0.9125258589
H   H1        1.0  0.37130  0.86120  0.63840  1.0000 0.3780103588
H   H2        1.0  0.37300  0.22500  0.54060  1.0000 0.3892926687
H   H3        1.0  0.90030  0.84370  0.69840  1.0000 0.2944115662
H   H4        1.0  0.05580  0.85330  0.66440  1.0000 0.2472880745
H   H5        1.0  0.96380  0.22050  0.58650  1.0000 0.1228800231
H   H6        1.0  0.73090  0.68400  0.60840  1.0000 0.1536902303
H   H7        1.0  0.12870  0.13880  0.13840  1.0000 0.3780103588
H   H8        1.0  0.12700  0.77500  0.04060  1.0000 0.3892926687
H   H9        1.0  0.59970  0.15630  0.19840  1.0000 0.2944115662
H   H10       1.0  0.44420  0.14670  0.16440  1.0000 0.2472880745
H   H11       1.0  0.53620  0.77950  0.08650  1.0000 0.1228800231
H   H12       1.0  0.76910  0.31600  0.10840  1.0000 0.1536902303
H   H13       1.0  0.62870  0.36120  0.86160  1.0000 0.3780103588
H   H14       1.0  0.62700  0.72500  0.95940  1.0000 0.3892926687
H   H15       1.0  0.09970  0.34370  0.80160  1.0000 0.2944115662
H   H16       1.0  0.94420  0.35330  0.83560  1.0000 0.2472880745
H   H17       1.0  0.03620  0.72050  0.91350  1.0000 0.1228800231
H   H18       1.0  0.26910  0.18400  0.89160  1.0000 0.1536902303
H   H19       1.0  0.87130  0.63880  0.36160  1.0000 0.3780103588
H   H20       1.0  0.87300  0.27500  0.45940  1.0000 0.3892926687
H   H21       1.0  0.40030  0.65630  0.30160  1.0000 0.2944115662
H   H22       1.0  0.55580  0.64670  0.33560  1.0000 0.2472880745
H   H23       1.0  0.46380  0.27950  0.41350  1.0000 0.1228800231
H   H24       1.0  0.23090  0.81600  0.39160  1.0000 0.1536902303
C   C1        1.0  0.93490  0.99310  0.66310  1.0000 0.4909039551
C   C2        1.0  0.92980  0.15650  0.61180  1.0000 0.1579454729
C   C3        1.0  0.70030  0.44820  0.54360  1.0000 0.5585494751
C   C4        1.0  0.66240  0.50330  0.60680  1.0000 0.0490743818
C   C5        1.0  0.68410  0.61850  0.62950  1.0000 -0.2254078275
C   C6        1.0  0.61900  0.61250  0.69140  1.0000 0.0172156684
C   C7        1.0  0.59840  0.70490  0.74110  1.0000 0.5727988893
C   C8        1.0  0.56510  0.00690  0.16310  1.0000 0.4909039551
C   C9        1.0  0.57020  0.84350  0.11180  1.0000 0.1579454729
C   C10       1.0  0.79970  0.55180  0.04360  1.0000 0.5585494751
C   C11       1.0  0.83760  0.49670  0.10680  1.0000 0.0490743818
C   C12       1.0  0.81590  0.38150  0.12950  1.0000 -0.2254078275
C   C13       1.0  0.88100  0.38750  0.19140  1.0000 0.0172156684
C   C14       1.0  0.90160  0.29510  0.24110  1.0000 0.5727988893
C   C15       1.0  0.06510  0.49310  0.83690  1.0000 0.4909039551
C   C16       1.0  0.07020  0.65650  0.88820  1.0000 0.1579454729
C   C17       1.0  0.29970  0.94820  0.95640  1.0000 0.5585494751
C   C18       1.0  0.33760  0.00330  0.89320  1.0000 0.0490743818
C   C19       1.0  0.31590  0.11850  0.87050  1.0000 -0.2254078275
C   C20       1.0  0.38100  0.11250  0.80860  1.0000 0.0172156684
C   C21       1.0  0.40160  0.20490  0.75890  1.0000 0.5727988893
C   C22       1.0  0.43490  0.50690  0.33690  1.0000 0.4909039551
C   C23       1.0  0.42980  0.34350  0.38820  1.0000 0.1579454729
C   C24       1.0  0.20030  0.05180  0.45640  1.0000 0.5585494751
C   C25       1.0  0.16240  0.99670  0.39320  1.0000 0.0490743818
C   C26       1.0  0.18410  0.88150  0.37050  1.0000 -0.2254078275
C   C27       1.0  0.11900  0.88750  0.30860  1.0000 0.0172156684
C   C28       1.0  0.09840  0.79510  0.25890  1.0000 0.5727988893
N   N1        1.0  0.03260  0.06280  0.62570  1.0000 -0.4493435508
N   N2        1.0  0.77910  0.04070  0.67180  1.0000 -0.3173772356
N   N3        1.0  0.77810  0.14740  0.63770  1.0000 -0.1978963295
N   N4        1.0  0.98700  0.89030  0.69050  1.0000 -0.6036521977
N   N5        1.0  0.59080  0.43300  0.65230  1.0000 -0.1978963295
N   N6        1.0  0.56290  0.50090  0.70430  1.0000 -0.1879142186
N   N7        1.0  0.46740  0.93720  0.12570  1.0000 -0.4493435508
N   N8        1.0  0.72090  0.95930  0.17180  1.0000 -0.3173772356
N   N9        1.0  0.72190  0.85260  0.13770  1.0000 -0.1978963295
N   N10       1.0  0.51300  0.10970  0.19050  1.0000 -0.6036521977
N   N11       1.0  0.90920  0.56700  0.15230  1.0000 -0.1978963295
N   N12       1.0  0.93710  0.49910  0.20430  1.0000 -0.1879142186
N   N13       1.0  0.96740  0.56280  0.87430  1.0000 -0.4493435508
N   N14       1.0  0.22090  0.54070  0.82820  1.0000 -0.3173772356
N   N15       1.0  0.22190  0.64740  0.86230  1.0000 -0.1978963295
N   N16       1.0  0.01300  0.39030  0.80950  1.0000 -0.6036521977
N   N17       1.0  0.40920  0.93300  0.84770  1.0000 -0.1978963295
N   N18       1.0  0.43710  0.00090  0.79570  1.0000 -0.1879142186
N   N19       1.0  0.53260  0.43720  0.37430  1.0000 -0.4493435508
N   N20       1.0  0.27910  0.45930  0.32820  1.0000 -0.3173772356
N   N21       1.0  0.27810  0.35260  0.36230  1.0000 -0.1978963295
N   N22       1.0  0.48700  0.60970  0.30950  1.0000 -0.6036521977
N   N23       1.0  0.09080  0.06700  0.34770  1.0000 -0.1978963295
N   N24       1.0  0.06290  0.99910  0.29570  1.0000 -0.1879142186
O   O1        1.0  0.41070  0.93430  0.63790  1.0000 -0.8179917148
O   O2        1.0  0.37430  0.20080  0.58100  1.0000 -0.8179917148
O   O3        1.0  0.68630  0.33700  0.53890  1.0000 -0.5652014202
O   O4        1.0  0.74440  0.51800  0.49854  1.0000 -0.5375955409
O   O5        1.0  0.65550  0.80670  0.73190  1.0000 -0.5175664908
O   O6        1.0  0.52420  0.66940  0.79140  1.0000 -0.5453341192
O   O7        1.0  0.08930  0.06570  0.13790  1.0000 -0.8179917148
O   O8        1.0  0.12570  0.79920  0.08100  1.0000 -0.8179917148
O   O9        1.0  0.81370  0.66300  0.03890  1.0000 -0.5652014202
O   O10       1.0  0.75560  0.48200  0.99854  1.0000 -0.5375955409
O   O11       1.0  0.84450  0.19330  0.23190  1.0000 -0.5175664908
O   O12       1.0  0.97580  0.33060  0.29140  1.0000 -0.5375955409
O   O13       1.0  0.58930  0.43430  0.86210  1.0000 -0.8179917148
O   O14       1.0  0.62570  0.70080  0.91900  1.0000 -0.8179917148
O   O15       1.0  0.31370  0.83700  0.96110  1.0000 -0.5652014202
O   O16       1.0  0.25560  0.01800  0.00146  1.0000 -0.5375955409
O   O17       1.0  0.34450  0.30670  0.76810  1.0000 -0.5175664908
O   O18       1.0  0.47580  0.16940  0.70860  1.0000 -0.5453341192
O   O19       1.0  0.91070  0.56570  0.36210  1.0000 -0.8179917148
O   O20       1.0  0.87430  0.29920  0.41900  1.0000 -0.8179917148
O   O21       1.0  0.18630  0.16300  0.46110  1.0000 -0.5645541733
O   O22       1.0  0.24440  0.98200  0.50146  1.0000 -0.5375955409
O   O23       1.0  0.15550  0.69330  0.26810  1.0000 -0.5175664908
O   O24       1.0  0.02420  0.83060  0.20860  1.0000 -0.5453341192
