# DDEC6 charges by PACMAN v1.1 (https://github.com/mtap-research/PACMAN-charge/)
data_2021[Cu][sql]2[FSR]10
_chemical_formula_sum              "Cu8 H52 C44 N4 O40"
_cell_length_a       8.809
_cell_length_b       17.473
_cell_length_c       19.5849
_cell_angle_alpha    90
_cell_angle_beta     109.918
_cell_angle_gamma    90

_symmetry_space_group_name_H-M    "P 1"
_symmetry_Int_Tables_number       1

loop_
  _symmetry_equiv_pos_as_xyz
  'x, y, z'

loop_
  _atom_site_type_symbol
  _atom_site_label
  _atom_site_symmetry_multiplicity
  _atom_site_fract_x
  _atom_site_fract_y
  _atom_site_fract_z
  _atom_site_occupancy
  _atom_site_charge
Cu  Cu1       1.0  0.99774  0.88386  0.29584  1.0000 0.837526376
Cu  Cu2       1.0  0.07823  0.38851  0.34723  1.0000 0.8300661394
Cu  Cu3       1.0  0.00226  0.38386  0.20416  1.0000 0.837526376
Cu  Cu4       1.0  0.92177  0.88851  0.15277  1.0000 0.8300661394
Cu  Cu5       1.0  0.00226  0.11614  0.70416  1.0000 0.837526376
Cu  Cu6       1.0  0.92177  0.61149  0.65277  1.0000 0.8300661394
Cu  Cu7       1.0  0.99774  0.61614  0.79584  1.0000 0.837526376
Cu  Cu8       1.0  0.07823  0.11149  0.84723  1.0000 0.8300661394
H   H1        1.0  0.06372  0.83324  0.42621  1.0000 0.3514516005
H   H2        1.0  0.95561  0.89213  0.41951  1.0000 0.3573914716
H   H3        1.0  0.41268  0.89136  0.15456  1.0000 0.1490147659
H   H4        1.0  0.51251  0.88386  0.30528  1.0000 0.1394199865
H   H5        1.0  0.93509  0.63238  0.16620  1.0000 0.1394199865
H   H6        1.0  0.05384  0.64038  0.31703  1.0000 0.1394199865
H   H7        1.0  0.15374  0.29230  0.48364  1.0000 0.1000096226
H   H8        1.0  0.16753  0.27774  0.64789  1.0000 0.1305195192
H   H9        1.0  0.35456  0.28812  0.65824  1.0000 0.1490147659
H   H10       1.0  0.24187  0.23577  0.59381  1.0000 0.1151845405
H   H11       1.0  0.32985  0.43983  0.62855  1.0000 0.1394199865
H   H12       1.0  0.17044  0.42142  0.64728  1.0000 0.1305195192
H   H13       1.0  0.15606  0.46131  0.57178  1.0000 0.1563333074
H   H14       1.0  0.93628  0.33324  0.07379  1.0000 0.3514516005
H   H15       1.0  0.04439  0.39213  0.08049  1.0000 0.3573914716
H   H16       1.0  0.58732  0.39136  0.34544  1.0000 0.1490147659
H   H17       1.0  0.48749  0.38386  0.19472  1.0000 0.1394199865
H   H18       1.0  0.06491  0.13238  0.33380  1.0000 0.1394199865
H   H19       1.0  0.94616  0.14038  0.18297  1.0000 0.1394199865
H   H20       1.0  0.84626  0.79230  0.01636  1.0000 0.1000096226
H   H21       1.0  0.83247  0.77774  0.85211  1.0000 0.1305195192
H   H22       1.0  0.64544  0.78812  0.84176  1.0000 0.1490147659
H   H23       1.0  0.75813  0.73577  0.90619  1.0000 0.1151845405
H   H24       1.0  0.67015  0.93983  0.87145  1.0000 0.1394199865
H   H25       1.0  0.82956  0.92142  0.85272  1.0000 0.1305195192
H   H26       1.0  0.84394  0.96131  0.92822  1.0000 0.1563333074
H   H27       1.0  0.93628  0.16676  0.57379  1.0000 0.3514516005
H   H28       1.0  0.04439  0.10787  0.58049  1.0000 0.3573914716
H   H29       1.0  0.58732  0.10864  0.84544  1.0000 0.1490147659
H   H30       1.0  0.48749  0.11614  0.69472  1.0000 0.1394199865
H   H31       1.0  0.06491  0.36762  0.83380  1.0000 0.1394199865
H   H32       1.0  0.94616  0.35962  0.68297  1.0000 0.1394199865
H   H33       1.0  0.84626  0.70770  0.51636  1.0000 0.1000096226
H   H34       1.0  0.83247  0.72226  0.35211  1.0000 0.1305195192
H   H35       1.0  0.64544  0.71188  0.34176  1.0000 0.1490147659
H   H36       1.0  0.75813  0.76423  0.40619  1.0000 0.1151845405
H   H37       1.0  0.67015  0.56017  0.37145  1.0000 0.1394199865
H   H38       1.0  0.82956  0.57858  0.35272  1.0000 0.1305195192
H   H39       1.0  0.84394  0.53869  0.42822  1.0000 0.1563333074
H   H40       1.0  0.06372  0.66676  0.92621  1.0000 0.3514516005
H   H41       1.0  0.95561  0.60787  0.91951  1.0000 0.3573914716
H   H42       1.0  0.41268  0.60864  0.65456  1.0000 0.1490147659
H   H43       1.0  0.51251  0.61614  0.80528  1.0000 0.1394199865
H   H44       1.0  0.93509  0.86762  0.66620  1.0000 0.1394199865
H   H45       1.0  0.05384  0.85962  0.81703  1.0000 0.1394199865
H   H46       1.0  0.15374  0.20770  0.98364  1.0000 0.1000096226
H   H47       1.0  0.16753  0.22226  0.14789  1.0000 0.1305195192
H   H48       1.0  0.35456  0.21188  0.15824  1.0000 0.1490147659
H   H49       1.0  0.24187  0.26423  0.09381  1.0000 0.1151845405
H   H50       1.0  0.32985  0.06017  0.12855  1.0000 0.1394199865
H   H51       1.0  0.17044  0.07858  0.14728  1.0000 0.1305195192
H   H52       1.0  0.15606  0.03869  0.07178  1.0000 0.1563333074
C   C1        1.0  0.03218  0.53040  0.27118  1.0000 0.6221581237
C   C2        1.0  0.66260  0.88697  0.20980  1.0000 0.6221581237
C   C3        1.0  0.49000  0.88836  0.20220  1.0000 -0.1777704222
C   C4        1.0  0.43640  0.88571  0.25740  1.0000 -0.170134542
C   C5        1.0  0.95930  0.74200  0.21450  1.0000 0.6221581237
C   C6        1.0  0.26120  0.88549  0.24740  1.0000 0.6221581237
C   C7        1.0  0.96842  0.65715  0.21212  1.0000 -0.170134542
C   C8        1.0  0.02102  0.61498  0.27142  1.0000 -0.1777704222
C   C9        1.0  0.16131  0.34230  0.50351  1.0000 0.2897919515
C   C10       1.0  0.24590  0.28210  0.62260  1.0000 -0.3517433157
C   C11       1.0  0.21650  0.42400  0.60830  1.0000 -0.314223071
C   C12       1.0  0.96782  0.03040  0.22882  1.0000 0.6221581237
C   C13       1.0  0.33740  0.38697  0.29020  1.0000 0.6221581237
C   C14       1.0  0.51000  0.38836  0.29780  1.0000 -0.1777704222
C   C15       1.0  0.56360  0.38571  0.24260  1.0000 -0.170134542
C   C16       1.0  0.04070  0.24200  0.28550  1.0000 0.6221581237
C   C17       1.0  0.73880  0.38549  0.25260  1.0000 0.6221581237
C   C18       1.0  0.03158  0.15715  0.28788  1.0000 -0.170134542
C   C19       1.0  0.97898  0.11498  0.22858  1.0000 -0.1777704222
C   C20       1.0  0.83869  0.84230  0.99649  1.0000 0.2897919515
C   C21       1.0  0.75410  0.78210  0.87740  1.0000 -0.3517433157
C   C22       1.0  0.78350  0.92400  0.89170  1.0000 -0.314223071
C   C23       1.0  0.96782  0.46960  0.72882  1.0000 0.6221581237
C   C24       1.0  0.33740  0.11303  0.79020  1.0000 0.6221581237
C   C25       1.0  0.51000  0.11164  0.79780  1.0000 -0.1777704222
C   C26       1.0  0.56360  0.11429  0.74260  1.0000 -0.170134542
C   C27       1.0  0.04070  0.25800  0.78550  1.0000 0.6221581237
C   C28       1.0  0.73880  0.11451  0.75260  1.0000 0.6221581237
C   C29       1.0  0.03158  0.34285  0.78788  1.0000 -0.170134542
C   C30       1.0  0.97898  0.38502  0.72858  1.0000 -0.1777704222
C   C31       1.0  0.83869  0.65770  0.49649  1.0000 0.2897919515
C   C32       1.0  0.75410  0.71790  0.37740  1.0000 -0.3517433157
C   C33       1.0  0.78350  0.57600  0.39170  1.0000 -0.314223071
C   C34       1.0  0.03218  0.96960  0.77118  1.0000 0.6221581237
C   C35       1.0  0.66260  0.61303  0.70980  1.0000 0.6221581237
C   C36       1.0  0.49000  0.61164  0.70220  1.0000 -0.1777704222
C   C37       1.0  0.43640  0.61429  0.75740  1.0000 -0.170134542
C   C38       1.0  0.95930  0.75800  0.71450  1.0000 0.6221581237
C   C39       1.0  0.26120  0.61451  0.74740  1.0000 0.6221581237
C   C40       1.0  0.96842  0.84285  0.71212  1.0000 -0.170134542
C   C41       1.0  0.02102  0.88502  0.77142  1.0000 -0.1777704222
C   C42       1.0  0.16131  0.15770  0.00351  1.0000 0.2897919515
C   C43       1.0  0.24590  0.21790  0.12260  1.0000 -0.3517433157
C   C44       1.0  0.21650  0.07600  0.10830  1.0000 -0.314223071
N   N1        1.0  0.20641  0.34875  0.57451  1.0000 0.0375703225
N   N2        1.0  0.79359  0.84875  0.92549  1.0000 0.0375703225
N   N3        1.0  0.79359  0.65125  0.42549  1.0000 0.0375703225
N   N4        1.0  0.20641  0.15125  0.07451  1.0000 0.0375703225
O   O1        1.0  0.99840  0.49697  0.21090  1.0000 -0.5209078616
O   O2        1.0  0.07290  0.49909  0.33270  1.0000 -0.5209078616
O   O3        1.0  0.16307  0.88865  0.18387  1.0000 -0.5288031748
O   O4        1.0  0.76376  0.88598  0.27336  1.0000 -0.5562595627
O   O5        1.0  0.92372  0.77647  0.15412  1.0000 -0.5414483001
O   O6        1.0  0.22627  0.88233  0.30497  1.0000 -0.5209078616
O   O7        1.0  0.04353  0.88026  0.41093  1.0000 -0.6198393753
O   O8        1.0  0.98941  0.77268  0.27571  1.0000 -0.5547926476
O   O9        1.0  0.69487  0.88689  0.15167  1.0000 -0.5209078616
O   O10       1.0  0.12796  0.39698  0.46076  1.0000 -0.4341555214
O   O11       1.0  0.00160  0.99697  0.28910  1.0000 -0.5209078616
O   O12       1.0  0.92710  0.99909  0.16730  1.0000 -0.5209078616
O   O13       1.0  0.83693  0.38865  0.31613  1.0000 -0.5288031748
O   O14       1.0  0.23624  0.38598  0.22664  1.0000 -0.5562595627
O   O15       1.0  0.07628  0.27647  0.34588  1.0000 -0.5414483001
O   O16       1.0  0.77373  0.38233  0.19503  1.0000 -0.5209078616
O   O17       1.0  0.95647  0.38026  0.08907  1.0000 -0.6198393753
O   O18       1.0  0.01059  0.27268  0.22429  1.0000 -0.5547926476
O   O19       1.0  0.30513  0.38689  0.34833  1.0000 -0.5209078616
O   O20       1.0  0.87204  0.89698  0.03924  1.0000 -0.4341555214
O   O21       1.0  0.00160  0.50303  0.78910  1.0000 -0.5209078616
O   O22       1.0  0.92710  0.50091  0.66730  1.0000 -0.5209078616
O   O23       1.0  0.83693  0.11135  0.81613  1.0000 -0.5288031748
O   O24       1.0  0.23624  0.11402  0.72664  1.0000 -0.5562595627
O   O25       1.0  0.07628  0.22353  0.84588  1.0000 -0.5414483001
O   O26       1.0  0.77373  0.11767  0.69503  1.0000 -0.5209078616
O   O27       1.0  0.95647  0.11974  0.58907  1.0000 -0.6198393753
O   O28       1.0  0.01059  0.22732  0.72429  1.0000 -0.5547926476
O   O29       1.0  0.30513  0.11311  0.84833  1.0000 -0.5209078616
O   O30       1.0  0.87204  0.60302  0.53924  1.0000 -0.4341555214
O   O31       1.0  0.99840  0.00303  0.71090  1.0000 -0.5209078616
O   O32       1.0  0.07290  0.00091  0.83270  1.0000 -0.5209078616
O   O33       1.0  0.16307  0.61135  0.68387  1.0000 -0.5288031748
O   O34       1.0  0.76376  0.61402  0.77336  1.0000 -0.5562595627
O   O35       1.0  0.92372  0.72353  0.65412  1.0000 -0.5414483001
O   O36       1.0  0.22627  0.61767  0.80497  1.0000 -0.5209078616
O   O37       1.0  0.04353  0.61974  0.91093  1.0000 -0.6198393753
O   O38       1.0  0.98941  0.72732  0.77571  1.0000 -0.5547926476
O   O39       1.0  0.69487  0.61311  0.65167  1.0000 -0.5209078616
O   O40       1.0  0.12796  0.10302  0.96076  1.0000 -0.4341555214
