# DDEC6 charges by PACMAN v1.1 (https://github.com/mtap-research/PACMAN-charge/)
data_2021[Zn][sql]2[FSR]1
_chemical_formula_sum              "Zn2 H36 C62 N8 O8"
_cell_length_a       10.024
_cell_length_b       12.382
_cell_length_c       14.032
_cell_angle_alpha    83.6
_cell_angle_beta     81.93
_cell_angle_gamma    88.32

_symmetry_space_group_name_H-M    "P 1"
_symmetry_Int_Tables_number       1

loop_
  _symmetry_equiv_pos_as_xyz
  'x, y, z'

loop_
  _atom_site_type_symbol
  _atom_site_label
  _atom_site_symmetry_multiplicity
  _atom_site_fract_x
  _atom_site_fract_y
  _atom_site_fract_z
  _atom_site_occupancy
  _atom_site_charge
Zn  Zn1       1.0  0.64402  0.92337  0.57360  1.0000 0.7961094153
Zn  Zn2       1.0  0.35598  0.07663  0.42640  1.0000 0.7961094153
H   H1        1.0  0.10140  0.91090  0.57210  1.0000 0.1373788264
H   H2        1.0  0.32570  0.70570  0.72610  1.0000 0.1102169805
H   H3        1.0  0.13440  0.61210  0.79770  1.0000 0.0993209876
H   H4        1.0  0.92530  0.66850  0.75480  1.0000 0.1102169805
H   H5        1.0  0.73670  0.62000  0.15930  1.0000 0.1303079528
H   H6        1.0  0.41430  0.52640  0.35270  1.0000 0.1176195243
H   H7        1.0  0.36190  0.39610  0.25660  1.0000 0.1373788264
H   H8        1.0  0.34940  0.25850  0.11970  1.0000 0.1373788264
H   H9        1.0  0.38890  0.15440  0.99120  1.0000 0.1176195243
H   H10       1.0  0.72300  0.32200  0.88220  1.0000 0.1176195243
H   H11       1.0  0.58640  0.69420  0.56040  1.0000 0.1102169805
H   H12       1.0  0.56230  0.56690  0.45780  1.0000 0.1303079528
H   H13       1.0  0.68550  0.78640  0.23520  1.0000 0.1303079528
H   H14       1.0  0.71090  0.90680  0.34490  1.0000 0.1102169805
H   H15       1.0  0.51540  0.92110  0.78510  1.0000 0.1176195243
H   H16       1.0  0.48480  0.02330  0.91210  1.0000 0.1303079528
H   H17       1.0  0.69500  0.26010  0.74400  1.0000 0.1303079528
H   H18       1.0  0.71780  0.15200  0.61940  1.0000 0.1176195243
H   H19       1.0  0.89860  0.08910  0.42790  1.0000 0.1373788264
H   H20       1.0  0.67430  0.29430  0.27390  1.0000 0.1102169805
H   H21       1.0  0.86560  0.38790  0.20230  1.0000 0.0993209876
H   H22       1.0  0.07470  0.33150  0.24520  1.0000 0.1102169805
H   H23       1.0  0.26330  0.38000  0.84070  1.0000 0.1303079528
H   H24       1.0  0.58570  0.47360  0.64730  1.0000 0.1176195243
H   H25       1.0  0.63810  0.60390  0.74340  1.0000 0.1373788264
H   H26       1.0  0.65060  0.74150  0.88030  1.0000 0.1373788264
H   H27       1.0  0.61110  0.84560  0.00880  1.0000 0.1176195243
H   H28       1.0  0.27700  0.67800  0.11780  1.0000 0.1176195243
H   H29       1.0  0.41360  0.30580  0.43960  1.0000 0.1102169805
H   H30       1.0  0.43770  0.43310  0.54220  1.0000 0.1303079528
H   H31       1.0  0.31450  0.21360  0.76480  1.0000 0.1303079528
H   H32       1.0  0.28910  0.09320  0.65510  1.0000 0.1102169805
H   H33       1.0  0.48460  0.07890  0.21490  1.0000 0.1176195243
H   H34       1.0  0.51520  0.97670  0.08790  1.0000 0.1303079528
H   H35       1.0  0.30500  0.73990  0.25600  1.0000 0.1303079528
H   H36       1.0  0.28220  0.84800  0.38060  1.0000 0.1176195243
C   C1        1.0  0.99250  0.79710  0.65990  1.0000 -0.0102925523
C   C2        1.0  0.10760  0.85100  0.61770  1.0000 -0.1084238778
C   C3        1.0  0.23330  0.81720  0.64210  1.0000 -0.0361914451
C   C4        1.0  0.24200  0.72830  0.70930  1.0000 -0.1084238778
C   C5        1.0  0.12760  0.67210  0.75230  1.0000 -0.1084238778
C   C6        1.0  0.00240  0.70630  0.72690  1.0000 -0.1084238778
C   C7        1.0  0.85590  0.83470  0.63580  1.0000 0.5410032046
C   C8        1.0  0.35790  0.87730  0.59580  1.0000 0.564731754
C   C9        1.0  0.66340  0.57470  0.17960  1.0000 -0.1904140714
C   C10       1.0  0.58320  0.58400  0.26700  1.0000 0.0622008477
C   C11       1.0  0.46920  0.51790  0.29480  1.0000 -0.1630504879
C   C12       1.0  0.43690  0.43980  0.23720  1.0000 -0.1287144053
C   C13       1.0  0.42470  0.27100  0.07320  1.0000 -0.1416596699
C   C14       1.0  0.44870  0.20910  0.99560  1.0000 -0.1630504879
C   C15       1.0  0.55970  0.22650  0.92420  1.0000 0.0622008477
C   C16       1.0  0.64930  0.30870  0.92990  1.0000 -0.17962499
C   C17       1.0  0.69940  0.46120  0.03200  1.0000 0.0489521703
C   C18       1.0  0.63240  0.49630  0.12270  1.0000 -0.0041237032
C   C19       1.0  0.51840  0.42890  0.15130  1.0000 0.0103501604
C   C20       1.0  0.51560  0.35220  0.08010  1.0000 0.0103501604
C   C21       1.0  0.62780  0.37080  0.00720  1.0000 -0.0041237032
C   C22       1.0  0.60650  0.71350  0.49400  1.0000 0.0993209876
C   C23       1.0  0.58980  0.63650  0.43240  1.0000 -0.2111501399
C   C24       1.0  0.61380  0.66280  0.33340  1.0000 0.1176195243
C   C25       1.0  0.66300  0.76560  0.30120  1.0000 -0.2015942636
C   C26       1.0  0.67860  0.83780  0.36810  1.0000 0.093236841
C   C27       1.0  0.55180  0.99030  0.77680  1.0000 0.08397264
C   C28       1.0  0.53240  0.05160  0.85340  1.0000 -0.2111501399
C   C29       1.0  0.58400  0.15640  0.84320  1.0000 0.1176195243
C   C30       1.0  0.65630  0.19170  0.75390  1.0000 -0.2015942636
C   C31       1.0  0.67120  0.12550  0.67910  1.0000 0.0993209876
C   C32       1.0  0.00750  0.20290  0.34010  1.0000 -0.0102925523
C   C33       1.0  0.89240  0.14900  0.38230  1.0000 -0.1084238778
C   C34       1.0  0.76670  0.18280  0.35790  1.0000 -0.0361914451
C   C35       1.0  0.75800  0.27170  0.29070  1.0000 -0.1084238778
C   C36       1.0  0.87240  0.32790  0.24770  1.0000 -0.1084238778
C   C37       1.0  0.99760  0.29370  0.27310  1.0000 -0.1084238778
C   C38       1.0  0.14410  0.16530  0.36420  1.0000 0.5410032046
C   C39       1.0  0.64210  0.12270  0.40420  1.0000 0.564731754
C   C40       1.0  0.33660  0.42530  0.82040  1.0000 -0.1904140714
C   C41       1.0  0.41680  0.41600  0.73300  1.0000 0.0622008477
C   C42       1.0  0.53080  0.48210  0.70520  1.0000 -0.1630504879
C   C43       1.0  0.56310  0.56020  0.76280  1.0000 -0.1287144053
C   C44       1.0  0.57530  0.72900  0.92680  1.0000 -0.1416596699
C   C45       1.0  0.55130  0.79090  0.00440  1.0000 -0.1630504879
C   C46       1.0  0.44030  0.77350  0.07580  1.0000 0.0622008477
C   C47       1.0  0.35070  0.69130  0.07010  1.0000 -0.17962499
C   C48       1.0  0.30060  0.53880  0.96800  1.0000 0.0489521703
C   C49       1.0  0.36760  0.50370  0.87730  1.0000 -0.0041237032
C   C50       1.0  0.48160  0.57110  0.84870  1.0000 0.0103501604
C   C51       1.0  0.48440  0.64780  0.91990  1.0000 0.0103501604
C   C52       1.0  0.37220  0.62920  0.99280  1.0000 -0.0041237032
C   C53       1.0  0.39350  0.28650  0.50600  1.0000 0.0993209876
C   C54       1.0  0.41020  0.36350  0.56760  1.0000 -0.2111501399
C   C55       1.0  0.38620  0.33720  0.66667  1.0000 0.1176195243
C   C56       1.0  0.33700  0.23440  0.69880  1.0000 -0.2015942636
C   C57       1.0  0.32140  0.16220  0.63190  1.0000 0.093236841
C   C58       1.0  0.44820  0.00970  0.22320  1.0000 0.08397264
C   C59       1.0  0.46760  0.94840  0.14660  1.0000 -0.2111501399
C   C60       1.0  0.41600  0.84360  0.15680  1.0000 0.1176195243
C   C61       1.0  0.34370  0.80830  0.24610  1.0000 -0.2015942636
C   C62       1.0  0.32880  0.87450  0.32090  1.0000 0.0993209876
N   N1        1.0  0.64960  0.81310  0.46360  1.0000 -0.2111501399
N   N2        1.0  0.62150  0.02610  0.68970  1.0000 -0.2185766029
N   N3        1.0  0.80390  0.50750  0.97980  1.0000 0.0489521703
N   N4        1.0  0.89430  0.54860  0.93240  1.0000 -0.0558227006
N   N5        1.0  0.35040  0.18690  0.53640  1.0000 -0.2111501399
N   N6        1.0  0.37850  0.97390  0.31030  1.0000 -0.2185766029
N   N7        1.0  0.19610  0.49250  0.02020  1.0000 0.0489521703
N   N8        1.0  0.10570  0.45140  0.06760  1.0000 -0.0558227006
O   O1        1.0  0.75290  0.78620  0.67660  1.0000 -0.5662256706
O   O2        1.0  0.85100  0.91480  0.57330  1.0000 -0.5280190933
O   O3        1.0  0.34990  0.94320  0.52400  1.0000 -0.5472208488
O   O4        1.0  0.46360  0.85660  0.63380  1.0000 -0.5404591191
O   O5        1.0  0.24710  0.21380  0.32340  1.0000 -0.5662256706
O   O6        1.0  0.14900  0.08520  0.42670  1.0000 -0.5280190933
O   O7        1.0  0.65010  0.05680  0.47600  1.0000 -0.5472208488
O   O8        1.0  0.53640  0.14340  0.36620  1.0000 -0.5404591191
