# DDEC6 charges by PACMAN v1.1 (https://github.com/mtap-research/PACMAN-charge/)
data_2021[U][pcu]3[FSR]4
_chemical_formula_sum              "U16 H80 C104 N16 O80"
_cell_length_a       7.1643
_cell_length_b       32.8398
_cell_length_c       17.4573
_cell_angle_alpha    90
_cell_angle_beta     104.665
_cell_angle_gamma    90

_symmetry_space_group_name_H-M    "P 1"
_symmetry_Int_Tables_number       1

loop_
  _symmetry_equiv_pos_as_xyz
  'x, y, z'

loop_
  _atom_site_type_symbol
  _atom_site_label
  _atom_site_symmetry_multiplicity
  _atom_site_fract_x
  _atom_site_fract_y
  _atom_site_fract_z
  _atom_site_occupancy
  _atom_site_charge
U   U1        1.0  0.07854  0.64935  0.62236  1.0000 2.5298864765
U   U2        1.0  0.23366  0.62238  0.86344  1.0000 2.5298864765
U   U3        1.0  0.98705  0.55474  0.47727  1.0000 2.6139244361
U   U4        1.0  0.13553  0.54313  0.69768  1.0000 2.5880529209
U   U5        1.0  0.92146  0.14935  0.87764  1.0000 2.5298864765
U   U6        1.0  0.76634  0.12238  0.63656  1.0000 2.5298864765
U   U7        1.0  0.01295  0.05474  0.02273  1.0000 2.6202961726
U   U8        1.0  0.86447  0.04313  0.80232  1.0000 2.5880529209
U   U9        1.0  0.92146  0.35065  0.37764  1.0000 2.5298864765
U   U10       1.0  0.76634  0.37762  0.13656  1.0000 2.5298864765
U   U11       1.0  0.01295  0.44526  0.52273  1.0000 2.6202961726
U   U12       1.0  0.86447  0.45687  0.30232  1.0000 2.5820197387
U   U13       1.0  0.07854  0.85065  0.12236  1.0000 2.5298864765
U   U14       1.0  0.23366  0.87762  0.36344  1.0000 2.5298864765
U   U15       1.0  0.98705  0.94526  0.97727  1.0000 2.6202961726
U   U16       1.0  0.13553  0.95687  0.19768  1.0000 2.5880529209
H   H1        1.0  0.07137  0.75141  0.90625  1.0000 0.148320493
H   H2        1.0  0.06751  0.86993  0.83562  1.0000 0.1610118792
H   H3        1.0  0.65921  0.78249  0.19315  1.0000 0.1925580425
H   H4        1.0  0.67394  0.73636  0.16575  1.0000 0.148320493
H   H5        1.0  0.46743  0.75773  0.15235  1.0000 0.1783183514
H   H6        1.0  0.72049  0.63111  0.33300  1.0000 0.148320493
H   H7        1.0  0.60685  0.57018  0.12438  1.0000 0.148320493
H   H8        1.0  0.43014  0.68705  0.13150  1.0000 0.1433384343
H   H9        1.0  0.59304  0.78988  0.34429  1.0000 0.1925580425
H   H10       1.0  0.11304  0.77809  0.68342  1.0000 0.148320493
H   H11       1.0  0.46822  0.76054  0.47762  1.0000 0.1694829284
H   H12       1.0  0.53748  0.71461  0.49826  1.0000 0.1783183514
H   H13       1.0  0.69360  0.75014  0.50481  1.0000 0.1694829284
H   H14       1.0  0.98003  0.90813  0.53164  1.0000 0.1925580425
H   H15       1.0  0.00933  0.80124  0.56571  1.0000 0.1694829284
H   H16       1.0  0.80460  0.81247  0.58119  1.0000 0.1610118792
H   H17       1.0  0.86475  0.83090  0.50601  1.0000 0.1925580425
H   H18       1.0  0.07485  0.98060  0.62037  1.0000 0.1694829284
H   H19       1.0  0.19591  0.97376  0.70995  1.0000 0.1783183514
H   H20       1.0  0.29674  0.96734  0.63884  1.0000 0.1610118792
H   H21       1.0  0.92863  0.25141  0.59375  1.0000 0.148320493
H   H22       1.0  0.93249  0.36993  0.66438  1.0000 0.1610118792
H   H23       1.0  0.34079  0.28249  0.30685  1.0000 0.1925580425
H   H24       1.0  0.32606  0.23636  0.33425  1.0000 0.148320493
H   H25       1.0  0.53257  0.25773  0.34765  1.0000 0.1783183514
H   H26       1.0  0.27951  0.13111  0.16700  1.0000 0.148320493
H   H27       1.0  0.39315  0.07018  0.37562  1.0000 0.148320493
H   H28       1.0  0.56986  0.18705  0.36850  1.0000 0.1433384343
H   H29       1.0  0.40696  0.28988  0.15571  1.0000 0.1925580425
H   H30       1.0  0.88696  0.27809  0.81658  1.0000 0.148320493
H   H31       1.0  0.53178  0.26054  0.02238  1.0000 0.1694829284
H   H32       1.0  0.46252  0.21461  0.00174  1.0000 0.1783183514
H   H33       1.0  0.30640  0.25014  0.99519  1.0000 0.1694829284
H   H34       1.0  0.01997  0.40813  0.96836  1.0000 0.1925580425
H   H35       1.0  0.99067  0.30124  0.93429  1.0000 0.1694829284
H   H36       1.0  0.19540  0.31247  0.91881  1.0000 0.1610118792
H   H37       1.0  0.13525  0.33090  0.99399  1.0000 0.1925580425
H   H38       1.0  0.92515  0.48060  0.87963  1.0000 0.1694829284
H   H39       1.0  0.80409  0.47376  0.79005  1.0000 0.1783183514
H   H40       1.0  0.70326  0.46734  0.86116  1.0000 0.1610118792
H   H41       1.0  0.92863  0.24859  0.09375  1.0000 0.148320493
H   H42       1.0  0.93249  0.13007  0.16438  1.0000 0.1610118792
H   H43       1.0  0.34079  0.21751  0.80685  1.0000 0.1925580425
H   H44       1.0  0.32606  0.26364  0.83425  1.0000 0.148320493
H   H45       1.0  0.53257  0.24227  0.84765  1.0000 0.1783183514
H   H46       1.0  0.27951  0.36889  0.66700  1.0000 0.148320493
H   H47       1.0  0.39315  0.42982  0.87562  1.0000 0.148320493
H   H48       1.0  0.56986  0.31295  0.86850  1.0000 0.1433384343
H   H49       1.0  0.40696  0.21012  0.65571  1.0000 0.1925580425
H   H50       1.0  0.88696  0.22191  0.31658  1.0000 0.148320493
H   H51       1.0  0.53178  0.23946  0.52238  1.0000 0.1694829284
H   H52       1.0  0.46252  0.28539  0.50174  1.0000 0.1783183514
H   H53       1.0  0.30640  0.24986  0.49519  1.0000 0.1694829284
H   H54       1.0  0.01997  0.09187  0.46836  1.0000 0.1925580425
H   H55       1.0  0.99067  0.19876  0.43429  1.0000 0.1694829284
H   H56       1.0  0.19540  0.18753  0.41881  1.0000 0.1610118792
H   H57       1.0  0.13525  0.16910  0.49399  1.0000 0.1925580425
H   H58       1.0  0.92515  0.01940  0.37963  1.0000 0.1694829284
H   H59       1.0  0.80409  0.02624  0.29005  1.0000 0.1783183514
H   H60       1.0  0.70326  0.03266  0.36116  1.0000 0.1610118792
H   H61       1.0  0.07137  0.74859  0.40625  1.0000 0.148320493
H   H62       1.0  0.06751  0.63007  0.33562  1.0000 0.1610118792
H   H63       1.0  0.65921  0.71751  0.69315  1.0000 0.1925580425
H   H64       1.0  0.67394  0.76364  0.66575  1.0000 0.148320493
H   H65       1.0  0.46743  0.74227  0.65235  1.0000 0.1783183514
H   H66       1.0  0.72049  0.86889  0.83300  1.0000 0.148320493
H   H67       1.0  0.60685  0.92982  0.62438  1.0000 0.148320493
H   H68       1.0  0.43014  0.81295  0.63150  1.0000 0.1433384343
H   H69       1.0  0.59304  0.71012  0.84429  1.0000 0.1925580425
H   H70       1.0  0.11304  0.72191  0.18342  1.0000 0.148320493
H   H71       1.0  0.46822  0.73946  0.97762  1.0000 0.1694829284
H   H72       1.0  0.53748  0.78539  0.99826  1.0000 0.1783183514
H   H73       1.0  0.69360  0.74986  0.00481  1.0000 0.1694829284
H   H74       1.0  0.98003  0.59187  0.03164  1.0000 0.1925580425
H   H75       1.0  0.00933  0.69876  0.06571  1.0000 0.1694829284
H   H76       1.0  0.80460  0.68753  0.08119  1.0000 0.1610118792
H   H77       1.0  0.86475  0.66910  0.00601  1.0000 0.1925580425
H   H78       1.0  0.07485  0.51940  0.12037  1.0000 0.1694829284
H   H79       1.0  0.19591  0.52624  0.20995  1.0000 0.1783183514
H   H80       1.0  0.29674  0.53266  0.13884  1.0000 0.1610118792
C   C1        1.0  0.07670  0.77100  0.86680  1.0000 -0.0874416718
C   C2        1.0  0.40570  0.62590  0.02970  1.0000 0.5321566238
C   C3        1.0  0.07050  0.84180  0.82360  1.0000 -0.1553483979
C   C4        1.0  0.12400  0.71500  0.77710  1.0000 0.620329134
C   C5        1.0  0.59720  0.75570  0.18780  1.0000 -0.5001444445
C   C6        1.0  0.03590  0.82630  0.95940  1.0000 0.579654388
C   C7        1.0  0.06200  0.81270  0.88020  1.0000 0.0155346066
C   C8        1.0  0.66790  0.63030  0.27730  1.0000 -0.1553483979
C   C9        1.0  0.56870  0.73340  0.39140  1.0000 0.2718269749
C   C10       1.0  0.59860  0.59410  0.15390  1.0000 -0.0577541563
C   C11       1.0  0.49240  0.66360  0.15800  1.0000 -0.1786907633
C   C12       1.0  0.58380  0.76130  0.33610  1.0000 -0.3303700046
C   C13       1.0  0.10070  0.78720  0.73360  1.0000 -0.1786907633
C   C14       1.0  0.09940  0.75930  0.79240  1.0000 -0.0121769807
C   C15       1.0  0.58380  0.74150  0.26520  1.0000 0.2454648054
C   C16       1.0  0.68500  0.59520  0.23600  1.0000 -0.0121769807
C   C17       1.0  0.56680  0.74030  0.47510  1.0000 -0.4761737438
C   C18       1.0  0.50120  0.62820  0.11610  1.0000 0.0016606391
C   C19       1.0  0.57460  0.66460  0.23840  1.0000 0.1610118792
C   C20       1.0  0.79540  0.55990  0.27850  1.0000 0.6256046219
C   C21       1.0  0.08380  0.82890  0.74730  1.0000 0.1694829284
C   C22       1.0  0.02200  0.89790  0.58410  1.0000 -0.3232632455
C   C23       1.0  0.99910  0.85790  0.60880  1.0000 0.2259321174
C   C24       1.0  0.91230  0.82270  0.56150  1.0000 -0.4926980512
C   C25       1.0  0.11570  0.91920  0.64970  1.0000 0.2819070293
C   C26       1.0  0.17620  0.96430  0.65520  1.0000 -0.44043123
C   C27       1.0  0.92330  0.27100  0.63320  1.0000 -0.0874416718
C   C28       1.0  0.59430  0.12590  0.47030  1.0000 0.5321566238
C   C29       1.0  0.92950  0.34180  0.67640  1.0000 -0.1553483979
C   C30       1.0  0.87600  0.21500  0.72290  1.0000 0.620329134
C   C31       1.0  0.40280  0.25570  0.31220  1.0000 -0.5001444445
C   C32       1.0  0.96410  0.32630  0.54060  1.0000 0.579654388
C   C33       1.0  0.93800  0.31270  0.61980  1.0000 0.0155346066
C   C34       1.0  0.33210  0.13030  0.22270  1.0000 -0.1553483979
C   C35       1.0  0.43130  0.23340  0.10860  1.0000 0.2718269749
C   C36       1.0  0.40140  0.09410  0.34610  1.0000 -0.0577541563
C   C37       1.0  0.50760  0.16360  0.34200  1.0000 -0.1786907633
C   C38       1.0  0.41620  0.26130  0.16390  1.0000 -0.3303700046
C   C39       1.0  0.89930  0.28720  0.76640  1.0000 -0.1786907633
C   C40       1.0  0.90060  0.25930  0.70760  1.0000 -0.0121769807
C   C41       1.0  0.41620  0.24150  0.23480  1.0000 0.2454648054
C   C42       1.0  0.31500  0.09520  0.26400  1.0000 -0.0121769807
C   C43       1.0  0.43320  0.24030  0.02490  1.0000 -0.4761737438
C   C44       1.0  0.49880  0.12820  0.38390  1.0000 0.0016606391
C   C45       1.0  0.42540  0.16460  0.26160  1.0000 0.1610118792
C   C46       1.0  0.20460  0.05990  0.22150  1.0000 0.6256046219
C   C47       1.0  0.91620  0.32890  0.75270  1.0000 0.1694829284
C   C48       1.0  0.97800  0.39790  0.91590  1.0000 -0.3232632455
C   C49       1.0  0.00090  0.35790  0.89120  1.0000 0.2259321174
C   C50       1.0  0.08770  0.32270  0.93850  1.0000 -0.4926980512
C   C51       1.0  0.88430  0.41920  0.85030  1.0000 0.2819070293
C   C52       1.0  0.82380  0.46430  0.84480  1.0000 -0.44043123
C   C53       1.0  0.92330  0.22900  0.13320  1.0000 -0.0874416718
C   C54       1.0  0.59430  0.37410  0.97030  1.0000 0.5321566238
C   C55       1.0  0.92950  0.15820  0.17640  1.0000 -0.1553483979
C   C56       1.0  0.87600  0.28500  0.22290  1.0000 0.620329134
C   C57       1.0  0.40280  0.24430  0.81220  1.0000 -0.5001444445
C   C58       1.0  0.96410  0.17370  0.04060  1.0000 0.579654388
C   C59       1.0  0.93800  0.18730  0.11980  1.0000 0.0155346066
C   C60       1.0  0.33210  0.36970  0.72270  1.0000 -0.1553483979
C   C61       1.0  0.43130  0.26660  0.60860  1.0000 0.2718269749
C   C62       1.0  0.40140  0.40590  0.84610  1.0000 -0.0577541563
C   C63       1.0  0.50760  0.33640  0.84200  1.0000 -0.1786907633
C   C64       1.0  0.41620  0.23870  0.66390  1.0000 -0.3303700046
C   C65       1.0  0.89930  0.21280  0.26640  1.0000 -0.1786907633
C   C66       1.0  0.90060  0.24070  0.20760  1.0000 -0.0121769807
C   C67       1.0  0.41620  0.25850  0.73480  1.0000 0.2454648054
C   C68       1.0  0.31500  0.40480  0.76400  1.0000 -0.0121769807
C   C69       1.0  0.43320  0.25970  0.52490  1.0000 -0.4761737438
C   C70       1.0  0.49880  0.37180  0.88390  1.0000 0.0016606391
C   C71       1.0  0.42540  0.33540  0.76160  1.0000 0.1610118792
C   C72       1.0  0.20460  0.44010  0.72150  1.0000 0.6256046219
C   C73       1.0  0.91620  0.17110  0.25270  1.0000 0.1694829284
C   C74       1.0  0.97800  0.10210  0.41590  1.0000 -0.3303700046
C   C75       1.0  0.00090  0.14210  0.39120  1.0000 0.2259321174
C   C76       1.0  0.08770  0.17730  0.43850  1.0000 -0.4926980512
C   C77       1.0  0.88430  0.08080  0.35030  1.0000 0.2819070293
C   C78       1.0  0.82380  0.03570  0.34480  1.0000 -0.44043123
C   C79       1.0  0.07670  0.72900  0.36680  1.0000 -0.0874416718
C   C80       1.0  0.40570  0.87410  0.52970  1.0000 0.5321566238
C   C81       1.0  0.07050  0.65820  0.32360  1.0000 -0.1553483979
C   C82       1.0  0.12400  0.78500  0.27710  1.0000 0.620329134
C   C83       1.0  0.59720  0.74430  0.68780  1.0000 -0.5001444445
C   C84       1.0  0.03590  0.67370  0.45940  1.0000 0.579654388
C   C85       1.0  0.06200  0.68730  0.38020  1.0000 0.0155346066
C   C86       1.0  0.66790  0.86970  0.77730  1.0000 -0.1553483979
C   C87       1.0  0.56870  0.76660  0.89140  1.0000 0.2718269749
C   C88       1.0  0.59860  0.90590  0.65390  1.0000 -0.0577541563
C   C89       1.0  0.49240  0.83640  0.65800  1.0000 -0.1786907633
C   C90       1.0  0.58380  0.73870  0.83610  1.0000 -0.3303700046
C   C91       1.0  0.10070  0.71280  0.23360  1.0000 -0.1786907633
C   C92       1.0  0.09940  0.74070  0.29240  1.0000 -0.0121769807
C   C93       1.0  0.58380  0.75850  0.76520  1.0000 0.2454648054
C   C94       1.0  0.68500  0.90480  0.73600  1.0000 -0.0121769807
C   C95       1.0  0.56680  0.75970  0.97510  1.0000 -0.4761737438
C   C96       1.0  0.50120  0.87180  0.61610  1.0000 0.0016606391
C   C97       1.0  0.57460  0.83540  0.73840  1.0000 0.1610118792
C   C98       1.0  0.79540  0.94010  0.77850  1.0000 0.6256046219
C   C99       1.0  0.08380  0.67110  0.24730  1.0000 0.1694829284
C   C100      1.0  0.02200  0.60210  0.08410  1.0000 -0.3232632455
C   C101      1.0  0.99910  0.64210  0.10880  1.0000 0.2259321174
C   C102      1.0  0.91230  0.67730  0.06150  1.0000 -0.4926980512
C   C103      1.0  0.11570  0.58080  0.14970  1.0000 0.2819070293
C   C104      1.0  0.17620  0.53570  0.15520  1.0000 -0.44043123
N   N1        1.0  0.56160  0.69460  0.36280  1.0000 -0.2760623301
N   N2        1.0  0.56480  0.69930  0.28480  1.0000 0.0758415832
N   N3        1.0  0.07930  0.85970  0.68970  1.0000 0.0734837128
N   N4        1.0  0.15030  0.89700  0.71560  1.0000 -0.2760623301
N   N5        1.0  0.43840  0.19460  0.13720  1.0000 -0.2760623301
N   N6        1.0  0.43520  0.19930  0.21520  1.0000 0.0758415832
N   N7        1.0  0.92070  0.35970  0.81030  1.0000 0.0734837128
N   N8        1.0  0.84970  0.39700  0.78440  1.0000 -0.2760623301
N   N9        1.0  0.43840  0.30540  0.63720  1.0000 -0.2760623301
N   N10       1.0  0.43520  0.30070  0.71520  1.0000 0.0758415832
N   N11       1.0  0.92070  0.14030  0.31030  1.0000 0.0734837128
N   N12       1.0  0.84970  0.10300  0.28440  1.0000 -0.2760623301
N   N13       1.0  0.56160  0.80540  0.86280  1.0000 -0.2760623301
N   N14       1.0  0.56480  0.80070  0.78480  1.0000 0.0758415832
N   N15       1.0  0.07930  0.64030  0.18970  1.0000 0.0734837128
N   N16       1.0  0.15030  0.60300  0.21560  1.0000 -0.2740631775
O   O1        1.0  0.01100  0.86350  0.97050  1.0000 -0.6115312131
O   O2        1.0  0.46600  0.63390  0.84890  1.0000 -0.6184414999
O   O3        1.0  0.89470  0.53590  0.70860  1.0000 -0.5993434743
O   O4        1.0  0.32800  0.64710  0.62670  1.0000 -0.5909443176
O   O5        1.0  0.82240  0.65480  0.61380  1.0000 -0.5993434743
O   O6        1.0  0.13430  0.70490  0.70770  1.0000 -0.6184414999
O   O7        1.0  0.40340  0.59290  0.99230  1.0000 -0.5209704416
O   O8        1.0  0.33700  0.65840  0.99250  1.0000 -0.5909443176
O   O9        1.0  0.00300  0.61180  0.88230  1.0000 -0.5993434743
O   O10       1.0  0.37580  0.54800  0.68830  1.0000 -0.5704582707
O   O11       1.0  0.12800  0.69000  0.83090  1.0000 -0.5704582707
O   O12       1.0  0.03560  0.58510  0.59230  1.0000 -1.098738976
O   O13       1.0  0.23990  0.55560  0.47920  1.0000 -0.6115312131
O   O14       1.0  0.26700  0.55320  0.83550  1.0000 -0.8029710876
O   O15       1.0  0.05080  0.80070  0.01330  1.0000 -0.5498267488
O   O16       1.0  0.76830  0.52490  0.25000  1.0000 -0.5341865496
O   O17       1.0  0.91670  0.56810  0.34250  1.0000 -0.5846893267
O   O18       1.0  0.72410  0.55630  0.46730  1.0000 -0.6461618619
O   O19       1.0  0.11280  0.61300  0.73510  1.0000 -1.1133786874
O   O20       1.0  0.95670  0.49300  0.42120  1.0000 -1.1133786874
O   O21       1.0  0.98900  0.36350  0.52950  1.0000 -0.6115312131
O   O22       1.0  0.53400  0.13390  0.65110  1.0000 -0.6184414999
O   O23       1.0  0.10530  0.03590  0.79140  1.0000 -0.5909443176
O   O24       1.0  0.67200  0.14710  0.87330  1.0000 -0.5909443176
O   O25       1.0  0.17760  0.15480  0.88620  1.0000 -0.5993434743
O   O26       1.0  0.86570  0.20490  0.79230  1.0000 -0.6184414999
O   O27       1.0  0.59660  0.09290  0.50770  1.0000 -0.5209704416
O   O28       1.0  0.66300  0.15840  0.50750  1.0000 -0.5846893267
O   O29       1.0  0.99700  0.11180  0.61770  1.0000 -0.5993434743
O   O30       1.0  0.62420  0.04800  0.81170  1.0000 -0.5704582707
O   O31       1.0  0.87200  0.19000  0.66910  1.0000 -0.5704582707
O   O32       1.0  0.96440  0.08510  0.90770  1.0000 -1.098738976
O   O33       1.0  0.76010  0.05560  0.02080  1.0000 -0.6115312131
O   O34       1.0  0.73300  0.05320  0.66450  1.0000 -0.8029710876
O   O35       1.0  0.94920  0.30070  0.48670  1.0000 -0.5498267488
O   O36       1.0  0.23170  0.02490  0.25000  1.0000 -0.5341865496
O   O37       1.0  0.08330  0.06810  0.15750  1.0000 -0.5909443176
O   O38       1.0  0.27590  0.05630  0.03270  1.0000 -0.6461618619
O   O39       1.0  0.88720  0.11300  0.76490  1.0000 -1.1177383936
O   O40       1.0  0.04330  0.99300  0.07880  1.0000 -1.1133786874
O   O41       1.0  0.98900  0.13650  0.02950  1.0000 -0.6115312131
O   O42       1.0  0.53400  0.36610  0.15110  1.0000 -0.6184414999
O   O43       1.0  0.10530  0.46410  0.29140  1.0000 -0.5909443176
O   O44       1.0  0.67200  0.35290  0.37330  1.0000 -0.5909443176
O   O45       1.0  0.17760  0.34520  0.38620  1.0000 -0.5993434743
O   O46       1.0  0.86570  0.29510  0.29230  1.0000 -0.6184414999
O   O47       1.0  0.59660  0.40710  0.00770  1.0000 -0.5209704416
O   O48       1.0  0.66300  0.34160  0.00750  1.0000 -0.5846893267
O   O49       1.0  0.99700  0.38820  0.11770  1.0000 -0.5993434743
O   O50       1.0  0.62420  0.45200  0.31170  1.0000 -0.5704582707
O   O51       1.0  0.87200  0.31000  0.16910  1.0000 -0.5704582707
O   O52       1.0  0.96440  0.41490  0.40770  1.0000 -1.098738976
O   O53       1.0  0.76010  0.44440  0.52080  1.0000 -0.6115312131
O   O54       1.0  0.73300  0.44680  0.16450  1.0000 -0.8029710876
O   O55       1.0  0.94920  0.19930  0.98670  1.0000 -0.5498267488
O   O56       1.0  0.23170  0.47510  0.75000  1.0000 -0.5341865496
O   O57       1.0  0.08330  0.43190  0.65750  1.0000 -0.5846893267
O   O58       1.0  0.27590  0.44370  0.53270  1.0000 -0.6433902459
O   O59       1.0  0.88720  0.38700  0.26490  1.0000 -1.1177383936
O   O60       1.0  0.04330  0.50700  0.57880  1.0000 -1.1177383936
O   O61       1.0  0.01100  0.63650  0.47050  1.0000 -0.6115312131
O   O62       1.0  0.46600  0.86610  0.34890  1.0000 -0.6184414999
O   O63       1.0  0.89470  0.96410  0.20860  1.0000 -0.5993434743
O   O64       1.0  0.32800  0.85290  0.12670  1.0000 -0.5909443176
O   O65       1.0  0.82240  0.84520  0.11380  1.0000 -0.5993434743
O   O66       1.0  0.13430  0.79510  0.20770  1.0000 -0.6184414999
O   O67       1.0  0.40340  0.90710  0.49230  1.0000 -0.5209704416
O   O68       1.0  0.33700  0.84160  0.49250  1.0000 -0.5909443176
O   O69       1.0  0.00300  0.88820  0.38230  1.0000 -0.5993434743
O   O70       1.0  0.37580  0.95200  0.18830  1.0000 -0.5704582707
O   O71       1.0  0.12800  0.81000  0.33090  1.0000 -0.5704582707
O   O72       1.0  0.03560  0.91490  0.09230  1.0000 -1.098738976
O   O73       1.0  0.23990  0.94440  0.97920  1.0000 -0.6115312131
O   O74       1.0  0.26700  0.94680  0.33550  1.0000 -0.8029710876
O   O75       1.0  0.05080  0.69930  0.51330  1.0000 -0.5498267488
O   O76       1.0  0.76830  0.97510  0.75000  1.0000 -0.5341865496
O   O77       1.0  0.91670  0.93190  0.84250  1.0000 -0.5846893267
O   O78       1.0  0.72410  0.94370  0.96730  1.0000 -0.6461618619
O   O79       1.0  0.11280  0.88700  0.23510  1.0000 -1.1133786874
O   O80       1.0  0.95670  0.00700  0.92120  1.0000 -1.1133786874
