# DDEC6 charges by PACMAN v1.1 (https://github.com/mtap-research/PACMAN-charge/)
data_2021[Al][nan]3[FSR]7
_chemical_formula_sum              "Al8 H24 C40 N16 O40"
_cell_length_a       12.294
_cell_length_b       14.781
_cell_length_c       14.029
_cell_angle_alpha    90
_cell_angle_beta     102.105
_cell_angle_gamma    90

_symmetry_space_group_name_H-M    "P 1"
_symmetry_Int_Tables_number       1

loop_
  _symmetry_equiv_pos_as_xyz
  'x, y, z'

loop_
  _atom_site_type_symbol
  _atom_site_label
  _atom_site_symmetry_multiplicity
  _atom_site_fract_x
  _atom_site_fract_y
  _atom_site_fract_z
  _atom_site_occupancy
  _atom_site_charge
Al  Al1       1.0  0.23614  0.43887  0.44105  1.0000 1.6129807899
Al  Al2       1.0  0.76386  0.93887  0.05895  1.0000 1.6129807899
Al  Al3       1.0  0.76386  0.56113  0.55895  1.0000 1.6129807899
Al  Al4       1.0  0.23614  0.06113  0.94105  1.0000 1.6129807899
Al  Al5       1.0  0.50000  0.50000  0.50000  1.0000 1.6301377485
Al  Al6       1.0  0.50000  0.00000  0.00000  1.0000 1.6301377485
Al  Al7       1.0  0.00000  0.50000  0.50000  1.0000 1.6301377485
Al  Al8       1.0  0.00000  0.00000  0.00000  1.0000 1.6301377485
H   H1        1.0  0.32856  0.57626  0.50054  1.0000 0.4304026136
H   H2        1.0  0.18859  0.48715  0.59041  1.0000 0.4304026136
H   H3        1.0  0.59062  0.26127  0.14106  1.0000 0.2800243268
H   H4        1.0  0.21442  0.63217  0.22063  1.0000 0.2800243268
H   H5        1.0  0.91698  0.70761  0.24883  1.0000 0.1715427036
H   H6        1.0  0.28586  0.27446  0.18362  1.0000 0.1715427036
H   H7        1.0  0.67144  0.07626  0.99946  1.0000 0.4304026136
H   H8        1.0  0.81141  0.98715  0.90959  1.0000 0.4304026136
H   H9        1.0  0.40938  0.76127  0.35894  1.0000 0.2800243268
H   H10       1.0  0.78558  0.13217  0.27937  1.0000 0.2800243268
H   H11       1.0  0.08302  0.20761  0.25117  1.0000 0.1715427036
H   H12       1.0  0.71414  0.77446  0.31638  1.0000 0.1715427036
H   H13       1.0  0.67144  0.42374  0.49946  1.0000 0.4304026136
H   H14       1.0  0.81141  0.51285  0.40959  1.0000 0.4304026136
H   H15       1.0  0.40938  0.73873  0.85894  1.0000 0.2800243268
H   H16       1.0  0.78558  0.36783  0.77937  1.0000 0.2800243268
H   H17       1.0  0.08302  0.29239  0.75117  1.0000 0.1715427036
H   H18       1.0  0.71414  0.72554  0.81638  1.0000 0.1715427036
H   H19       1.0  0.32856  0.92374  0.00054  1.0000 0.4304026136
H   H20       1.0  0.18859  0.01285  0.09041  1.0000 0.4304026136
H   H21       1.0  0.59062  0.23873  0.64106  1.0000 0.2800243268
H   H22       1.0  0.21442  0.86783  0.72063  1.0000 0.2800243268
H   H23       1.0  0.91698  0.79239  0.74883  1.0000 0.1715427036
H   H24       1.0  0.28586  0.22554  0.68362  1.0000 0.1715427036
C   C1        1.0  0.43240  0.34413  0.24815  1.0000 0.0300801087
C   C2        1.0  0.43087  0.24167  0.13554  1.0000 0.0300801087
C   C3        1.0  0.02578  0.75917  0.16398  1.0000 0.0300801087
C   C4        1.0  0.40613  0.16566  0.06616  1.0000 0.6013259361
C   C5        1.0  0.08266  0.57050  0.33425  1.0000 0.6013259361
C   C6        1.0  0.40677  0.40055  0.32753  1.0000 0.6184360454
C   C7        1.0  0.98580  0.70381  0.22991  1.0000 -0.2334070211
C   C8        1.0  0.97136  0.83858  0.11115  1.0000 0.6184360454
C   C9        1.0  0.06989  0.64265  0.26068  1.0000 0.0167505992
C   C10       1.0  0.36231  0.28396  0.18775  1.0000 -0.2334070211
C   C11       1.0  0.56760  0.84413  0.25185  1.0000 0.0300801087
C   C12       1.0  0.56913  0.74167  0.36446  1.0000 0.0300801087
C   C13       1.0  0.97422  0.25917  0.33602  1.0000 0.0300801087
C   C14       1.0  0.59387  0.66566  0.43384  1.0000 0.6013259361
C   C15       1.0  0.91734  0.07050  0.16575  1.0000 0.6013259361
C   C16       1.0  0.59323  0.90055  0.17247  1.0000 0.6184360454
C   C17       1.0  0.01420  0.20381  0.27009  1.0000 -0.2334070211
C   C18       1.0  0.02864  0.33858  0.38885  1.0000 0.6184360454
C   C19       1.0  0.93011  0.14265  0.23932  1.0000 0.0167505992
C   C20       1.0  0.63769  0.78396  0.31225  1.0000 -0.2334070211
C   C21       1.0  0.56760  0.65587  0.75185  1.0000 0.0300801087
C   C22       1.0  0.56913  0.75833  0.86446  1.0000 0.0300801087
C   C23       1.0  0.97422  0.24083  0.83602  1.0000 0.0300801087
C   C24       1.0  0.59387  0.83434  0.93384  1.0000 0.6013259361
C   C25       1.0  0.91734  0.42950  0.66575  1.0000 0.6013259361
C   C26       1.0  0.59323  0.59945  0.67247  1.0000 0.6184360454
C   C27       1.0  0.01420  0.29619  0.77009  1.0000 -0.2334070211
C   C28       1.0  0.02864  0.16142  0.88885  1.0000 0.6184360454
C   C29       1.0  0.93011  0.35735  0.73932  1.0000 0.0167505992
C   C30       1.0  0.63769  0.71604  0.81225  1.0000 -0.2334070211
C   C31       1.0  0.43240  0.15587  0.74815  1.0000 0.0300801087
C   C32       1.0  0.43087  0.25833  0.63554  1.0000 0.0300801087
C   C33       1.0  0.02578  0.74083  0.66398  1.0000 0.0300801087
C   C34       1.0  0.40613  0.33434  0.56616  1.0000 0.6013259361
C   C35       1.0  0.08266  0.92950  0.83425  1.0000 0.6013259361
C   C36       1.0  0.40677  0.09945  0.82753  1.0000 0.6184360454
C   C37       1.0  0.98580  0.79619  0.72991  1.0000 -0.2334070211
C   C38       1.0  0.97136  0.66142  0.61115  1.0000 0.6184360454
C   C39       1.0  0.06989  0.85735  0.76068  1.0000 0.0167505992
C   C40       1.0  0.36231  0.21604  0.68775  1.0000 -0.2334070211
N   N1        1.0  0.53330  0.27762  0.16425  1.0000 -0.0611022413
N   N2        1.0  0.12786  0.73382  0.15479  1.0000 -0.1951638987
N   N3        1.0  0.15255  0.66247  0.21347  1.0000 -0.0611022413
N   N4        1.0  0.53659  0.34123  0.23242  1.0000 -0.1915965955
N   N5        1.0  0.46670  0.77762  0.33575  1.0000 -0.0611022413
N   N6        1.0  0.87214  0.23382  0.34521  1.0000 -0.1951638987
N   N7        1.0  0.84745  0.16247  0.28653  1.0000 -0.0611022413
N   N8        1.0  0.46341  0.84123  0.26758  1.0000 -0.1915965955
N   N9        1.0  0.46670  0.72238  0.83575  1.0000 -0.0611022413
N   N10       1.0  0.87214  0.26618  0.84521  1.0000 -0.1915965955
N   N11       1.0  0.84745  0.33753  0.78653  1.0000 -0.0611022413
N   N12       1.0  0.46341  0.65877  0.76758  1.0000 -0.1915965955
N   N13       1.0  0.53330  0.22238  0.66425  1.0000 -0.0650725668
N   N14       1.0  0.12786  0.76618  0.65479  1.0000 -0.1915965955
N   N15       1.0  0.15255  0.83753  0.71347  1.0000 -0.0611022413
N   N16       1.0  0.53659  0.15877  0.73242  1.0000 -0.1915965955
O   O1        1.0  0.31171  0.39012  0.34530  1.0000 -0.5608775384
O   O2        1.0  0.35000  0.51820  0.48423  1.0000 -1.0129208495
O   O3        1.0  0.87013  0.84887  0.11263  1.0000 -0.5608775384
O   O4        1.0  0.15068  0.47757  0.52572  1.0000 -1.0191829732
O   O5        1.0  0.16784  0.52132  0.34207  1.0000 -0.5876902944
O   O6        1.0  0.48271  0.45088  0.37248  1.0000 -0.569270507
O   O7        1.0  0.48777  0.12020  0.05155  1.0000 -0.5876902944
O   O8        1.0  0.03034  0.88990  0.07159  1.0000 -0.569270507
O   O9        1.0  0.30515  0.15249  0.03010  1.0000 -0.5608775384
O   O10       1.0  0.00843  0.56459  0.38313  1.0000 -0.5521168878
O   O11       1.0  0.68829  0.89012  0.15470  1.0000 -0.5608775384
O   O12       1.0  0.65000  0.01820  0.01577  1.0000 -1.0129208495
O   O13       1.0  0.12987  0.34887  0.38737  1.0000 -0.5608775384
O   O14       1.0  0.84932  0.97757  0.97428  1.0000 -1.0191829732
O   O15       1.0  0.83216  0.02132  0.15793  1.0000 -0.5876902944
O   O16       1.0  0.51729  0.95088  0.12752  1.0000 -0.569270507
O   O17       1.0  0.51223  0.62020  0.44845  1.0000 -0.5876902944
O   O18       1.0  0.96966  0.38990  0.42841  1.0000 -0.569270507
O   O19       1.0  0.69485  0.65249  0.46990  1.0000 -0.5521168878
O   O20       1.0  0.99157  0.06459  0.11687  1.0000 -0.5521168878
O   O21       1.0  0.68829  0.60988  0.65470  1.0000 -0.5608775384
O   O22       1.0  0.65000  0.48180  0.51577  1.0000 -1.0129208495
O   O23       1.0  0.12987  0.15113  0.88737  1.0000 -0.5608775384
O   O24       1.0  0.84932  0.52243  0.47428  1.0000 -1.0191829732
O   O25       1.0  0.83216  0.47868  0.65793  1.0000 -0.5876902944
O   O26       1.0  0.51729  0.54912  0.62752  1.0000 -0.569270507
O   O27       1.0  0.51223  0.87980  0.94845  1.0000 -0.5876902944
O   O28       1.0  0.96966  0.11010  0.92841  1.0000 -0.569270507
O   O29       1.0  0.69485  0.84751  0.96990  1.0000 -0.5608775384
O   O30       1.0  0.99157  0.43541  0.61687  1.0000 -0.5521168878
O   O31       1.0  0.31171  0.10988  0.84530  1.0000 -0.5608775384
O   O32       1.0  0.35000  0.98180  0.98423  1.0000 -1.0129208495
O   O33       1.0  0.87013  0.65113  0.61263  1.0000 -0.5608775384
O   O34       1.0  0.15068  0.02243  0.02572  1.0000 -1.0191829732
O   O35       1.0  0.16784  0.97868  0.84207  1.0000 -0.5876902944
O   O36       1.0  0.48271  0.04912  0.87248  1.0000 -0.569270507
O   O37       1.0  0.48777  0.37980  0.55155  1.0000 -0.5876902944
O   O38       1.0  0.03034  0.61010  0.57159  1.0000 -0.569270507
O   O39       1.0  0.30515  0.34751  0.53010  1.0000 -0.5608775384
O   O40       1.0  0.00843  0.93541  0.88313  1.0000 -0.5521168878
