# DDEC6 charges by PACMAN v1.1 (https://github.com/mtap-research/PACMAN-charge/)
data_2021[Mg][nan]2[FSR]1
_chemical_formula_sum              "Mg3 H52 C88 O20"
_cell_length_a       11.9926
_cell_length_b       12.1455
_cell_length_c       16.4736
_cell_angle_alpha    84.694
_cell_angle_beta     84.458
_cell_angle_gamma    78.82

_symmetry_space_group_name_H-M    "P 1"
_symmetry_Int_Tables_number       1

loop_
  _symmetry_equiv_pos_as_xyz
  'x, y, z'

loop_
  _atom_site_type_symbol
  _atom_site_label
  _atom_site_symmetry_multiplicity
  _atom_site_fract_x
  _atom_site_fract_y
  _atom_site_fract_z
  _atom_site_occupancy
  _atom_site_charge
Mg  Mg1       1.0  0.97578  0.20770  0.00995  1.0000 1.3780769304
Mg  Mg2       1.0  0.02422  0.79230  0.99005  1.0000 1.3780769304
Mg  Mg3       1.0  0.00000  0.50000  0.00000  1.0000 1.3918557958
H   H1        1.0  0.89742  0.66807  0.07903  1.0000 0.3936945097
H   H2        1.0  0.85590  0.68557  0.99092  1.0000 0.402383943
H   H3        1.0  0.89506  0.04007  0.98211  1.0000 0.3077354328
H   H4        1.0  0.90637  0.01342  0.05121  1.0000 0.3013894902
H   H5        1.0  0.77227  0.28715  0.80252  1.0000 0.1214120546
H   H6        1.0  0.69983  0.35160  0.67761  1.0000 0.1214120546
H   H7        1.0  0.76049  0.65888  0.70591  1.0000 0.1214120546
H   H8        1.0  0.82136  0.59830  0.83473  1.0000 0.1379062598
H   H9        1.0  0.77937  0.43550  0.53628  1.0000 0.1277961032
H   H10       1.0  0.58997  0.62853  0.31815  1.0000 0.1277961032
H   H11       1.0  0.45135  0.78332  0.30218  1.0000 0.1277961032
H   H12       1.0  0.23094  0.03644  0.47379  1.0000 0.1379062598
H   H13       1.0  0.41338  0.83761  0.69530  1.0000 0.1277961032
H   H14       1.0  0.55386  0.68450  0.71014  1.0000 0.1214120546
H   H15       1.0  0.74410  0.29513  0.25127  1.0000 0.1214120546
H   H16       1.0  0.65407  0.36554  0.37011  1.0000 0.1131101893
H   H17       1.0  0.87514  0.57499  0.36607  1.0000 0.1277961032
H   H18       1.0  0.96159  0.50996  0.24471  1.0000 0.1277961032
H   H19       1.0  0.14390  0.94223  0.18416  1.0000 0.1379062598
H   H20       1.0  0.20883  0.85128  0.30428  1.0000 0.1214120546
H   H21       1.0  0.37285  0.10105  0.33233  1.0000 0.1214120546
H   H22       1.0  0.32025  0.18494  0.20698  1.0000 0.1214120546
H   H23       1.0  0.33650  0.13230  0.60539  1.0000 0.1214120546
H   H24       1.0  0.25300  0.22799  0.71572  1.0000 0.1214120546
H   H25       1.0  0.08162  0.97821  0.79023  1.0000 0.1379062598
H   H26       1.0  0.16409  0.88334  0.67901  1.0000 0.1277961032
H   H27       1.0  0.10258  0.33193  0.92097  1.0000 0.3936945097
H   H28       1.0  0.14410  0.31443  0.00908  1.0000 0.402383943
H   H29       1.0  0.10494  0.95993  0.01789  1.0000 0.3077354328
H   H30       1.0  0.09363  0.98658  0.94879  1.0000 0.3013894902
H   H31       1.0  0.22773  0.71285  0.19748  1.0000 0.1214120546
H   H32       1.0  0.30017  0.64840  0.32239  1.0000 0.1214120546
H   H33       1.0  0.23951  0.34112  0.29409  1.0000 0.1214120546
H   H34       1.0  0.17864  0.40170  0.16527  1.0000 0.1379062598
H   H35       1.0  0.22063  0.56450  0.46372  1.0000 0.1277961032
H   H36       1.0  0.41003  0.37147  0.68185  1.0000 0.1277961032
H   H37       1.0  0.54865  0.21668  0.69782  1.0000 0.1277961032
H   H38       1.0  0.76906  0.96356  0.52621  1.0000 0.1379062598
H   H39       1.0  0.58662  0.16239  0.30470  1.0000 0.1277961032
H   H40       1.0  0.44614  0.31550  0.28986  1.0000 0.1214120546
H   H41       1.0  0.25590  0.70487  0.74873  1.0000 0.1214120546
H   H42       1.0  0.34593  0.63446  0.62989  1.0000 0.1131101893
H   H43       1.0  0.12486  0.42501  0.63393  1.0000 0.1277961032
H   H44       1.0  0.03841  0.49004  0.75529  1.0000 0.1277961032
H   H45       1.0  0.85610  0.05777  0.81584  1.0000 0.1379062598
H   H46       1.0  0.79117  0.14872  0.69572  1.0000 0.1214120546
H   H47       1.0  0.62715  0.89895  0.66767  1.0000 0.1214120546
H   H48       1.0  0.67975  0.81506  0.79302  1.0000 0.1214120546
H   H49       1.0  0.66350  0.86770  0.39461  1.0000 0.1214120546
H   H50       1.0  0.74700  0.77201  0.28428  1.0000 0.1214120546
H   H51       1.0  0.91838  0.02179  0.20977  1.0000 0.1379062598
H   H52       1.0  0.83591  0.11666  0.32099  1.0000 0.1277961032
C   C1        1.0  0.83750  0.39750  0.91660  1.0000 0.6186785297
C   C2        1.0  0.79970  0.43610  0.83260  1.0000 -0.0134349401
C   C3        1.0  0.76660  0.36270  0.78440  1.0000 -0.0915897368
C   C4        1.0  0.72460  0.40110  0.70860  1.0000 -0.1500384787
C   C5        1.0  0.71980  0.51310  0.67910  1.0000 0.0788092908
C   C6        1.0  0.75950  0.58510  0.72630  1.0000 -0.1500384787
C   C7        1.0  0.79760  0.54870  0.80330  1.0000 -0.0739718816
C   C8        1.0  0.67440  0.55460  0.59880  1.0000 0.0317997731
C   C9        1.0  0.72240  0.49880  0.52990  1.0000 -0.1763804509
C   C10       1.0  0.68810  0.53440  0.45250  1.0000 0.0317997731
C   C11       1.0  0.59750  0.62740  0.44160  1.0000 0.0317997731
C   C12       1.0  0.55780  0.66667  0.36370  1.0000 -0.1397207896
C   C13       1.0  0.47370  0.75880  0.35430  1.0000 -0.1397207896
C   C14       1.0  0.41960  0.81810  0.42130  1.0000 0.0317997731
C   C15       1.0  0.33490  0.91550  0.41350  1.0000 0.0317997731
C   C16       1.0  0.28620  0.97190  0.48100  1.0000 -0.1763804509
C   C17       1.0  0.31760  0.93470  0.55990  1.0000 0.0317997731
C   C18       1.0  0.40540  0.83870  0.57010  1.0000 0.0317997731
C   C19       1.0  0.44580  0.79980  0.64970  1.0000 -0.1397207896
C   C20       1.0  0.53040  0.70870  0.65820  1.0000 -0.1397207896
C   C21       1.0  0.58440  0.64910  0.59070  1.0000 0.0317997731
C   C22       1.0  0.54580  0.68450  0.51130  1.0000 -0.0026290862
C   C23       1.0  0.45630  0.78010  0.50180  1.0000 -0.0026290862
C   C24       1.0  0.91340  0.36680  0.15050  1.0000 0.6266792612
C   C25       1.0  0.86170  0.39670  0.23380  1.0000 -0.0180898188
C   C26       1.0  0.76930  0.35290  0.27330  1.0000 -0.1001907094
C   C27       1.0  0.71550  0.39530  0.34460  1.0000 -0.1397207896
C   C28       1.0  0.75100  0.48140  0.37960  1.0000 0.0727251516
C   C29       1.0  0.84680  0.52090  0.34200  1.0000 -0.1397207896
C   C30       1.0  0.89970  0.48070  0.26980  1.0000 -0.0769189085
C   C31       1.0  0.18440  0.13790  0.10500  1.0000 0.5923434393
C   C32       1.0  0.22520  0.07390  0.18210  1.0000 -0.0180898188
C   C33       1.0  0.19180  0.97340  0.21280  1.0000 -0.0739718816
C   C34       1.0  0.22960  0.91970  0.28570  1.0000 -0.1500384787
C   C35       1.0  0.29790  0.96580  0.33190  1.0000 0.0788092908
C   C36       1.0  0.32910  0.06740  0.30200  1.0000 -0.1397207896
C   C37       1.0  0.29540  0.11900  0.22720  1.0000 -0.1001907094
C   C38       1.0  0.26140  0.99730  0.63010  1.0000 0.0788092908
C   C39       1.0  0.28560  0.10090  0.64240  1.0000 -0.1397207896
C   C40       1.0  0.23560  0.15830  0.70880  1.0000 -0.1001907094
C   C41       1.0  0.15860  0.11350  0.76620  1.0000 -0.0301166391
C   C42       1.0  0.13290  0.00930  0.75340  1.0000 -0.0769189085
C   C43       1.0  0.18260  0.95230  0.68680  1.0000 -0.1397207896
C   C44       1.0  0.11250  0.17760  0.83840  1.0000 0.5923434393
C   C45       1.0  0.16250  0.60250  0.08340  1.0000 0.6186785297
C   C46       1.0  0.20030  0.56390  0.16740  1.0000 -0.0134349401
C   C47       1.0  0.23340  0.63730  0.21560  1.0000 -0.0915897368
C   C48       1.0  0.27540  0.59890  0.29140  1.0000 -0.1500384787
C   C49       1.0  0.28020  0.48690  0.32090  1.0000 0.0788092908
C   C50       1.0  0.24050  0.41490  0.27370  1.0000 -0.1500384787
C   C51       1.0  0.20240  0.45130  0.19670  1.0000 -0.0739718816
C   C52       1.0  0.32560  0.44540  0.40120  1.0000 0.0317997731
C   C53       1.0  0.27760  0.50120  0.47010  1.0000 -0.1763804509
C   C54       1.0  0.31190  0.46560  0.54750  1.0000 0.0317997731
C   C55       1.0  0.40250  0.37260  0.55840  1.0000 0.0317997731
C   C56       1.0  0.44220  0.33333  0.63630  1.0000 -0.1397207896
C   C57       1.0  0.52630  0.24120  0.64570  1.0000 -0.1397207896
C   C58       1.0  0.58040  0.18190  0.57870  1.0000 0.0317997731
C   C59       1.0  0.66510  0.08450  0.58650  1.0000 0.0317997731
C   C60       1.0  0.71380  0.02810  0.51900  1.0000 -0.1763804509
C   C61       1.0  0.68240  0.06530  0.44010  1.0000 0.0317997731
C   C62       1.0  0.59460  0.16130  0.42990  1.0000 0.0317997731
C   C63       1.0  0.55420  0.20020  0.35030  1.0000 -0.1397207896
C   C64       1.0  0.46960  0.29130  0.34180  1.0000 -0.1397207896
C   C65       1.0  0.41560  0.35090  0.40930  1.0000 0.0317997731
C   C66       1.0  0.45420  0.31550  0.48870  1.0000 -0.0026290862
C   C67       1.0  0.54370  0.21990  0.49820  1.0000 -0.0026290862
C   C68       1.0  0.08660  0.63320  0.84950  1.0000 0.6266792612
C   C69       1.0  0.13830  0.60330  0.76620  1.0000 -0.0180898188
C   C70       1.0  0.23070  0.64710  0.72670  1.0000 -0.1001907094
C   C71       1.0  0.28450  0.60470  0.65540  1.0000 -0.1397207896
C   C72       1.0  0.24900  0.51860  0.62040  1.0000 0.0727251516
C   C73       1.0  0.15320  0.47910  0.65800  1.0000 -0.1397207896
C   C74       1.0  0.10030  0.51930  0.73020  1.0000 -0.0769189085
C   C75       1.0  0.81560  0.86210  0.89500  1.0000 0.5923434393
C   C76       1.0  0.77480  0.92610  0.81790  1.0000 -0.0180898188
C   C77       1.0  0.80820  0.02660  0.78720  1.0000 -0.0739718816
C   C78       1.0  0.77040  0.08030  0.71430  1.0000 -0.1500384787
C   C79       1.0  0.70210  0.03420  0.66810  1.0000 0.0788092908
C   C80       1.0  0.67090  0.93260  0.69800  1.0000 -0.1397207896
C   C81       1.0  0.70460  0.88100  0.77280  1.0000 -0.1001907094
C   C82       1.0  0.73860  0.00270  0.36990  1.0000 0.0788092908
C   C83       1.0  0.71440  0.89910  0.35760  1.0000 -0.1397207896
C   C84       1.0  0.76440  0.84170  0.29120  1.0000 -0.1001907094
C   C85       1.0  0.84140  0.88650  0.23380  1.0000 -0.0301166391
C   C86       1.0  0.86710  0.99070  0.24660  1.0000 -0.0769189085
C   C87       1.0  0.81740  0.04770  0.31320  1.0000 -0.1397207896
C   C88       1.0  0.88750  0.82240  0.16160  1.0000 0.5923434393
O   O1        1.0  0.85290  0.29370  0.93690  1.0000 -0.6209584876
O   O2        1.0  0.84930  0.47220  0.96200  1.0000 -0.6209584876
O   O3        1.0  0.89980  0.27770  0.12080  1.0000 -0.6299341523
O   O4        1.0  0.96570  0.43900  0.11360  1.0000 -0.6299341523
O   O5        1.0  0.05670  0.13030  0.89810  1.0000 -0.6299341523
O   O6        1.0  0.13100  0.27520  0.83700  1.0000 -0.5142828627
O   O7        1.0  0.10310  0.10670  0.07420  1.0000 -0.6381942435
O   O8        1.0  0.22800  0.22050  0.07790  1.0000 -0.5255284114
O   O9        1.0  0.92310  0.66590  0.02140  1.0000 -0.8857058986
O   O10       1.0  0.88420  0.07770  0.02530  1.0000 -0.7115054531
O   O11       1.0  0.14710  0.70630  0.06310  1.0000 -0.6209584876
O   O12       1.0  0.15070  0.52780  0.03800  1.0000 -0.6209584876
O   O13       1.0  0.10020  0.72230  0.87920  1.0000 -0.6299341523
O   O14       1.0  0.03430  0.56100  0.88640  1.0000 -0.6299341523
O   O15       1.0  0.94330  0.86970  0.10190  1.0000 -0.6299341523
O   O16       1.0  0.86900  0.72480  0.16300  1.0000 -0.5142828627
O   O17       1.0  0.89690  0.89330  0.92580  1.0000 -0.6381942435
O   O18       1.0  0.77200  0.77950  0.92210  1.0000 -0.5255284114
O   O19       1.0  0.07690  0.33410  0.97860  1.0000 -0.8857058986
O   O20       1.0  0.11580  0.92230  0.97470  1.0000 -0.7115054531
