# DDEC6 charges by PACMAN v1.1 (https://github.com/mtap-research/PACMAN-charge/)
data_2021[Al][nan]3[FSR]12
_chemical_formula_sum              "Al8 H24 C40 N16 O40"
_cell_length_a       12.292
_cell_length_b       14.956
_cell_length_c       13.882
_cell_angle_alpha    90
_cell_angle_beta     102.479
_cell_angle_gamma    90

_symmetry_space_group_name_H-M    "P 1"
_symmetry_Int_Tables_number       1

loop_
  _symmetry_equiv_pos_as_xyz
  'x, y, z'

loop_
  _atom_site_type_symbol
  _atom_site_label
  _atom_site_symmetry_multiplicity
  _atom_site_fract_x
  _atom_site_fract_y
  _atom_site_fract_z
  _atom_site_occupancy
  _atom_site_charge
Al  Al1       1.0  0.23538  0.56016  0.43959  1.0000 1.6148520542
Al  Al2       1.0  0.76462  0.06016  0.06041  1.0000 1.6148520542
Al  Al3       1.0  0.76462  0.43984  0.56041  1.0000 1.6148520542
Al  Al4       1.0  0.23538  0.93984  0.93959  1.0000 1.6155373884
Al  Al5       1.0  0.50000  0.50000  0.50000  1.0000 1.6332598758
Al  Al6       1.0  0.50000  0.00000  0.00000  1.0000 1.6332598758
Al  Al7       1.0  0.00000  0.50000  0.50000  1.0000 1.6377681923
Al  Al8       1.0  0.00000  0.00000  0.00000  1.0000 1.6377681923
H   H1        1.0  0.32879  0.42461  0.49964  1.0000 0.4290980493
H   H2        1.0  0.18956  0.51271  0.59039  1.0000 0.4290980493
H   H3        1.0  0.28579  0.72548  0.18271  1.0000 0.1714403537
H   H4        1.0  0.59081  0.74283  0.14316  1.0000 0.2795792652
H   H5        1.0  0.08299  0.79088  0.25078  1.0000 0.1714403537
H   H6        1.0  0.78879  0.86894  0.28320  1.0000 0.2795792652
H   H7        1.0  0.67121  0.92461  0.00036  1.0000 0.4290980493
H   H8        1.0  0.81044  0.01271  0.90961  1.0000 0.4290980493
H   H9        1.0  0.71421  0.22548  0.31729  1.0000 0.1714403537
H   H10       1.0  0.40919  0.24283  0.35684  1.0000 0.2795792652
H   H11       1.0  0.91701  0.29088  0.24922  1.0000 0.1714403537
H   H12       1.0  0.21121  0.36894  0.21680  1.0000 0.2795792652
H   H13       1.0  0.67121  0.57539  0.50036  1.0000 0.4290980493
H   H14       1.0  0.81044  0.48729  0.40961  1.0000 0.4290980493
H   H15       1.0  0.71421  0.27452  0.81729  1.0000 0.1714403537
H   H16       1.0  0.40919  0.25717  0.85684  1.0000 0.2795792652
H   H17       1.0  0.91701  0.20912  0.74922  1.0000 0.1714403537
H   H18       1.0  0.21121  0.13106  0.71680  1.0000 0.2795792652
H   H19       1.0  0.32879  0.07539  0.99964  1.0000 0.4290980493
H   H20       1.0  0.18956  0.98729  0.09039  1.0000 0.4290980493
H   H21       1.0  0.28579  0.77452  0.68271  1.0000 0.1714403537
H   H22       1.0  0.59081  0.75717  0.64316  1.0000 0.2795792652
H   H23       1.0  0.08299  0.70912  0.75078  1.0000 0.1714403537
H   H24       1.0  0.78879  0.63106  0.78320  1.0000 0.2795792652
C   C1        1.0  0.40650  0.60030  0.32700  1.0000 0.6175496263
C   C2        1.0  0.43210  0.65790  0.24860  1.0000 0.0289070962
C   C3        1.0  0.02880  0.66110  0.38870  1.0000 0.6175496263
C   C4        1.0  0.36260  0.71710  0.18770  1.0000 -0.231624009
C   C5        1.0  0.97550  0.74050  0.33690  1.0000 0.0202541476
C   C6        1.0  0.42990  0.76090  0.13630  1.0000 0.0202541476
C   C7        1.0  0.01470  0.79530  0.27060  1.0000 -0.231624009
C   C8        1.0  0.40570  0.83570  0.06680  1.0000 0.6000810099
C   C9        1.0  0.93120  0.85750  0.24040  1.0000 0.0202541476
C   C10       1.0  0.91840  0.93000  0.16720  1.0000 0.6000810099
C   C11       1.0  0.59350  0.10030  0.17300  1.0000 0.6175496263
C   C12       1.0  0.56790  0.15790  0.25140  1.0000 0.0289070962
C   C13       1.0  0.97120  0.16110  0.11130  1.0000 0.6175496263
C   C14       1.0  0.63740  0.21710  0.31230  1.0000 -0.231624009
C   C15       1.0  0.02450  0.24050  0.16310  1.0000 0.0202541476
C   C16       1.0  0.57010  0.26090  0.36370  1.0000 0.0202541476
C   C17       1.0  0.98530  0.29530  0.22940  1.0000 -0.231624009
C   C18       1.0  0.59430  0.33570  0.43320  1.0000 0.6000810099
C   C19       1.0  0.06880  0.35750  0.25960  1.0000 0.0202541476
C   C20       1.0  0.08160  0.43000  0.33280  1.0000 0.6000810099
C   C21       1.0  0.59350  0.39970  0.67300  1.0000 0.6175496263
C   C22       1.0  0.56790  0.34210  0.75140  1.0000 0.0289070962
C   C23       1.0  0.97120  0.33890  0.61130  1.0000 0.6175496263
C   C24       1.0  0.63740  0.28290  0.81230  1.0000 -0.231624009
C   C25       1.0  0.02450  0.25950  0.66310  1.0000 0.0202541476
C   C26       1.0  0.57010  0.23910  0.86370  1.0000 0.0202541476
C   C27       1.0  0.98530  0.20470  0.72940  1.0000 -0.231624009
C   C28       1.0  0.59430  0.16430  0.93320  1.0000 0.6000810099
C   C29       1.0  0.06880  0.14250  0.75960  1.0000 0.0202541476
C   C30       1.0  0.08160  0.07000  0.83280  1.0000 0.6000810099
C   C31       1.0  0.40650  0.89970  0.82700  1.0000 0.6175496263
C   C32       1.0  0.43210  0.84210  0.74860  1.0000 0.0289070962
C   C33       1.0  0.02880  0.83890  0.88870  1.0000 0.6175496263
C   C34       1.0  0.36260  0.78290  0.68770  1.0000 -0.231624009
C   C35       1.0  0.97550  0.75950  0.83690  1.0000 0.0202541476
C   C36       1.0  0.42990  0.73910  0.63630  1.0000 0.0202541476
C   C37       1.0  0.01470  0.70470  0.77060  1.0000 -0.231624009
C   C38       1.0  0.40570  0.66430  0.56680  1.0000 0.6000810099
C   C39       1.0  0.93120  0.64250  0.74040  1.0000 0.0202541476
C   C40       1.0  0.91840  0.57000  0.66720  1.0000 0.6000810099
N   N1        1.0  0.53640  0.66160  0.23380  1.0000 -0.1890885177
N   N2        1.0  0.53330  0.72580  0.16570  1.0000 -0.0608290684
N   N3        1.0  0.87390  0.76690  0.34620  1.0000 -0.1890885177
N   N4        1.0  0.84990  0.83810  0.28890  1.0000 -0.0608290684
N   N5        1.0  0.46360  0.16160  0.26620  1.0000 -0.1890885177
N   N6        1.0  0.46670  0.22580  0.33430  1.0000 -0.0608290684
N   N7        1.0  0.12610  0.26690  0.15380  1.0000 -0.1890885177
N   N8        1.0  0.15010  0.33810  0.21110  1.0000 -0.0608290684
N   N9        1.0  0.46360  0.33840  0.76620  1.0000 -0.1890885177
N   N10       1.0  0.46670  0.27420  0.83430  1.0000 -0.0608290684
N   N11       1.0  0.12610  0.23310  0.65380  1.0000 -0.1890885177
N   N12       1.0  0.15010  0.16190  0.71110  1.0000 -0.0608290684
N   N13       1.0  0.53640  0.83840  0.73380  1.0000 -0.1890885177
N   N14       1.0  0.53330  0.77420  0.66570  1.0000 -0.0608290684
N   N15       1.0  0.87390  0.73310  0.84620  1.0000 -0.1890885177
N   N16       1.0  0.84990  0.66190  0.78890  1.0000 -0.0608290684
O   O1        1.0  0.35010  0.48210  0.48340  1.0000 -1.0116166043
O   O2        1.0  0.48210  0.55030  0.37230  1.0000 -0.5703555363
O   O3        1.0  0.51240  0.38200  0.44640  1.0000 -0.5908506083
O   O4        1.0  0.15090  0.52220  0.52500  1.0000 -1.0175354647
O   O5        1.0  0.31030  0.60750  0.34310  1.0000 -0.5580217707
O   O6        1.0  0.16720  0.47760  0.34050  1.0000 -0.5843488144
O   O7        1.0  0.12840  0.64890  0.38550  1.0000 -0.5580217707
O   O8        1.0  0.30480  0.65160  0.52920  1.0000 -0.5528349943
O   O9        1.0  0.00690  0.43680  0.38150  1.0000 -0.5528349943
O   O10       1.0  0.96950  0.61030  0.42890  1.0000 -0.5703555363
O   O11       1.0  0.64990  0.98210  0.01660  1.0000 -1.0116166043
O   O12       1.0  0.51790  0.05030  0.12770  1.0000 -0.5703555363
O   O13       1.0  0.48760  0.88200  0.05360  1.0000 -0.5908506083
O   O14       1.0  0.84910  0.02220  0.97500  1.0000 -1.0175354647
O   O15       1.0  0.68970  0.10750  0.15690  1.0000 -0.5580217707
O   O16       1.0  0.83280  0.97760  0.15950  1.0000 -0.5908506083
O   O17       1.0  0.87160  0.14890  0.11450  1.0000 -0.5580217707
O   O18       1.0  0.69520  0.15160  0.97080  1.0000 -0.5528349943
O   O19       1.0  0.99310  0.93680  0.11850  1.0000 -0.5580217707
O   O20       1.0  0.03050  0.11030  0.07110  1.0000 -0.5703555363
O   O21       1.0  0.64990  0.51790  0.51660  1.0000 -1.0116166043
O   O22       1.0  0.51790  0.44970  0.62770  1.0000 -0.5703555363
O   O23       1.0  0.48760  0.61800  0.55360  1.0000 -0.5908506083
O   O24       1.0  0.84910  0.47780  0.47500  1.0000 -1.0175354647
O   O25       1.0  0.68970  0.39250  0.65690  1.0000 -0.5580217707
O   O26       1.0  0.83280  0.52240  0.65950  1.0000 -0.5908506083
O   O27       1.0  0.87160  0.35110  0.61450  1.0000 -0.5580217707
O   O28       1.0  0.69520  0.34840  0.47080  1.0000 -0.5528349943
O   O29       1.0  0.99310  0.56320  0.61850  1.0000 -0.5580217707
O   O30       1.0  0.03050  0.38970  0.57110  1.0000 -0.5703555363
O   O31       1.0  0.35010  0.01790  0.98340  1.0000 -1.0116166043
O   O32       1.0  0.48210  0.94970  0.87230  1.0000 -0.5703555363
O   O33       1.0  0.51240  0.11800  0.94640  1.0000 -0.5908506083
O   O34       1.0  0.15090  0.97780  0.02500  1.0000 -1.0175354647
O   O35       1.0  0.31030  0.89250  0.84310  1.0000 -0.5580217707
O   O36       1.0  0.16720  0.02240  0.84050  1.0000 -0.5843488144
O   O37       1.0  0.12840  0.85110  0.88550  1.0000 -0.5580217707
O   O38       1.0  0.30480  0.84840  0.02920  1.0000 -0.5528349943
O   O39       1.0  0.00690  0.06320  0.88150  1.0000 -0.5528349943
O   O40       1.0  0.96950  0.88970  0.92890  1.0000 -0.5703555363
