# DDEC6 charges by PACMAN v1.1 (https://github.com/mtap-research/PACMAN-charge/)
data_2021[V][nan]3[FSR]13
_chemical_formula_sum              "V4 H16 C32 O20"
_cell_length_a       12.2773
_cell_length_b       12.2773
_cell_length_c       12.2773
_cell_angle_alpha    103.895
_cell_angle_beta     103.895
_cell_angle_gamma    121.312

_symmetry_space_group_name_H-M    "P 1"
_symmetry_Int_Tables_number       1

loop_
  _symmetry_equiv_pos_as_xyz
  'x, y, z'

loop_
  _atom_site_type_symbol
  _atom_site_label
  _atom_site_symmetry_multiplicity
  _atom_site_fract_x
  _atom_site_fract_y
  _atom_site_fract_z
  _atom_site_occupancy
  _atom_site_charge
V   V1        1.0  0.42100  0.92100  0.84200  1.0000 1.6844832132
V   V2        1.0  0.07900  0.57900  0.15800  1.0000 1.6844832132
V   V3        1.0  0.17100  0.82900  0.00000  1.0000 1.6844832132
V   V4        1.0  0.82900  0.17100  0.00000  1.0000 1.6844832132
H   H1        1.0  0.90380  0.44470  0.69230  1.0000 0.1019248645
H   H2        1.0  0.75240  0.21150  0.30770  1.0000 0.1019248645
H   H3        1.0  0.69470  0.50240  0.04090  1.0000 0.1019248645
H   H4        1.0  0.46150  0.65380  0.95910  1.0000 0.1019248645
H   H5        1.0  0.34620  0.53850  0.04090  1.0000 0.1019248645
H   H6        1.0  0.49760  0.30530  0.95910  1.0000 0.1019248645
H   H7        1.0  0.55530  0.09620  0.30770  1.0000 0.1019248645
H   H8        1.0  0.78850  0.24760  0.69230  1.0000 0.1019248645
H   H9        1.0  0.44600  0.87500  0.07100  1.0000 0.3770532365
H   H10       1.0  0.80400  0.37500  0.92900  1.0000 0.3770532365
H   H11       1.0  0.12500  0.55400  0.92900  1.0000 0.3770532365
H   H12       1.0  0.62500  0.19600  0.07100  1.0000 0.3770532365
H   H13       1.0  0.13110  0.63110  0.50000  1.0000 0.1053581144
H   H14       1.0  0.88110  0.88110  0.00000  1.0000 0.1053581144
H   H15       1.0  0.11890  0.11890  0.00000  1.0000 0.1053581144
H   H16       1.0  0.36890  0.86890  0.50000  1.0000 0.1053581144
C   C1        1.0  0.13550  0.68600  0.72570  1.0000 0.569558395
C   C2        1.0  0.02951  0.55273  0.60924  1.0000 -0.037709009
C   C3        1.0  0.91481  0.43803  0.60924  1.0000 -0.1463813355
C   C4        1.0  0.96030  0.40980  0.27430  1.0000 0.569558395
C   C5        1.0  0.94349  0.42027  0.39076  1.0000 -0.037709009
C   C6        1.0  0.82879  0.30557  0.39076  1.0000 -0.1463813355
C   C7        1.0  0.93600  0.71030  0.05050  1.0000 0.569558395
C   C8        1.0  0.80273  0.69349  0.02322  1.0000 -0.037709009
C   C9        1.0  0.68803  0.57879  0.02322  1.0000 -0.1463813355
C   C10       1.0  0.65980  0.88550  0.94950  1.0000 0.569558395
C   C11       1.0  0.67027  0.77951  0.97678  1.0000 -0.037709009
C   C12       1.0  0.55557  0.66481  0.97678  1.0000 -0.1463813355
C   C13       1.0  0.11450  0.34020  0.05050  1.0000 0.569558395
C   C14       1.0  0.22049  0.32973  0.02322  1.0000 -0.037709009
C   C15       1.0  0.33519  0.44443  0.02322  1.0000 -0.1463813355
C   C16       1.0  0.28970  0.06400  0.94950  1.0000 0.569558395
C   C17       1.0  0.30651  0.19727  0.97678  1.0000 -0.037709009
C   C18       1.0  0.42121  0.31197  0.97678  1.0000 -0.1463813355
C   C19       1.0  0.31400  0.86450  0.27430  1.0000 0.569558395
C   C20       1.0  0.44727  0.97049  0.39076  1.0000 -0.037709009
C   C21       1.0  0.56197  0.08519  0.39076  1.0000 -0.1463813355
C   C22       1.0  0.59020  0.03970  0.72570  1.0000 0.569558395
C   C23       1.0  0.57973  0.05651  0.60924  1.0000 -0.037709009
C   C24       1.0  0.69443  0.17121  0.60924  1.0000 -0.1463813355
C   C25       1.0  0.04380  0.54380  0.50000  1.0000 -0.1306107791
C   C26       1.0  0.81440  0.31440  0.50000  1.0000 0.0600293408
C   C27       1.0  0.79380  0.79380  0.00000  1.0000 -0.1306107791
C   C28       1.0  0.56440  0.56440  0.00000  1.0000 0.0600293408
C   C29       1.0  0.20620  0.20620  0.00000  1.0000 -0.1306107791
C   C30       1.0  0.43560  0.43560  0.00000  1.0000 0.0600293408
C   C31       1.0  0.45620  0.95620  0.50000  1.0000 -0.1306107791
C   C32       1.0  0.68560  0.18560  0.50000  1.0000 0.0600293408
O   O1        1.0  0.25790  0.76900  0.73950  1.0000 -0.4344197196
O   O2        1.0  0.10160  0.71440  0.80920  1.0000 -0.5899900888
O   O3        1.0  0.02950  0.51840  0.26050  1.0000 -0.4344197196
O   O4        1.0  0.90520  0.29240  0.19080  1.0000 -0.5899900888
O   O5        1.0  0.01900  0.77950  0.01110  1.0000 -0.4344197196
O   O6        1.0  0.96440  0.65520  0.11280  1.0000 -0.5899900888
O   O7        1.0  0.76840  0.00790  0.98890  1.0000 -0.4344197196
O   O8        1.0  0.54240  0.85160  0.88720  1.0000 -0.5899900888
O   O9        1.0  0.99210  0.23160  0.01110  1.0000 -0.4344197196
O   O10       1.0  0.14840  0.45760  0.11280  1.0000 -0.5899900888
O   O11       1.0  0.22050  0.98100  0.98890  1.0000 -0.4344197196
O   O12       1.0  0.34480  0.03560  0.88720  1.0000 -0.5899900888
O   O13       1.0  0.23100  0.74210  0.26050  1.0000 -0.4344197196
O   O14       1.0  0.28560  0.89840  0.19080  1.0000 -0.5899900888
O   O15       1.0  0.48160  0.97050  0.73950  1.0000 -0.4344197196
O   O16       1.0  0.70760  0.09480  0.80920  1.0000 -0.5899900888
O   O17       1.0  0.37470  0.87500  0.99970  1.0000 -1.022279339
O   O18       1.0  0.87530  0.37500  0.00030  1.0000 -1.022279339
O   O19       1.0  0.12500  0.62530  0.00030  1.0000 -1.022279339
O   O20       1.0  0.62500  0.12470  0.99970  1.0000 -1.022279339
