# DDEC6 charges by PACMAN v1.1 (https://github.com/mtap-research/PACMAN-charge/)
data_2021[Cd][sql]2[FSR]4
_chemical_formula_sum              "Cd2 H36 C58 N4 O8 F12"
_cell_length_a       8.9415
_cell_length_b       11.5059
_cell_length_c       15.1023
_cell_angle_alpha    97.888
_cell_angle_beta     98.005
_cell_angle_gamma    96.326

_symmetry_space_group_name_H-M    "P 1"
_symmetry_Int_Tables_number       1

loop_
  _symmetry_equiv_pos_as_xyz
  'x, y, z'

loop_
  _atom_site_type_symbol
  _atom_site_label
  _atom_site_symmetry_multiplicity
  _atom_site_fract_x
  _atom_site_fract_y
  _atom_site_fract_z
  _atom_site_occupancy
  _atom_site_charge
Cd  Cd1       1.0  0.58944  0.89540  0.88867  1.0000 0.880943365
Cd  Cd2       1.0  0.41056  0.10460  0.11133  1.0000 0.880943365
H   H1        1.0  0.66436  0.14296  0.81023  1.0000 0.1123199746
H   H2        1.0  0.81259  0.32343  0.84334  1.0000 0.1300113756
H   H3        1.0  0.04006  0.21037  0.05538  1.0000 0.1469824236
H   H4        1.0  0.87914  0.03651  0.01871  1.0000 0.1014730566
H   H5        1.0  0.14087  0.40016  0.00886  1.0000 0.1014730566
H   H6        1.0  0.94723  0.48807  0.87828  1.0000 0.1014730566
H   H7        1.0  0.52626  0.65808  0.97830  1.0000 0.1014730566
H   H8        1.0  0.32458  0.53210  0.00589  1.0000 0.1300113756
H   H9        1.0  0.07056  0.62307  0.79284  1.0000 0.1410726528
H   H10       1.0  0.27776  0.74689  0.77355  1.0000 0.1123199746
H   H11       1.0  0.24420  0.98450  0.72604  1.0000 0.1234700788
H   H12       1.0  0.11230  0.05158  0.60658  1.0000 0.1123199746
H   H13       1.0  0.12709  0.36627  0.75862  1.0000 0.1014730566
H   H14       1.0  0.24968  0.29671  0.87938  1.0000 0.1123199746
H   H15       1.0  0.40726  0.20776  0.43769  1.0000 0.1234700788
H   H16       1.0  0.29150  0.24206  0.56449  1.0000 0.1123199746
H   H17       1.0  0.88945  0.22030  0.40806  1.0000 0.1123199746
H   H18       1.0  0.00683  0.19418  0.28139  1.0000 0.1123199746
H   H19       1.0  0.33564  0.85704  0.18977  1.0000 0.1123199746
H   H20       1.0  0.18741  0.67657  0.15666  1.0000 0.1300113756
H   H21       1.0  0.95994  0.78963  0.94462  1.0000 0.1469824236
H   H22       1.0  0.12086  0.96349  0.98129  1.0000 0.1014730566
H   H23       1.0  0.85913  0.59984  0.99114  1.0000 0.1014730566
H   H24       1.0  0.05277  0.51193  0.12172  1.0000 0.1014730566
H   H25       1.0  0.47374  0.34192  0.02170  1.0000 0.1014730566
H   H26       1.0  0.67542  0.46790  0.99411  1.0000 0.1300113756
H   H27       1.0  0.92944  0.37693  0.20716  1.0000 0.1410726528
H   H28       1.0  0.72224  0.25311  0.22645  1.0000 0.1123199746
H   H29       1.0  0.75580  0.01550  0.27396  1.0000 0.1234700788
H   H30       1.0  0.88770  0.94842  0.39342  1.0000 0.1123199746
H   H31       1.0  0.87291  0.63373  0.24138  1.0000 0.1014730566
H   H32       1.0  0.75032  0.70329  0.12062  1.0000 0.1123199746
H   H33       1.0  0.59274  0.79224  0.56231  1.0000 0.1234700788
H   H34       1.0  0.70850  0.75794  0.43551  1.0000 0.1123199746
H   H35       1.0  0.11055  0.77970  0.59194  1.0000 0.1123199746
H   H36       1.0  0.99317  0.80582  0.71861  1.0000 0.1123199746
C   C1        1.0  0.73870  0.15760  0.86140  1.0000 0.0889157518
C   C2        1.0  0.82850  0.26660  0.88070  1.0000 -0.1997894897
C   C3        1.0  0.94130  0.29090  0.95520  1.0000 0.1300113756
C   C4        1.0  0.96200  0.20020  0.00630  1.0000 -0.1832701493
C   C5        1.0  0.86550  0.09540  0.98300  1.0000 0.0774701811
C   C6        1.0  0.03440  0.41010  0.98960  1.0000 -0.0900837398
C   C7        1.0  0.02670  0.51100  0.93140  1.0000 -0.0900837398
C   C8        1.0  0.43200  0.65330  0.94210  1.0000 0.0889157518
C   C9        1.0  0.31070  0.57670  0.95920  1.0000 -0.2120754089
C   C10       1.0  0.16940  0.56780  0.90580  1.0000 0.1300113756
C   C11       1.0  0.16070  0.63080  0.83340  1.0000 -0.1997894897
C   C12       1.0  0.28660  0.70500  0.82210  1.0000 0.1014730566
C   C13       1.0  0.33080  0.08500  0.89750  1.0000 0.5672259401
C   C14       1.0  0.25720  0.13230  0.81720  1.0000 -0.0322231915
C   C15       1.0  0.21760  0.06070  0.73360  1.0000 -0.0900837398
C   C16       1.0  0.13920  0.10160  0.66170  1.0000 -0.1355718304
C   C17       1.0  0.09910  0.21570  0.66920  1.0000 0.0774701811
C   C18       1.0  0.14660  0.28810  0.75200  1.0000 -0.1613339786
C   C19       1.0  0.22180  0.24660  0.82430  1.0000 -0.0968527798
C   C20       1.0  0.00350  0.25290  0.58700  1.0000 -0.2756050754
C   C21       1.0  0.30290  0.21120  0.43120  1.0000 -0.0968527798
C   C22       1.0  0.23260  0.23000  0.50740  1.0000 -0.1291194836
C   C23       1.0  0.07750  0.23120  0.50030  1.0000 0.0697093677
C   C24       1.0  0.99410  0.21820  0.41480  1.0000 -0.1613339786
C   C25       1.0  0.06470  0.20210  0.33850  1.0000 -0.1063307341
C   C26       1.0  0.21890  0.19770  0.34630  1.0000 0.0007400555
C   C27       1.0  0.29290  0.17330  0.26260  1.0000 0.5412673425
C   C28       1.0  0.84420  0.18030  0.57630  1.0000 0.6671720516
C   C29       1.0  0.98490  0.38590  0.60440  1.0000 0.6671720516
C   C30       1.0  0.26130  0.84240  0.13860  1.0000 0.0889157518
C   C31       1.0  0.17150  0.73340  0.11930  1.0000 -0.1997894897
C   C32       1.0  0.05870  0.70910  0.04480  1.0000 0.1300113756
C   C33       1.0  0.03800  0.79980  0.99370  1.0000 -0.1832701493
C   C34       1.0  0.13450  0.90460  0.01700  1.0000 0.0774701811
C   C35       1.0  0.96560  0.58990  0.01040  1.0000 -0.0900837398
C   C36       1.0  0.97330  0.48900  0.06860  1.0000 -0.0900837398
C   C37       1.0  0.56800  0.34670  0.05790  1.0000 0.0889157518
C   C38       1.0  0.68930  0.42330  0.04080  1.0000 -0.2120754089
C   C39       1.0  0.83060  0.43220  0.09420  1.0000 0.1300113756
C   C40       1.0  0.83930  0.36920  0.16660  1.0000 -0.1997894897
C   C41       1.0  0.71340  0.29500  0.17790  1.0000 0.1014730566
C   C42       1.0  0.66920  0.91500  0.10250  1.0000 0.5672259401
C   C43       1.0  0.74280  0.86770  0.18280  1.0000 -0.0322231915
C   C44       1.0  0.78240  0.93930  0.26640  1.0000 -0.0900837398
C   C45       1.0  0.86080  0.89840  0.33830  1.0000 -0.1291194836
C   C46       1.0  0.90090  0.78430  0.33080  1.0000 0.0774701811
C   C47       1.0  0.85340  0.71190  0.24800  1.0000 -0.1613339786
C   C48       1.0  0.77820  0.75340  0.17570  1.0000 -0.0968527798
C   C49       1.0  0.99650  0.74710  0.41300  1.0000 -0.2756050754
C   C50       1.0  0.69710  0.78880  0.56880  1.0000 -0.0968527798
C   C51       1.0  0.76740  0.77000  0.49260  1.0000 -0.1291194836
C   C52       1.0  0.92250  0.76880  0.49970  1.0000 0.0697093677
C   C53       1.0  0.00590  0.78180  0.58520  1.0000 -0.1613339786
C   C54       1.0  0.93530  0.79790  0.66150  1.0000 -0.1063307341
C   C55       1.0  0.78110  0.80230  0.65370  1.0000 0.0007400555
C   C56       1.0  0.70710  0.82670  0.73740  1.0000 0.5412673425
C   C57       1.0  0.15580  0.81970  0.42370  1.0000 0.6671720516
C   C58       1.0  0.01510  0.61410  0.39560  1.0000 0.6671720516
N   N1        1.0  0.75330  0.07300  0.91210  1.0000 -0.2447118987
N   N2        1.0  0.41970  0.72000  0.87660  1.0000 -0.2316482891
N   N3        1.0  0.24670  0.92700  0.08790  1.0000 -0.2447118987
N   N4        1.0  0.58030  0.28000  0.12340  1.0000 -0.2316482891
O   O1        1.0  0.38130  0.98840  0.88505  1.0000 -0.5622808565
O   O2        1.0  0.32880  0.14510  0.97406  1.0000 -0.5711250682
O   O3        1.0  0.41230  0.12700  0.26822  1.0000 -0.5415785838
O   O4        1.0  0.23040  0.20190  0.19037  1.0000 -0.5711250682
O   O5        1.0  0.61870  0.01160  0.11495  1.0000 -0.5622808565
O   O6        1.0  0.67120  0.85490  0.02594  1.0000 -0.5711250682
O   O7        1.0  0.58770  0.87300  0.73178  1.0000 -0.5415785838
O   O8        1.0  0.76960  0.79810  0.80963  1.0000 -0.5711250682
F   F1        1.0  0.84560  0.06750  0.54154  1.0000 -0.1862443913
F   F2        1.0  0.73630  0.22040  0.52276  1.0000 -0.1997894897
F   F3        1.0  0.79460  0.17920  0.65541  1.0000 -0.1997894897
F   F4        1.0  0.90510  0.41910  0.53239  1.0000 -0.1997894897
F   F5        1.0  0.91000  0.41350  0.67356  1.0000 -0.2120754089
F   F6        1.0  0.11890  0.45285  0.62175  1.0000 -0.1997894897
F   F7        1.0  0.15440  0.93250  0.45846  1.0000 -0.1862443913
F   F8        1.0  0.26370  0.77960  0.47724  1.0000 -0.1997894897
F   F9        1.0  0.20540  0.82080  0.34459  1.0000 -0.1997894897
F   F10       1.0  0.09490  0.58090  0.46761  1.0000 -0.1997894897
F   F11       1.0  0.09000  0.58650  0.32644  1.0000 -0.2120754089
F   F12       1.0  0.88110  0.54715  0.37825  1.0000 -0.1997894897
