# DDEC6 charges by PACMAN v1.1 (https://github.com/mtap-research/PACMAN-charge/)
data_2021[Tb][nan]3[FSR]4
_chemical_formula_sum              "Tb2 H26 C24 O22"
_cell_length_a       8.8972
_cell_length_b       9.882
_cell_length_c       10.3341
_cell_angle_alpha    77.792
_cell_angle_beta     82.691
_cell_angle_gamma    86.712

_symmetry_space_group_name_H-M    "P 1"
_symmetry_Int_Tables_number       1

loop_
  _symmetry_equiv_pos_as_xyz
  'x, y, z'

loop_
  _atom_site_type_symbol
  _atom_site_label
  _atom_site_symmetry_multiplicity
  _atom_site_fract_x
  _atom_site_fract_y
  _atom_site_fract_z
  _atom_site_occupancy
  _atom_site_charge
Tb  Tb1       1.0  0.74662  0.99899  0.98389  1.0000 2.0491111816
Tb  Tb2       1.0  0.25338  0.00101  0.01611  1.0000 2.0491111816
H   H1        1.0  0.88486  0.06383  0.19537  1.0000 0.3603506775
H   H2        1.0  0.73933  0.07750  0.24390  1.0000 0.3288276733
H   H3        1.0  0.66004  0.30383  0.02512  1.0000 0.2776245416
H   H4        1.0  0.54541  0.23887  0.03427  1.0000 0.3089416564
H   H5        1.0  0.41715  0.56829  0.29412  1.0000 0.1526806743
H   H6        1.0  0.10867  0.31948  0.54265  1.0000 0.1418223521
H   H7        1.0  0.25994  0.64982  0.65361  1.0000 0.160599807
H   H8        1.0  0.58152  0.70743  0.30312  1.0000 0.1418223521
H   H9        1.0  0.61224  0.84302  0.35011  1.0000 0.1418223521
H   H10       1.0  0.06623  0.30032  0.31296  1.0000 0.1321934999
H   H11       1.0  0.16701  0.18889  0.39811  1.0000 0.1418223521
H   H12       1.0  0.95065  0.32423  0.70277  1.0000 0.1418223521
H   H13       1.0  0.88730  0.38482  0.82803  1.0000 0.1418223521
H   H14       1.0  0.11514  0.93617  0.80463  1.0000 0.3603506775
H   H15       1.0  0.26067  0.92250  0.75610  1.0000 0.3288276733
H   H16       1.0  0.33996  0.69617  0.97488  1.0000 0.2776245416
H   H17       1.0  0.45459  0.76113  0.96573  1.0000 0.3089416564
H   H18       1.0  0.58285  0.43171  0.70588  1.0000 0.1526806743
H   H19       1.0  0.89133  0.68052  0.45735  1.0000 0.1418223521
H   H20       1.0  0.74006  0.35018  0.34639  1.0000 0.160599807
H   H21       1.0  0.41848  0.29257  0.69688  1.0000 0.1418223521
H   H22       1.0  0.38776  0.15698  0.64989  1.0000 0.1418223521
H   H23       1.0  0.93377  0.69968  0.68704  1.0000 0.1321934999
H   H24       1.0  0.83299  0.81111  0.60189  1.0000 0.1418223521
H   H25       1.0  0.04935  0.67577  0.29723  1.0000 0.1418223521
H   H26       1.0  0.11270  0.61518  0.17197  1.0000 0.1418223521
C   C1        1.0  0.35360  0.62670  0.46930  1.0000 0.302063042
C   C2        1.0  0.35600  0.54640  0.37520  1.0000 -0.3732280641
C   C3        1.0  0.26420  0.43100  0.40450  1.0000 0.3089416564
C   C4        1.0  0.16940  0.39630  0.52430  1.0000 -0.3991989552
C   C5        1.0  0.17000  0.48290  0.61600  1.0000 0.2910761179
C   C6        1.0  0.26040  0.59500  0.59060  1.0000 -0.3592559158
C   C7        1.0  0.53310  0.78710  0.33410  1.0000 -0.1695252194
C   C8        1.0  0.44640  0.87090  0.22700  1.0000 0.6478038372
C   C9        1.0  0.16620  0.25580  0.31470  1.0000 -0.1621862522
C   C10       1.0  0.19960  0.18320  0.20020  1.0000 0.6196486295
C   C11       1.0  0.97890  0.35280  0.78030  1.0000 -0.1789076759
C   C12       1.0  0.04510  0.23100  0.86830  1.0000 0.6643404902
C   C13       1.0  0.64640  0.37330  0.53070  1.0000 0.302063042
C   C14       1.0  0.64400  0.45360  0.62480  1.0000 -0.3732280641
C   C15       1.0  0.73580  0.56900  0.59550  1.0000 0.3089416564
C   C16       1.0  0.83060  0.60370  0.47570  1.0000 -0.3991989552
C   C17       1.0  0.83000  0.51710  0.38400  1.0000 0.2910761179
C   C18       1.0  0.73960  0.40500  0.40940  1.0000 -0.3592559158
C   C19       1.0  0.46690  0.21290  0.66590  1.0000 -0.1695252194
C   C20       1.0  0.55360  0.12910  0.77300  1.0000 0.6478038372
C   C21       1.0  0.83380  0.74420  0.68530  1.0000 -0.1621862522
C   C22       1.0  0.80040  0.81680  0.79980  1.0000 0.6196486295
C   C23       1.0  0.02110  0.64720  0.21970  1.0000 -0.1789076759
C   C24       1.0  0.95490  0.76900  0.13170  1.0000 0.6652210892
O   O1        1.0  0.52240  0.93250  0.12120  1.0000 -0.7165724694
O   O2        1.0  0.30530  0.87770  0.24100  1.0000 -0.5888699948
O   O3        1.0  0.32710  0.18840  0.13190  1.0000 -0.5888699948
O   O4        1.0  0.09680  0.11160  0.17840  1.0000 -0.6184800922
O   O5        1.0  0.95670  0.13290  0.92030  1.0000 -0.7282469629
O   O6        1.0  0.18110  0.22680  0.88840  1.0000 -0.6051232277
O   O7        1.0  0.43960  0.74070  0.45600  1.0000 -0.1695252194
O   O8        1.0  0.27700  0.35700  0.30600  1.0000 -0.1621862522
O   O9        1.0  0.07960  0.46490  0.73710  1.0000 -0.1789076759
O   O10       1.0  0.79860  0.03910  0.19460  1.0000 -0.7282469629
O   O11       1.0  0.63570  0.23170  0.00740  1.0000 -0.7282469629
O   O12       1.0  0.47760  0.06750  0.87880  1.0000 -0.7165724694
O   O13       1.0  0.69470  0.12230  0.75900  1.0000 -0.5888699948
O   O14       1.0  0.67290  0.81160  0.86810  1.0000 -0.5888699948
O   O15       1.0  0.90320  0.88840  0.82160  1.0000 -0.6184800922
O   O16       1.0  0.04330  0.86710  0.07970  1.0000 -0.7282469629
O   O17       1.0  0.81890  0.77320  0.11160  1.0000 -0.6051232277
O   O18       1.0  0.56040  0.25930  0.54400  1.0000 -0.1695252194
O   O19       1.0  0.72300  0.64300  0.69400  1.0000 -0.1621862522
O   O20       1.0  0.92040  0.53510  0.26290  1.0000 -0.1789076759
O   O21       1.0  0.20140  0.96090  0.80540  1.0000 -0.7282469629
O   O22       1.0  0.36430  0.76830  0.99260  1.0000 -0.7282469629
