# DDEC6 charges by PACMAN v1.1 (https://github.com/mtap-research/PACMAN-charge/)
data_2021[Cu][xft]3[FSR]1
_chemical_formula_sum              "Cu8 H32 C64 N32 O16 F18"
_cell_length_a       15.3591
_cell_length_b       15.3591
_cell_length_c       15.3488
_cell_angle_alpha    83.8167
_cell_angle_beta     96.1833
_cell_angle_gamma    38.304

_symmetry_space_group_name_H-M    "P 1"
_symmetry_Int_Tables_number       1

loop_
  _symmetry_equiv_pos_as_xyz
  'x, y, z'

loop_
  _atom_site_type_symbol
  _atom_site_label
  _atom_site_symmetry_multiplicity
  _atom_site_fract_x
  _atom_site_fract_y
  _atom_site_fract_z
  _atom_site_occupancy
  _atom_site_charge
Cu  Cu1       1.0  0.80887  0.94857  0.36707  1.0000 0.7007684632
Cu  Cu2       1.0  0.05112  0.94130  0.11716  1.0000 0.7007684632
Cu  Cu3       1.0  0.80822  0.68404  0.63163  1.0000 0.7097009742
Cu  Cu4       1.0  0.31574  0.94126  0.38204  1.0000 0.7007684632
Cu  Cu5       1.0  0.05143  0.19113  0.86707  1.0000 0.7007684632
Cu  Cu6       1.0  0.05870  0.94888  0.61716  1.0000 0.7007684632
Cu  Cu7       1.0  0.31596  0.19178  0.13163  1.0000 0.7097009742
Cu  Cu8       1.0  0.05874  0.68426  0.88204  1.0000 0.7007684632
H   H1        1.0  0.52979  0.21169  0.42244  1.0000 0.1327477696
H   H2        1.0  0.52712  0.02000  0.61487  1.0000 0.1327477696
H   H3        1.0  0.78852  0.26026  0.13243  1.0000 0.1327477696
H   H4        1.0  0.97967  0.26039  0.32573  1.0000 0.1327477696
H   H5        1.0  0.80286  0.29030  0.47567  1.0000 0.1496797824
H   H6        1.0  0.60905  0.28673  0.27982  1.0000 0.1496797824
H   H7        1.0  0.61098  0.79422  0.77039  1.0000 0.1496797824
H   H8        1.0  0.29520  0.64246  0.59773  1.0000 0.1496797824
H   H9        1.0  0.13217  0.64269  0.43415  1.0000 0.1411750117
H   H10       1.0  0.80311  0.79889  0.96792  1.0000 0.1496797824
H   H11       1.0  0.92581  0.68901  0.31251  1.0000 0.1204735673
H   H12       1.0  0.31124  0.62864  0.26098  1.0000 0.1327477696
H   H13       1.0  0.57412  0.86426  0.15128  1.0000 0.1496797824
H   H14       1.0  0.92934  0.50756  0.49155  1.0000 0.1204735673
H   H15       1.0  0.48786  0.62708  0.43522  1.0000 0.1327477696
H   H16       1.0  0.57508  0.69972  0.31424  1.0000 0.1496797824
H   H17       1.0  0.78831  0.47021  0.92244  1.0000 0.1327477696
H   H18       1.0  0.98000  0.47288  0.11487  1.0000 0.1327477696
H   H19       1.0  0.73974  0.21148  0.63243  1.0000 0.1327477696
H   H20       1.0  0.73961  0.02033  0.82573  1.0000 0.1327477696
H   H21       1.0  0.70970  0.19714  0.97567  1.0000 0.1496797824
H   H22       1.0  0.71327  0.39095  0.77982  1.0000 0.1496797824
H   H23       1.0  0.20578  0.38902  0.27039  1.0000 0.1496797824
H   H24       1.0  0.35754  0.70480  0.09773  1.0000 0.1496797824
H   H25       1.0  0.35731  0.86783  0.93415  1.0000 0.1411750117
H   H26       1.0  0.20111  0.19689  0.46792  1.0000 0.1496797824
H   H27       1.0  0.31099  0.07419  0.81251  1.0000 0.1204735673
H   H28       1.0  0.37136  0.68876  0.76098  1.0000 0.1327477696
H   H29       1.0  0.13574  0.42588  0.65128  1.0000 0.1496797824
H   H30       1.0  0.49244  0.07066  0.99155  1.0000 0.1204735673
H   H31       1.0  0.37292  0.51214  0.93522  1.0000 0.1327477696
H   H32       1.0  0.30028  0.42492  0.81424  1.0000 0.1496797824
C   C1        1.0  0.76130  0.87050  0.50610  1.0000 0.5839504922
C   C2        1.0  0.59780  0.02520  0.24060  1.0000 0.590799638
C   C3        1.0  0.97410  0.89190  0.25150  1.0000 0.590799638
C   C4        1.0  0.51240  0.13540  0.52220  1.0000 0.1411750117
C   C5        1.0  0.86980  0.71540  0.78970  1.0000 0.5215307796
C   C6        1.0  0.57320  0.12660  0.45940  1.0000 -0.0041582032
C   C7        1.0  0.23220  0.89160  0.50940  1.0000 0.590799638
C   C8        1.0  0.13080  0.00080  0.24360  1.0000 0.590799638
C   C9        1.0  0.57150  0.01290  0.57380  1.0000 -0.0178734464
C   C10       1.0  0.86350  0.28410  0.22700  1.0000 0.1496797824
C   C11       1.0  0.59720  0.76800  0.49770  1.0000 0.590799638
C   C12       1.0  0.87000  0.04500  0.45940  1.0000 0.5350672329
C   C13       1.0  0.68040  0.81480  0.87790  1.0000 0.2011642182
C   C14       1.0  0.87330  0.21170  0.17490  1.0000 -0.0098063947
C   C15       1.0  0.98670  0.21170  0.28900  1.0000 -0.0178734464
C   C16       1.0  0.79370  0.24370  0.45210  1.0000 0.0338362237
C   C17       1.0  0.67810  0.24210  0.33570  1.0000 0.0457310254
C   C18       1.0  0.67960  0.78160  0.79460  1.0000 -0.0388055978
C   C19       1.0  0.30650  0.68630  0.56510  1.0000 -0.0178734464
C   C20       1.0  0.67800  0.32640  0.36960  1.0000 0.104837055
C   C21       1.0  0.12140  0.68740  0.37970  1.0000 -0.0178734464
C   C22       1.0  0.79450  0.78370  0.91240  1.0000 -0.0771696096
C   C23       1.0  0.82490  0.77250  0.28100  1.0000 0.001667393
C   C24       1.0  0.22730  0.67950  0.27710  1.0000 0.0200708011
C   C25       1.0  0.61750  0.87550  0.18480  1.0000 -0.0388055978
C   C26       1.0  0.82810  0.57850  0.47330  1.0000 -0.0098063947
C   C27       1.0  0.41990  0.67830  0.46770  1.0000 -0.0098063947
C   C28       1.0  0.61810  0.69130  0.36830  1.0000 -0.0310458917
C   C29       1.0  0.76450  0.58830  0.39690  1.0000 0.1496797824
C   C30       1.0  0.76430  0.75750  0.22780  1.0000 0.1327477696
C   C31       1.0  0.24080  0.61040  0.35110  1.0000 0.1204735673
C   C32       1.0  0.41450  0.60910  0.52360  1.0000 0.1496797824
C   C33       1.0  0.12950  0.23870  0.00610  1.0000 0.5839504922
C   C34       1.0  0.97480  0.40220  0.74060  1.0000 0.590799638
C   C35       1.0  0.10810  0.02590  0.75150  1.0000 0.590799638
C   C36       1.0  0.86460  0.48760  0.02220  1.0000 0.1411750117
C   C37       1.0  0.28460  0.13020  0.28970  1.0000 0.5215307796
C   C38       1.0  0.87340  0.42680  0.95940  1.0000 -0.0041582032
C   C39       1.0  0.10840  0.76780  0.00940  1.0000 0.590799638
C   C40       1.0  0.99920  0.86920  0.74360  1.0000 0.590799638
C   C41       1.0  0.98710  0.42850  0.07380  1.0000 -0.0178734464
C   C42       1.0  0.71590  0.13650  0.72700  1.0000 0.1496797824
C   C43       1.0  0.23200  0.40280  0.99770  1.0000 0.590799638
C   C44       1.0  0.95500  0.13000  0.95940  1.0000 0.5350672329
C   C45       1.0  0.18520  0.31960  0.37790  1.0000 0.2011642182
C   C46       1.0  0.78830  0.12670  0.67490  1.0000 -0.0098063947
C   C47       1.0  0.78830  0.01330  0.78900  1.0000 -0.0178734464
C   C48       1.0  0.75630  0.20630  0.95210  1.0000 0.0338362237
C   C49       1.0  0.75790  0.32190  0.83570  1.0000 0.0457310254
C   C50       1.0  0.21840  0.32040  0.29460  1.0000 -0.0388055978
C   C51       1.0  0.31370  0.69350  0.06510  1.0000 -0.0178734464
C   C52       1.0  0.67360  0.32200  0.86960  1.0000 0.104837055
C   C53       1.0  0.31260  0.87860  0.87970  1.0000 -0.0178734464
C   C54       1.0  0.21630  0.20550  0.41240  1.0000 -0.0771696096
C   C55       1.0  0.22750  0.17510  0.78100  1.0000 0.001667393
C   C56       1.0  0.32050  0.77270  0.77710  1.0000 0.0200708011
C   C57       1.0  0.12450  0.38250  0.68480  1.0000 -0.0388055978
C   C58       1.0  0.42150  0.17190  0.97330  1.0000 -0.0098063947
C   C59       1.0  0.32170  0.58010  0.96770  1.0000 -0.0098063947
C   C60       1.0  0.30870  0.38190  0.86830  1.0000 -0.0310458917
C   C61       1.0  0.41170  0.23550  0.89690  1.0000 0.1496797824
C   C62       1.0  0.24250  0.23570  0.72780  1.0000 0.1327477696
C   C63       1.0  0.38960  0.75920  0.85110  1.0000 0.1204735673
C   C64       1.0  0.39090  0.58550  0.02360  1.0000 0.1496797824
N   N1        1.0  0.00540  0.07000  0.18470  1.0000 -0.3471110588
N   N2        1.0  0.69570  0.88010  0.56480  1.0000 -0.3471110588
N   N3        1.0  0.11980  0.07100  0.29910  1.0000 -0.3402611924
N   N4        1.0  0.69650  0.99430  0.45120  1.0000 -0.3402611924
N   N5        1.0  0.74760  0.90020  0.29040  1.0000 -0.3214095211
N   N6        1.0  0.53280  0.01100  0.19050  1.0000 -0.360347954
N   N7        1.0  0.21640  0.82700  0.55840  1.0000 -0.360347954
N   N8        1.0  0.98910  0.82610  0.33090  1.0000 -0.3471110588
N   N9        1.0  0.53300  0.78300  0.41840  1.0000 -0.360347954
N   N10       1.0  0.88460  0.11020  0.49590  1.0000 -0.2866804874
N   N11       1.0  0.09950  0.81610  0.22710  1.0000 -0.3214095211
N   N12       1.0  0.76990  0.73590  0.75420  1.0000 -0.2425380027
N   N13       1.0  0.74670  0.66990  0.52270  1.0000 -0.3402611924
N   N14       1.0  0.33000  0.81820  0.45800  1.0000 -0.3402611924
N   N15       1.0  0.76960  0.10920  0.38120  1.0000 -0.2831528908
N   N16       1.0  0.88670  0.73450  0.86830  1.0000 -0.2617762065
N   N17       1.0  0.93000  0.99460  0.68470  1.0000 -0.3471110588
N   N18       1.0  0.11990  0.30430  0.06480  1.0000 -0.3471110588
N   N19       1.0  0.92900  0.88020  0.79910  1.0000 -0.3402611924
N   N20       1.0  0.00570  0.30350  0.95120  1.0000 -0.3402611924
N   N21       1.0  0.09980  0.25240  0.79040  1.0000 -0.3214095211
N   N22       1.0  0.98900  0.46720  0.69050  1.0000 -0.360347954
N   N23       1.0  0.17300  0.78360  0.05840  1.0000 -0.360347954
N   N24       1.0  0.17390  0.01090  0.83090  1.0000 -0.3471110588
N   N25       1.0  0.21700  0.46700  0.91840  1.0000 -0.360347954
N   N26       1.0  0.88980  0.11540  0.99590  1.0000 -0.2866804874
N   N27       1.0  0.18390  0.90050  0.72710  1.0000 -0.3214095211
N   N28       1.0  0.26410  0.23010  0.25420  1.0000 -0.2425380027
N   N29       1.0  0.33010  0.25330  0.02270  1.0000 -0.3402611924
N   N30       1.0  0.18180  0.67000  0.95800  1.0000 -0.3402611924
N   N31       1.0  0.89080  0.23040  0.88120  1.0000 -0.2831528908
N   N32       1.0  0.26550  0.11330  0.36830  1.0000 -0.2617762065
O   O1        1.0  0.88480  0.74360  0.50370  1.0000 -0.5830212807
O   O2        1.0  0.25520  0.87320  0.24600  1.0000 -0.5697605883
O   O3        1.0  0.85070  0.01930  0.20110  1.0000 -0.5697605883
O   O4        1.0  0.52470  0.84570  0.54810  1.0000 -0.5697605883
O   O5        1.0  0.52420  0.14980  0.24480  1.0000 -0.5830212807
O   O6        1.0  0.15360  0.01940  0.50440  1.0000 -0.5697605883
O   O7        1.0  0.95890  0.67010  0.74510  1.0000 -0.5403950786
O   O8        1.0  0.95660  0.91400  0.50280  1.0000 -0.5403950786
O   O9        1.0  0.25640  0.11520  0.00370  1.0000 -0.5830212807
O   O10       1.0  0.12680  0.74480  0.74600  1.0000 -0.5697605883
O   O11       1.0  0.98070  0.14930  0.70110  1.0000 -0.5697605883
O   O12       1.0  0.15430  0.47530  0.04810  1.0000 -0.5697605883
O   O13       1.0  0.85020  0.47580  0.74480  1.0000 -0.5830212807
O   O14       1.0  0.98060  0.84640  0.00440  1.0000 -0.5697605883
O   O15       1.0  0.32990  0.04110  0.24510  1.0000 -0.5403950786
O   O16       1.0  0.08600  0.04340  0.00280  1.0000 -0.5403950786
F   F1        1.0  0.38930  0.26870  0.53250  1.0000 -0.1558020389
F   F2        1.0  0.73070  0.42730  0.21680  1.0000 -0.1398651322
F   F3        1.0  0.37160  0.46860  0.39990  1.0000 -0.1398651322
F   F4        1.0  0.50580  0.46880  0.53360  1.0000 -0.1398651322
F   F5        1.0  0.84740  0.62820  0.21430  1.0000 -0.1398651322
F   F6        1.0  0.84660  0.49440  0.34920  1.0000 -0.1398651322
F   F7        1.0  0.58260  0.46540  0.32690  1.0000 -0.1271487972
F   F8        1.0  0.55940  0.86920  0.90180  1.0000 0.0578875827
F   F9        1.0  0.60480  0.86980  0.94860  1.0000 0.0578875827
F   F10       1.0  0.73130  0.61070  0.03250  1.0000 -0.1558020389
F   F11       1.0  0.57270  0.26930  0.71680  1.0000 -0.1398651322
F   F12       1.0  0.53140  0.62840  0.89990  1.0000 -0.1398651322
F   F13       1.0  0.53120  0.49420  0.03360  1.0000 -0.1398651322
F   F14       1.0  0.37180  0.15260  0.71430  1.0000 -0.1398651322
F   F15       1.0  0.50560  0.15340  0.84920  1.0000 -0.1398651322
F   F16       1.0  0.53460  0.41740  0.82690  1.0000 -0.1271487972
F   F17       1.0  0.13080  0.44060  0.40180  1.0000 0.0578875827
F   F18       1.0  0.13020  0.39520  0.44860  1.0000 0.0578875827
