# DDEC6 charges by PACMAN v1.1 (https://github.com/mtap-research/PACMAN-charge/)
data_2021[CuMn][sql]2[FSR]1
_chemical_formula_sum              "Mn2 Cu2 H68 C96 N8 O12"
_cell_length_a       8.98
_cell_length_b       14.51
_cell_length_c       19.84
_cell_angle_alpha    108.88
_cell_angle_beta     97.6
_cell_angle_gamma    95.62

_symmetry_space_group_name_H-M    "P 1"
_symmetry_Int_Tables_number       1

loop_
  _symmetry_equiv_pos_as_xyz
  'x, y, z'

loop_
  _atom_site_type_symbol
  _atom_site_label
  _atom_site_symmetry_multiplicity
  _atom_site_fract_x
  _atom_site_fract_y
  _atom_site_fract_z
  _atom_site_occupancy
  _atom_site_charge
Mn  Mn1       1.0  0.75117  0.97921  0.01388  1.0000 0.9708124849
Mn  Mn2       1.0  0.24883  0.02079  0.98612  1.0000 0.9708124849
Cu  Cu1       1.0  0.23978  0.41784  0.53666  1.0000 0.6125216337
Cu  Cu2       1.0  0.76022  0.58216  0.46334  1.0000 0.6125216337
H   H1        1.0  0.52770  0.89270  0.02312  1.0000 0.3295039388
H   H2        1.0  0.97881  0.94380  0.07148  1.0000 0.3190253528
H   H3        1.0  0.43833  0.58065  0.36849  1.0000 0.1282952803
H   H4        1.0  0.48944  0.40726  0.31852  1.0000 0.1282952803
H   H5        1.0  0.37008  0.79891  0.54180  1.0000 0.1114681308
H   H6        1.0  0.39111  0.93144  0.49887  1.0000 0.1114681308
H   H7        1.0  0.28768  0.90903  0.37982  1.0000 0.1114681308
H   H8        1.0  0.16121  0.75372  0.30304  1.0000 0.1114681308
H   H9        1.0  0.14720  0.62094  0.34593  1.0000 0.1114681308
H   H10       1.0  0.07339  0.74856  0.55186  1.0000 0.1282952803
H   H11       1.0  0.00574  0.72084  0.65982  1.0000 0.1282952803
H   H12       1.0  0.84469  0.61142  0.71987  1.0000 0.118441005
H   H13       1.0  0.79248  0.72893  0.82071  1.0000 0.118441005
H   H14       1.0  0.23214  0.77208  0.91720  1.0000 0.118441005
H   H15       1.0  0.28427  0.65118  0.81540  1.0000 0.118441005
H   H16       1.0  0.13392  0.46113  0.79122  1.0000 0.1282952803
H   H17       1.0  0.18654  0.28941  0.74526  1.0000 0.118441005
H   H18       1.0  0.01404  0.07565  0.58004  1.0000 0.118441005
H   H19       1.0  0.01804  0.93708  0.61711  1.0000 0.1114681308
H   H20       1.0  0.23603  0.91800  0.68475  1.0000 0.118441005
H   H21       1.0  0.45307  0.03627  0.71566  1.0000 0.1114681308
H   H22       1.0  0.44719  0.17583  0.68114  1.0000 0.118441005
H   H23       1.0  0.26448  0.05228  0.48726  1.0000 0.118441005
H   H24       1.0  0.32125  0.07957  0.37683  1.0000 0.118441005
H   H25       1.0  0.62698  0.27518  0.33601  1.0000 0.118441005
H   H26       1.0  0.68607  0.17847  0.22727  1.0000 0.1114681308
H   H27       1.0  0.55388  0.75211  0.90707  1.0000 0.1114681308
H   H28       1.0  0.46107  0.71980  0.96133  1.0000 0.1114681308
H   H29       1.0  0.64041  0.71850  0.96900  1.0000 0.118441005
H   H30       1.0  0.83863  0.95619  0.17888  1.0000 0.118441005
H   H31       1.0  0.00967  0.93345  0.18142  1.0000 0.1114681308
H   H32       1.0  0.87367  0.85323  0.12752  1.0000 0.118441005
H   H33       1.0  0.25153  0.04248  0.16341  1.0000 0.118441005
H   H34       1.0  0.19142  0.13532  0.27304  1.0000 0.118441005
H   H35       1.0  0.47230  0.10730  0.97688  1.0000 0.3295039388
H   H36       1.0  0.02119  0.05620  0.92852  1.0000 0.3190253528
H   H37       1.0  0.56167  0.41935  0.63151  1.0000 0.1282952803
H   H38       1.0  0.51056  0.59274  0.68148  1.0000 0.1282952803
H   H39       1.0  0.62992  0.20109  0.45820  1.0000 0.1114681308
H   H40       1.0  0.60889  0.06856  0.50113  1.0000 0.1114681308
H   H41       1.0  0.71232  0.09097  0.62018  1.0000 0.1114681308
H   H42       1.0  0.83879  0.24628  0.69696  1.0000 0.1114681308
H   H43       1.0  0.85280  0.37906  0.65407  1.0000 0.1114681308
H   H44       1.0  0.92661  0.25144  0.44814  1.0000 0.1282952803
H   H45       1.0  0.99426  0.27916  0.34018  1.0000 0.1282952803
H   H46       1.0  0.15531  0.38858  0.28013  1.0000 0.118441005
H   H47       1.0  0.20752  0.27107  0.17929  1.0000 0.118441005
H   H48       1.0  0.76786  0.22792  0.08280  1.0000 0.118441005
H   H49       1.0  0.71573  0.34882  0.18460  1.0000 0.118441005
H   H50       1.0  0.86608  0.53887  0.20878  1.0000 0.1282952803
H   H51       1.0  0.81346  0.71059  0.25474  1.0000 0.118441005
H   H52       1.0  0.98596  0.92435  0.41996  1.0000 0.118441005
H   H53       1.0  0.98196  0.06292  0.38289  1.0000 0.1114681308
H   H54       1.0  0.76397  0.08200  0.31525  1.0000 0.118441005
H   H55       1.0  0.54693  0.96373  0.28434  1.0000 0.1114681308
H   H56       1.0  0.55281  0.82417  0.31886  1.0000 0.118441005
H   H57       1.0  0.73552  0.94772  0.51274  1.0000 0.118441005
H   H58       1.0  0.67875  0.92043  0.62317  1.0000 0.118441005
H   H59       1.0  0.37302  0.72482  0.66399  1.0000 0.118441005
H   H60       1.0  0.31393  0.82153  0.77273  1.0000 0.1114681308
H   H61       1.0  0.44612  0.24789  0.09293  1.0000 0.1114681308
H   H62       1.0  0.53893  0.28020  0.03867  1.0000 0.1114681308
H   H63       1.0  0.35959  0.28150  0.03100  1.0000 0.118441005
H   H64       1.0  0.16137  0.04381  0.82112  1.0000 0.118441005
H   H65       1.0  0.99033  0.06655  0.81858  1.0000 0.1114681308
H   H66       1.0  0.12633  0.14677  0.87248  1.0000 0.118441005
H   H67       1.0  0.74847  0.95752  0.83659  1.0000 0.118441005
H   H68       1.0  0.80858  0.86468  0.72696  1.0000 0.118441005
C   C1        1.0  0.37280  0.38050  0.39990  1.0000 0.172531754
C   C2        1.0  0.36330  0.27940  0.38540  1.0000 -0.0821051744
C   C3        1.0  0.31050  0.23180  0.43090  1.0000 0.1821000951
C   C4        1.0  0.25450  0.20770  0.52910  1.0000 0.1821000951
C   C5        1.0  0.23130  0.22490  0.60030  1.0000 -0.0656643061
C   C6        1.0  0.20960  0.31510  0.64680  1.0000 0.172531754
C   C7        1.0  0.15590  0.46630  0.68550  1.0000 0.1877047124
C   C8        1.0  0.11300  0.55680  0.68700  1.0000 -0.0821051744
C   C9        1.0  0.11060  0.59180  0.62890  1.0000 0.172531754
C   C10       1.0  0.17390  0.61360  0.53130  1.0000 0.2003957929
C   C11       1.0  0.25010  0.61150  0.47400  1.0000 -0.0821051744
C   C12       1.0  0.32190  0.53050  0.44090  1.0000 0.2174683215
C   C13       1.0  0.40790  0.52750  0.38420  1.0000 -0.2201155273
C   C14       1.0  0.43710  0.43320  0.35750  1.0000 -0.1984966395
C   C15       1.0  0.25670  0.69650  0.44720  1.0000 0.0933848696
C   C16       1.0  0.32880  0.78940  0.49300  1.0000 -0.1291968187
C   C17       1.0  0.34070  0.86850  0.46760  1.0000 -0.0919134416
C   C18       1.0  0.27940  0.85530  0.39720  1.0000 -0.1186080871
C   C19       1.0  0.20530  0.76300  0.35140  1.0000 -0.0919134416
C   C20       1.0  0.19620  0.68420  0.37740  1.0000 -0.1291968187
C   C21       1.0  0.09440  0.69510  0.56760  1.0000 -0.2087870462
C   C22       1.0  0.05790  0.68010  0.62590  1.0000 -0.1806658951
C   C23       1.0  0.07170  0.62240  0.75540  1.0000 0.0933848696
C   C24       1.0  0.92460  0.64520  0.75930  1.0000 -0.149495933
C   C25       1.0  0.89340  0.71510  0.81880  1.0000 -0.0979311222
C   C26       1.0  0.01020  0.76600  0.87670  1.0000 -0.0331644907
C   C27       1.0  0.97800  0.84920  0.93890  1.0000 0.5679299685
C   C28       1.0  0.15430  0.74070  0.87630  1.0000 -0.0979311222
C   C29       1.0  0.18510  0.66870  0.81560  1.0000 -0.1615925131
C   C30       1.0  0.15320  0.42740  0.74420  1.0000 -0.1906458323
C   C31       1.0  0.18330  0.33420  0.71940  1.0000 -0.1806658951
C   C32       1.0  0.23270  0.13880  0.62640  1.0000 0.0830397161
C   C33       1.0  0.10370  0.06800  0.60770  1.0000 -0.149495933
C   C34       1.0  0.10610  0.98530  0.62990  1.0000 -0.0919134416
C   C35       1.0  0.23470  0.97390  0.66980  1.0000 -0.1108953392
C   C36       1.0  0.36300  0.04430  0.68840  1.0000 -0.0979311222
C   C37       1.0  0.35970  0.12700  0.66710  1.0000 -0.149495933
C   C38       1.0  0.27320  0.11340  0.47910  1.0000 -0.1906458323
C   C39       1.0  0.30510  0.12850  0.41940  1.0000 -0.2087870462
C   C40       1.0  0.40260  0.21660  0.31630  1.0000 0.0977000298
C   C41       1.0  0.55000  0.22780  0.30110  1.0000 -0.149495933
C   C42       1.0  0.58510  0.17080  0.23620  1.0000 -0.1108953392
C   C43       1.0  0.47320  0.10250  0.18410  1.0000 -0.0331644907
C   C44       1.0  0.51120  0.04240  0.11170  1.0000 0.562657878
C   C45       1.0  0.55780  0.75290  0.95690  1.0000 -0.1906458323
C   C46       1.0  0.91100  0.92390  0.15000  1.0000 -0.1906458323
C   C47       1.0  0.32790  0.09000  0.19870  1.0000 -0.0979311222
C   C48       1.0  0.29170  0.14540  0.26380  1.0000 -0.1615925131
C   C49       1.0  0.62720  0.61950  0.60010  1.0000 0.172531754
C   C50       1.0  0.63670  0.72060  0.61460  1.0000 -0.0821051744
C   C51       1.0  0.68950  0.76820  0.56910  1.0000 0.1821000951
C   C52       1.0  0.74550  0.79230  0.47090  1.0000 0.1821000951
C   C53       1.0  0.76870  0.77510  0.39970  1.0000 -0.0656643061
C   C54       1.0  0.79040  0.68490  0.35320  1.0000 0.172531754
C   C55       1.0  0.84410  0.53370  0.31450  1.0000 0.1877047124
C   C56       1.0  0.88700  0.44320  0.31300  1.0000 -0.0821051744
C   C57       1.0  0.88940  0.40820  0.37110  1.0000 0.172531754
C   C58       1.0  0.82610  0.38640  0.46870  1.0000 0.2003957929
C   C59       1.0  0.74990  0.38850  0.52600  1.0000 -0.0821051744
C   C60       1.0  0.67810  0.46950  0.55910  1.0000 0.2174683215
C   C61       1.0  0.59210  0.47250  0.61580  1.0000 -0.2201155273
C   C62       1.0  0.56290  0.56680  0.64250  1.0000 -0.1984966395
C   C63       1.0  0.74330  0.30350  0.55280  1.0000 0.0933848696
C   C64       1.0  0.67120  0.21060  0.50700  1.0000 -0.1291968187
C   C65       1.0  0.65930  0.13150  0.53240  1.0000 -0.0919134416
C   C66       1.0  0.72060  0.14470  0.60280  1.0000 -0.1186080871
C   C67       1.0  0.79470  0.23700  0.64860  1.0000 -0.0919134416
C   C68       1.0  0.80380  0.31580  0.62260  1.0000 -0.1291968187
C   C69       1.0  0.90560  0.30490  0.43240  1.0000 -0.2087870462
C   C70       1.0  0.94210  0.31990  0.37410  1.0000 -0.1806658951
C   C71       1.0  0.92830  0.37760  0.24460  1.0000 0.0933848696
C   C72       1.0  0.07540  0.35480  0.24070  1.0000 -0.149495933
C   C73       1.0  0.10660  0.28490  0.18120  1.0000 -0.0979311222
C   C74       1.0  0.98980  0.23400  0.12330  1.0000 -0.0331644907
C   C75       1.0  0.02200  0.15080  0.06110  1.0000 0.5679299685
C   C76       1.0  0.84570  0.25930  0.12370  1.0000 -0.0979311222
C   C77       1.0  0.81490  0.33130  0.18440  1.0000 -0.1615925131
C   C78       1.0  0.84680  0.57260  0.25580  1.0000 -0.1906458323
C   C79       1.0  0.81670  0.66580  0.28060  1.0000 -0.1806658951
C   C80       1.0  0.76730  0.86120  0.37360  1.0000 0.0830397161
C   C81       1.0  0.89630  0.93200  0.39230  1.0000 -0.149495933
C   C82       1.0  0.89390  0.01470  0.37010  1.0000 -0.0919134416
C   C83       1.0  0.76530  0.02610  0.33020  1.0000 -0.1108953392
C   C84       1.0  0.63700  0.95570  0.31160  1.0000 -0.0979311222
C   C85       1.0  0.64030  0.87300  0.33290  1.0000 -0.149495933
C   C86       1.0  0.72680  0.88660  0.52090  1.0000 -0.1906458323
C   C87       1.0  0.69490  0.87150  0.58060  1.0000 -0.2087870462
C   C88       1.0  0.59740  0.78340  0.68370  1.0000 0.0977000298
C   C89       1.0  0.45000  0.77220  0.69890  1.0000 -0.149495933
C   C90       1.0  0.41490  0.82920  0.76380  1.0000 -0.1108953392
C   C91       1.0  0.52680  0.89750  0.81590  1.0000 -0.0331644907
C   C92       1.0  0.48880  0.95760  0.88830  1.0000 0.562657878
C   C93       1.0  0.44220  0.24710  0.04310  1.0000 -0.1906458323
C   C94       1.0  0.08900  0.07610  0.85000  1.0000 -0.1906458323
C   C95       1.0  0.67210  0.91000  0.80130  1.0000 -0.0979311222
C   C96       1.0  0.70830  0.85460  0.73620  1.0000 -0.1615925131
N   N1        1.0  0.31200  0.44610  0.45280  1.0000 -0.3496243877
N   N2        1.0  0.27470  0.27770  0.49730  1.0000 -0.3723154811
N   N3        1.0  0.19710  0.39840  0.62810  1.0000 -0.3785818068
N   N4        1.0  0.17530  0.55180  0.56880  1.0000 -0.3636603502
N   N5        1.0  0.68800  0.55390  0.54720  1.0000 -0.3496243877
N   N6        1.0  0.72530  0.72230  0.50270  1.0000 -0.3723154811
N   N7        1.0  0.80290  0.60160  0.37190  1.0000 -0.3785818068
N   N8        1.0  0.82470  0.44820  0.43120  1.0000 -0.3636603502
O   O1        1.0  0.09040  0.89890  0.98800  1.0000 -0.5813609111
O   O2        1.0  0.84700  0.86740  0.93910  1.0000 -0.5417400745
O   O3        1.0  0.64430  0.05290  0.10340  1.0000 -0.5417400745
O   O4        1.0  0.58390  0.85100  0.00450  1.0000 -0.3974508194
O   O5        1.0  0.92850  0.96370  0.09770  1.0000 -0.3496243877
O   O6        1.0  0.40260  0.98550  0.06410  1.0000 -0.5813609111
O   O7        1.0  0.90960  0.10110  0.01200  1.0000 -0.5813609111
O   O8        1.0  0.15300  0.13260  0.06090  1.0000 -0.5417400745
O   O9        1.0  0.35570  0.94710  0.89660  1.0000 -0.5417400745
O   O10       1.0  0.41610  0.14900  0.99550  1.0000 -0.3974508194
O   O11       1.0  0.07150  0.03630  0.90230  1.0000 -0.3496243877
O   O12       1.0  0.59740  0.01450  0.93590  1.0000 -0.5747840551
