# DDEC6 charges by PACMAN v1.1 (https://github.com/mtap-research/PACMAN-charge/)
data_2021[Cd][sql]2[FSR]6
_chemical_formula_sum              "Cd8 H80 C112 N32 O56"
_cell_length_a       13.3551
_cell_length_b       19.2254
_cell_length_c       18.9555
_cell_angle_alpha    90
_cell_angle_beta     126.352
_cell_angle_gamma    90

_symmetry_space_group_name_H-M    "P 1"
_symmetry_Int_Tables_number       1

loop_
  _symmetry_equiv_pos_as_xyz
  'x, y, z'

loop_
  _atom_site_type_symbol
  _atom_site_label
  _atom_site_symmetry_multiplicity
  _atom_site_fract_x
  _atom_site_fract_y
  _atom_site_fract_z
  _atom_site_occupancy
  _atom_site_charge
Cd  Cd1       1.0  0.36164  0.28443  0.21539  1.0000 0.8326735842
Cd  Cd2       1.0  0.63836  0.78443  0.28461  1.0000 0.8326735842
Cd  Cd3       1.0  0.63836  0.71557  0.78461  1.0000 0.8326735842
Cd  Cd4       1.0  0.36164  0.21557  0.71539  1.0000 0.8326735842
Cd  Cd5       1.0  0.85598  0.20520  0.21496  1.0000 0.8326735842
Cd  Cd6       1.0  0.14402  0.70520  0.28504  1.0000 0.8326735842
Cd  Cd7       1.0  0.14402  0.79480  0.78504  1.0000 0.8326735842
Cd  Cd8       1.0  0.85598  0.29480  0.71496  1.0000 0.8326735842
H   H1        1.0  0.48082  0.18594  0.61166  1.0000 0.109599223
H   H2        1.0  0.16054  0.27041  0.51535  1.0000 0.109599223
H   H3        1.0  0.46484  0.21277  0.48732  1.0000 0.1314970754
H   H4        1.0  0.11188  0.30099  0.15401  1.0000 0.2613949153
H   H5        1.0  0.16940  0.36733  0.19203  1.0000 0.2701873886
H   H6        1.0  0.12669  0.30951  0.27862  1.0000 0.2701873886
H   H7        1.0  0.13421  0.29902  0.38892  1.0000 0.1433607182
H   H8        1.0  0.87354  0.57671  0.37662  1.0000 0.1314970754
H   H9        1.0  0.51409  0.52942  0.25826  1.0000 0.1314970754
H   H10       1.0  0.76710  0.37681  0.34712  1.0000 0.1314970754
H   H11       1.0  0.51918  0.68594  0.88834  1.0000 0.109599223
H   H12       1.0  0.83946  0.77041  0.98465  1.0000 0.109599223
H   H13       1.0  0.53516  0.71277  0.01268  1.0000 0.1314970754
H   H14       1.0  0.88812  0.80099  0.34599  1.0000 0.2613949153
H   H15       1.0  0.83060  0.86733  0.30797  1.0000 0.2701873886
H   H16       1.0  0.87331  0.80951  0.22138  1.0000 0.2701873886
H   H17       1.0  0.86579  0.79902  0.11108  1.0000 0.1433607182
H   H18       1.0  0.12646  0.07671  0.12338  1.0000 0.1314970754
H   H19       1.0  0.48591  0.02942  0.24174  1.0000 0.1314970754
H   H20       1.0  0.23290  0.87681  0.15288  1.0000 0.1314970754
H   H21       1.0  0.51918  0.81406  0.38834  1.0000 0.109599223
H   H22       1.0  0.83946  0.72959  0.48465  1.0000 0.109599223
H   H23       1.0  0.53516  0.78723  0.51268  1.0000 0.1314970754
H   H24       1.0  0.88812  0.69901  0.84599  1.0000 0.2613949153
H   H25       1.0  0.83060  0.63267  0.80797  1.0000 0.2701873886
H   H26       1.0  0.87331  0.69049  0.72138  1.0000 0.2701873886
H   H27       1.0  0.86579  0.70098  0.61108  1.0000 0.1433607182
H   H28       1.0  0.12646  0.42329  0.62338  1.0000 0.1314970754
H   H29       1.0  0.48591  0.47058  0.74174  1.0000 0.1314970754
H   H30       1.0  0.23290  0.62319  0.65288  1.0000 0.1314970754
H   H31       1.0  0.48082  0.31406  0.11166  1.0000 0.109599223
H   H32       1.0  0.16054  0.22959  0.01535  1.0000 0.109599223
H   H33       1.0  0.46484  0.28723  0.98732  1.0000 0.1314970754
H   H34       1.0  0.11188  0.19901  0.65401  1.0000 0.2613949153
H   H35       1.0  0.16940  0.13267  0.69203  1.0000 0.2701873886
H   H36       1.0  0.12669  0.19049  0.77862  1.0000 0.2701873886
H   H37       1.0  0.13421  0.20098  0.88892  1.0000 0.1433607182
H   H38       1.0  0.87354  0.92329  0.87662  1.0000 0.1314970754
H   H39       1.0  0.51409  0.97058  0.75826  1.0000 0.1314970754
H   H40       1.0  0.76710  0.12319  0.84712  1.0000 0.1314970754
H   H41       1.0  0.68789  0.11626  0.21100  1.0000 0.2701873886
H   H42       1.0  0.61582  0.17647  0.16159  1.0000 0.2701873886
H   H43       1.0  0.62753  0.18435  0.28246  1.0000 0.2701873886
H   H44       1.0  0.26333  0.11478  0.34571  1.0000 0.1314970754
H   H45       1.0  0.01070  0.96118  0.25742  1.0000 0.1314970754
H   H46       1.0  0.63263  0.20094  0.39212  1.0000 0.1433607182
H   H47       1.0  0.96636  0.28243  0.49042  1.0000 0.1314970754
H   H48       1.0  0.65388  0.23789  0.51491  1.0000 0.109599223
H   H49       1.0  0.97789  0.31838  0.61016  1.0000 0.109599223
H   H50       1.0  0.36960  0.91487  0.37486  1.0000 0.1314970754
H   H51       1.0  0.31211  0.61626  0.28900  1.0000 0.2701873886
H   H52       1.0  0.38418  0.67647  0.33841  1.0000 0.2701873886
H   H53       1.0  0.37247  0.68435  0.21754  1.0000 0.2701873886
H   H54       1.0  0.73667  0.61478  0.15429  1.0000 0.1314970754
H   H55       1.0  0.98930  0.46118  0.24258  1.0000 0.1314970754
H   H56       1.0  0.36737  0.70094  0.10788  1.0000 0.1433607182
H   H57       1.0  0.03364  0.78243  0.00958  1.0000 0.1314970754
H   H58       1.0  0.34612  0.73789  0.98509  1.0000 0.109599223
H   H59       1.0  0.02211  0.81838  0.88984  1.0000 0.109599223
H   H60       1.0  0.63040  0.41487  0.12514  1.0000 0.1314970754
H   H61       1.0  0.31211  0.88374  0.78900  1.0000 0.2701873886
H   H62       1.0  0.38418  0.82353  0.83841  1.0000 0.2701873886
H   H63       1.0  0.37247  0.81565  0.71754  1.0000 0.2701873886
H   H64       1.0  0.73667  0.88522  0.65429  1.0000 0.1314970754
H   H65       1.0  0.98930  0.03882  0.74258  1.0000 0.1314970754
H   H66       1.0  0.36737  0.79906  0.60788  1.0000 0.1433607182
H   H67       1.0  0.03364  0.71757  0.50958  1.0000 0.1314970754
H   H68       1.0  0.34612  0.76211  0.48509  1.0000 0.109599223
H   H69       1.0  0.02211  0.68162  0.38984  1.0000 0.109599223
H   H70       1.0  0.63040  0.08513  0.62514  1.0000 0.1314970754
H   H71       1.0  0.68789  0.38374  0.71100  1.0000 0.2701873886
H   H72       1.0  0.61582  0.32353  0.66159  1.0000 0.2701873886
H   H73       1.0  0.62753  0.31565  0.78246  1.0000 0.2701873886
H   H74       1.0  0.26333  0.38522  0.84571  1.0000 0.1314970754
H   H75       1.0  0.01070  0.53882  0.75742  1.0000 0.1314970754
H   H76       1.0  0.63263  0.29906  0.89212  1.0000 0.1433607182
H   H77       1.0  0.96636  0.21757  0.99042  1.0000 0.1314970754
H   H78       1.0  0.65388  0.26211  0.01491  1.0000 0.109599223
H   H79       1.0  0.97789  0.18162  0.11016  1.0000 0.109599223
H   H80       1.0  0.36960  0.58513  0.87486  1.0000 0.1314970754
C   C1        1.0  0.41030  0.20920  0.56640  1.0000 0.0786903548
C   C2        1.0  0.22290  0.25860  0.50960  1.0000 0.0893947483
C   C3        1.0  0.40130  0.22520  0.49160  1.0000 -0.1588832167
C   C4        1.0  0.20600  0.27620  0.43340  1.0000 -0.1410117109
C   C5        1.0  0.29850  0.25940  0.42400  1.0000 0.0377875316
C   C6        1.0  0.29570  0.27860  0.34590  1.0000 0.4209030393
C   C7        1.0  0.52780  0.38970  0.26900  1.0000 0.5374310437
C   C8        1.0  0.62550  0.44480  0.29880  1.0000 0.006609922
C   C9        1.0  0.81060  0.54410  0.35660  1.0000 -0.1410117109
C   C10       1.0  0.83730  0.47370  0.36810  1.0000 0.0512170308
C   C11       1.0  0.68900  0.56520  0.31510  1.0000 -0.0096071727
C   C12       1.0  0.59600  0.51540  0.28610  1.0000 -0.1131629543
C   C13       1.0  0.74670  0.42380  0.33930  1.0000 -0.1410117109
C   C14       1.0  0.66020  0.64160  0.30010  1.0000 0.5457337546
C   C15       1.0  0.58970  0.70920  0.93360  1.0000 0.0786903548
C   C16       1.0  0.77710  0.75860  0.99040  1.0000 0.0893947483
C   C17       1.0  0.59870  0.72520  0.00840  1.0000 -0.1588832167
C   C18       1.0  0.79400  0.77620  0.06660  1.0000 -0.1410117109
C   C19       1.0  0.70150  0.75940  0.07600  1.0000 0.0377875316
C   C20       1.0  0.70430  0.77860  0.15410  1.0000 0.4209030393
C   C21       1.0  0.47220  0.88970  0.23100  1.0000 0.5374310437
C   C22       1.0  0.37450  0.94480  0.20120  1.0000 0.006609922
C   C23       1.0  0.18940  0.04410  0.14340  1.0000 -0.1410117109
C   C24       1.0  0.16270  0.97370  0.13190  1.0000 0.0512170308
C   C25       1.0  0.31100  0.06520  0.18490  1.0000 -0.0096071727
C   C26       1.0  0.40400  0.01540  0.21390  1.0000 -0.1131629543
C   C27       1.0  0.25330  0.92380  0.16070  1.0000 -0.1410117109
C   C28       1.0  0.33980  0.14160  0.19990  1.0000 0.5457337546
C   C29       1.0  0.58970  0.79080  0.43360  1.0000 0.0786903548
C   C30       1.0  0.77710  0.74140  0.49040  1.0000 0.0893947483
C   C31       1.0  0.59870  0.77480  0.50840  1.0000 -0.1588832167
C   C32       1.0  0.79400  0.72380  0.56660  1.0000 -0.1410117109
C   C33       1.0  0.70150  0.74060  0.57600  1.0000 0.0377875316
C   C34       1.0  0.70430  0.72140  0.65410  1.0000 0.4209030393
C   C35       1.0  0.47220  0.61030  0.73100  1.0000 0.5374310437
C   C36       1.0  0.37450  0.55520  0.70120  1.0000 0.006609922
C   C37       1.0  0.18940  0.45590  0.64340  1.0000 -0.1410117109
C   C38       1.0  0.16270  0.52630  0.63190  1.0000 0.0512170308
C   C39       1.0  0.31100  0.43480  0.68490  1.0000 -0.0096071727
C   C40       1.0  0.40400  0.48460  0.71390  1.0000 -0.1131629543
C   C41       1.0  0.25330  0.57620  0.66070  1.0000 -0.1410117109
C   C42       1.0  0.33980  0.35840  0.69990  1.0000 0.5457337546
C   C43       1.0  0.41030  0.29080  0.06640  1.0000 0.0786903548
C   C44       1.0  0.22290  0.24140  0.00960  1.0000 0.0893947483
C   C45       1.0  0.40130  0.27480  0.99160  1.0000 -0.1588832167
C   C46       1.0  0.20600  0.22380  0.93340  1.0000 -0.1410117109
C   C47       1.0  0.29850  0.24060  0.92400  1.0000 0.0377875316
C   C48       1.0  0.29570  0.22140  0.84590  1.0000 0.4209030393
C   C49       1.0  0.52780  0.11030  0.76900  1.0000 0.5374310437
C   C50       1.0  0.62550  0.05520  0.79880  1.0000 0.006609922
C   C51       1.0  0.81060  0.95590  0.85660  1.0000 -0.1410117109
C   C52       1.0  0.83730  0.02630  0.86810  1.0000 0.0512170308
C   C53       1.0  0.68900  0.93480  0.81510  1.0000 -0.0096071727
C   C54       1.0  0.59600  0.98460  0.78610  1.0000 -0.1131629543
C   C55       1.0  0.74670  0.07620  0.83930  1.0000 -0.1410117109
C   C56       1.0  0.66020  0.85840  0.80010  1.0000 0.5457337546
C   C57       1.0  0.02300  0.10180  0.26520  1.0000 0.5344820442
C   C58       1.0  0.79770  0.21200  0.35170  1.0000 0.4209030393
C   C59       1.0  0.12090  0.04690  0.29560  1.0000 0.006609922
C   C60       1.0  0.79890  0.23630  0.42810  1.0000 0.0377875316
C   C61       1.0  0.24260  0.06780  0.33710  1.0000 -0.1410117109
C   C62       1.0  0.09230  0.97550  0.28410  1.0000 -0.1131629543
C   C63       1.0  0.70430  0.22410  0.43600  1.0000 -0.1410117109
C   C64       1.0  0.90160  0.27250  0.49430  1.0000 -0.1687832502
C   C65       1.0  0.33260  0.01750  0.36540  1.0000 0.0559308483
C   C66       1.0  0.18480  0.92620  0.31210  1.0000 -0.0096071727
C   C67       1.0  0.71790  0.24690  0.51000  1.0000 0.0893947483
C   C68       1.0  0.90800  0.29390  0.56620  1.0000 0.0786903548
C   C69       1.0  0.30640  0.94740  0.35430  1.0000 -0.1455125389
C   C70       1.0  0.15590  0.84940  0.29670  1.0000 0.5457337546
C   C71       1.0  0.97700  0.60180  0.23480  1.0000 0.5344820442
C   C72       1.0  0.20230  0.71200  0.14830  1.0000 0.4209030393
C   C73       1.0  0.87910  0.54690  0.20440  1.0000 0.006609922
C   C74       1.0  0.20110  0.73630  0.07190  1.0000 0.0377875316
C   C75       1.0  0.75740  0.56780  0.16290  1.0000 -0.1410117109
C   C76       1.0  0.90770  0.47550  0.21590  1.0000 -0.1131629543
C   C77       1.0  0.29570  0.72410  0.06400  1.0000 -0.1410117109
C   C78       1.0  0.09840  0.77250  0.00570  1.0000 -0.1687832502
C   C79       1.0  0.66740  0.51750  0.13460  1.0000 0.0559308483
C   C80       1.0  0.81520  0.42620  0.18790  1.0000 -0.0096071727
C   C81       1.0  0.28210  0.74690  0.99000  1.0000 0.0893947483
C   C82       1.0  0.09200  0.79390  0.93380  1.0000 0.0786903548
C   C83       1.0  0.69360  0.44740  0.14570  1.0000 -0.1455125389
C   C84       1.0  0.84410  0.34940  0.20330  1.0000 0.5457337546
C   C85       1.0  0.97700  0.89820  0.73480  1.0000 0.5344820442
C   C86       1.0  0.20230  0.78800  0.64830  1.0000 0.4209030393
C   C87       1.0  0.87910  0.95310  0.70440  1.0000 0.006609922
C   C88       1.0  0.20110  0.76370  0.57190  1.0000 0.0377875316
C   C89       1.0  0.75740  0.93220  0.66290  1.0000 -0.1410117109
C   C90       1.0  0.90770  0.02450  0.71590  1.0000 -0.1131629543
C   C91       1.0  0.29570  0.77590  0.56400  1.0000 -0.1410117109
C   C92       1.0  0.09840  0.72750  0.50570  1.0000 -0.1687832502
C   C93       1.0  0.66740  0.98250  0.63460  1.0000 0.0559308483
C   C94       1.0  0.81520  0.07380  0.68790  1.0000 -0.0096071727
C   C95       1.0  0.28210  0.75310  0.49000  1.0000 0.0893947483
C   C96       1.0  0.09200  0.70610  0.43380  1.0000 0.0786903548
C   C97       1.0  0.69360  0.05260  0.64570  1.0000 -0.1455125389
C   C98       1.0  0.84410  0.15060  0.70330  1.0000 0.5457337546
C   C99       1.0  0.02300  0.39820  0.76520  1.0000 0.5344820442
C   C100      1.0  0.79770  0.28800  0.85170  1.0000 0.4209030393
C   C101      1.0  0.12090  0.45310  0.79560  1.0000 0.006609922
C   C102      1.0  0.79890  0.26370  0.92810  1.0000 0.0377875316
C   C103      1.0  0.24260  0.43220  0.83710  1.0000 -0.1410117109
C   C104      1.0  0.09230  0.52450  0.78410  1.0000 -0.1131629543
C   C105      1.0  0.70430  0.27590  0.93600  1.0000 -0.1410117109
C   C106      1.0  0.90160  0.22750  0.99430  1.0000 -0.1687832502
C   C107      1.0  0.33260  0.48250  0.86540  1.0000 0.0559308483
C   C108      1.0  0.18480  0.57380  0.81210  1.0000 -0.0096071727
C   C109      1.0  0.71790  0.25310  0.01000  1.0000 0.0893947483
C   C110      1.0  0.90800  0.20610  0.06620  1.0000 0.0786903548
C   C111      1.0  0.30640  0.55260  0.85430  1.0000 -0.1455125389
C   C112      1.0  0.15590  0.65060  0.79670  1.0000 0.5457337546
N   N1        1.0  0.17850  0.32150  0.20030  1.0000 -0.407102513
N   N2        1.0  0.32280  0.22560  0.57650  1.0000 -0.2365882237
N   N3        1.0  0.18890  0.30390  0.27670  1.0000 -0.1977897369
N   N4        1.0  0.96620  0.45220  0.41070  1.0000 0.4944931689
N   N5        1.0  0.82150  0.82150  0.29970  1.0000 -0.407102513
N   N6        1.0  0.67720  0.72560  0.92350  1.0000 -0.2365882237
N   N7        1.0  0.81110  0.80390  0.22330  1.0000 -0.1977897369
N   N8        1.0  0.03380  0.95220  0.08930  1.0000 0.4966130875
N   N9        1.0  0.82150  0.67850  0.79970  1.0000 -0.407102513
N   N10       1.0  0.67720  0.77440  0.42350  1.0000 -0.2365882237
N   N11       1.0  0.81110  0.69610  0.72330  1.0000 -0.1977897369
N   N12       1.0  0.03380  0.54780  0.58930  1.0000 0.4966130875
N   N13       1.0  0.17850  0.17850  0.70030  1.0000 -0.407102513
N   N14       1.0  0.32280  0.27440  0.07650  1.0000 -0.2365882237
N   N15       1.0  0.18890  0.19610  0.77670  1.0000 -0.1977897369
N   N16       1.0  0.96620  0.04780  0.91070  1.0000 0.4944931689
N   N17       1.0  0.68670  0.16260  0.21080  1.0000 -0.4018772868
N   N18       1.0  0.81790  0.28110  0.57540  1.0000 -0.2365882237
N   N19       1.0  0.69220  0.18640  0.28290  1.0000 -0.1977897369
N   N20       1.0  0.46270  0.03910  0.40920  1.0000 0.4966130875
N   N21       1.0  0.31330  0.66260  0.28920  1.0000 -0.4018772868
N   N22       1.0  0.18210  0.78110  0.92460  1.0000 -0.2365882237
N   N23       1.0  0.30780  0.68640  0.21710  1.0000 -0.1977897369
N   N24       1.0  0.53730  0.53910  0.09080  1.0000 0.4966130875
N   N25       1.0  0.31330  0.83740  0.78920  1.0000 -0.4018772868
N   N26       1.0  0.18210  0.71890  0.42460  1.0000 -0.2365882237
N   N27       1.0  0.30780  0.81360  0.71710  1.0000 -0.1977897369
N   N28       1.0  0.53730  0.96090  0.59080  1.0000 0.4966130875
N   N29       1.0  0.68670  0.33740  0.71080  1.0000 -0.4018772868
N   N30       1.0  0.81790  0.21890  0.07540  1.0000 -0.2365882237
N   N31       1.0  0.69220  0.31360  0.78290  1.0000 -0.1977897369
N   N32       1.0  0.46270  0.46090  0.90920  1.0000 0.4966130875
O   O1        1.0  0.38920  0.27090  0.34860  1.0000 -0.4528347727
O   O2        1.0  0.55670  0.32802  0.27530  1.0000 -0.5301055786
O   O3        1.0  0.41720  0.40870  0.23360  1.0000 -0.541335958
O   O4        1.0  0.75100  0.68154  0.32550  1.0000 -0.549308556
O   O5        1.0  0.55220  0.66300  0.26440  1.0000 -0.5563869056
O   O6        1.0  0.99090  0.39080  0.41990  1.0000 -0.3012101007
O   O7        1.0  0.04400  0.49760  0.43470  1.0000 -0.3091827748
O   O8        1.0  0.61080  0.77090  0.15140  1.0000 -0.4528347727
O   O9        1.0  0.44330  0.82802  0.22470  1.0000 -0.5301055786
O   O10       1.0  0.58280  0.90870  0.26640  1.0000 -0.541335958
O   O11       1.0  0.24900  0.18154  0.17450  1.0000 -0.549308556
O   O12       1.0  0.44780  0.16300  0.23560  1.0000 -0.5563869056
O   O13       1.0  0.00910  0.89080  0.08010  1.0000 -0.3012101007
O   O14       1.0  0.95600  0.99760  0.06530  1.0000 -0.3091827748
O   O15       1.0  0.61080  0.72910  0.65140  1.0000 -0.4528347727
O   O16       1.0  0.44330  0.67198  0.72470  1.0000 -0.5301055786
O   O17       1.0  0.58280  0.59130  0.76640  1.0000 -0.541335958
O   O18       1.0  0.24900  0.31846  0.67450  1.0000 -0.549308556
O   O19       1.0  0.44780  0.33700  0.73560  1.0000 -0.5563869056
O   O20       1.0  0.00910  0.60920  0.58010  1.0000 -0.3012101007
O   O21       1.0  0.95600  0.50240  0.56530  1.0000 -0.3091827748
O   O22       1.0  0.38920  0.22910  0.84860  1.0000 -0.4528347727
O   O23       1.0  0.55670  0.17198  0.77530  1.0000 -0.5301055786
O   O24       1.0  0.41720  0.09130  0.73360  1.0000 -0.541335958
O   O25       1.0  0.75100  0.81846  0.82550  1.0000 -0.549308556
O   O26       1.0  0.55220  0.83700  0.76440  1.0000 -0.5563869056
O   O27       1.0  0.99090  0.10920  0.91990  1.0000 -0.3012101007
O   O28       1.0  0.04400  0.00240  0.93470  1.0000 -0.3091827748
O   O29       1.0  0.05230  0.16300  0.27550  1.0000 -0.5162624893
O   O30       1.0  0.91230  0.08160  0.22950  1.0000 -0.549308556
O   O31       1.0  0.89330  0.21600  0.35580  1.0000 -0.4577911076
O   O32       1.0  0.24530  0.80981  0.31930  1.0000 -0.541335958
O   O33       1.0  0.04910  0.82800  0.26440  1.0000 -0.5563869056
O   O34       1.0  0.48650  0.10090  0.41820  1.0000 -0.3091827748
O   O35       1.0  0.54060  0.99390  0.43290  1.0000 -0.3091827748
O   O36       1.0  0.94770  0.66300  0.22450  1.0000 -0.5162624893
O   O37       1.0  0.08770  0.58160  0.27050  1.0000 -0.549308556
O   O38       1.0  0.10670  0.71600  0.14420  1.0000 -0.4577911076
O   O39       1.0  0.75470  0.30981  0.18070  1.0000 -0.541335958
O   O40       1.0  0.95090  0.32800  0.23560  1.0000 -0.5563869056
O   O41       1.0  0.51350  0.60090  0.08180  1.0000 -0.3091827748
O   O42       1.0  0.45940  0.49390  0.06710  1.0000 -0.3150049624
O   O43       1.0  0.94770  0.83700  0.72450  1.0000 -0.5162624893
O   O44       1.0  0.08770  0.91840  0.77050  1.0000 -0.549308556
O   O45       1.0  0.10670  0.78400  0.64420  1.0000 -0.4577911076
O   O46       1.0  0.75470  0.19019  0.68070  1.0000 -0.541335958
O   O47       1.0  0.95090  0.17200  0.73560  1.0000 -0.5563869056
O   O48       1.0  0.51350  0.89910  0.58180  1.0000 -0.3091827748
O   O49       1.0  0.45940  0.00610  0.56710  1.0000 -0.3150049624
O   O50       1.0  0.05230  0.33700  0.77550  1.0000 -0.5162624893
O   O51       1.0  0.91230  0.41840  0.72950  1.0000 -0.549308556
O   O52       1.0  0.89330  0.28400  0.85580  1.0000 -0.4577911076
O   O53       1.0  0.24530  0.69019  0.81930  1.0000 -0.541335958
O   O54       1.0  0.04910  0.67200  0.76440  1.0000 -0.5563869056
O   O55       1.0  0.48650  0.39910  0.91820  1.0000 -0.3091827748
O   O56       1.0  0.54060  0.50610  0.93290  1.0000 -0.3091827748
