# DDEC6 charges by PACMAN v1.1 (https://github.com/mtap-research/PACMAN-charge/)
data_2021[FeGa][rna]3[FSR]3
_chemical_formula_sum              "Ga2 Fe2 C24 O10"
_cell_length_a       6.6803
_cell_length_b       10.4258
_cell_length_c       10.6257
_cell_angle_alpha    88.9917
_cell_angle_beta     100.391
_cell_angle_gamma    100.101

_symmetry_space_group_name_H-M    "P 1"
_symmetry_Int_Tables_number       1

loop_
  _symmetry_equiv_pos_as_xyz
  'x, y, z'

loop_
  _atom_site_type_symbol
  _atom_site_label
  _atom_site_symmetry_multiplicity
  _atom_site_fract_x
  _atom_site_fract_y
  _atom_site_fract_z
  _atom_site_occupancy
  _atom_site_charge
Ga  Ga1       1.0  0.50000  0.00000  0.00000  1.0000 1.3966078601
Ga  Ga2       1.0  0.00000  0.00000  0.00000  1.0000 1.3906431041
Fe  Fe1       1.0  0.50000  0.00000  0.50000  1.0000 0.1494558744
Fe  Fe2       1.0  0.50000  0.50000  0.00000  1.0000 0.1494558744
C   C1        1.0  0.68228  0.93227  0.76926  1.0000 0.6411799036
C   C2        1.0  0.62769  0.88318  0.63518  1.0000 -0.1168233015
C   C3        1.0  0.30088  0.22039  0.92387  1.0000 0.6302360139
C   C4        1.0  0.75571  0.91482  0.54072  1.0000 0.0362204036
C   C5        1.0  0.42705  0.81420  0.57239  1.0000 0.0612726055
C   C6        1.0  0.35437  0.35316  0.87720  1.0000 -0.1271444269
C   C7        1.0  0.63590  0.86896  0.41750  1.0000 0.0062740353
C   C8        1.0  0.42999  0.80714  0.43657  1.0000 -0.0058378175
C   C9        1.0  0.55730  0.40695  0.84904  1.0000 0.0465379667
C   C10       1.0  0.23736  0.45688  0.87087  1.0000 0.0362204036
C   C11       1.0  0.55779  0.54291  0.81544  1.0000 0.0042416967
C   C12       1.0  0.36009  0.57271  0.83046  1.0000 0.0176219606
C   C13       1.0  0.31772  0.06773  0.23074  1.0000 0.6411799036
C   C14       1.0  0.37231  0.11682  0.36482  1.0000 -0.1168233015
C   C15       1.0  0.69912  0.77961  0.07613  1.0000 0.6302360139
C   C16       1.0  0.24429  0.08518  0.45928  1.0000 0.0362204036
C   C17       1.0  0.57295  0.18580  0.42761  1.0000 0.0612726055
C   C18       1.0  0.64563  0.64684  0.12280  1.0000 -0.1271444269
C   C19       1.0  0.36410  0.13104  0.58250  1.0000 0.0062740353
C   C20       1.0  0.57001  0.19286  0.56343  1.0000 -0.0058378175
C   C21       1.0  0.44270  0.59305  0.15096  1.0000 0.0465379667
C   C22       1.0  0.76264  0.54312  0.12913  1.0000 0.0362204036
C   C23       1.0  0.44221  0.45709  0.18456  1.0000 0.0042416967
C   C24       1.0  0.63991  0.42729  0.16954  1.0000 0.0176219606
O   O1        1.0  0.77890  0.07430  0.03330  1.0000 -0.686998979
O   O2        1.0  0.46620  0.06560  0.17230  1.0000 -0.538984672
O   O3        1.0  0.55360  0.83630  0.09210  1.0000 -0.4933686264
O   O4        1.0  0.86010  0.81640  0.02930  1.0000 -0.5216360249
O   O5        1.0  0.87290  0.96790  0.81570  1.0000 -0.5320924975
O   O6        1.0  0.22110  0.92570  0.96670  1.0000 -0.686998979
O   O7        1.0  0.53380  0.93440  0.82770  1.0000 -0.538984672
O   O8        1.0  0.44640  0.16370  0.90790  1.0000 -0.4933686264
O   O9        1.0  0.13990  0.18360  0.97070  1.0000 -0.5216360249
O   O10       1.0  0.12710  0.03210  0.18430  1.0000 -0.5320924975
