# DDEC6 charges by PACMAN v1.1 (https://github.com/mtap-research/PACMAN-charge/)
data_2021[V][nan]3[FSR]11
_chemical_formula_sum              "V4 H12 C32 O20"
_cell_length_a       12.2252
_cell_length_b       12.2252
_cell_length_c       12.2252
_cell_angle_alpha    103.9
_cell_angle_beta     103.9
_cell_angle_gamma    121.302

_symmetry_space_group_name_H-M    "P 1"
_symmetry_Int_Tables_number       1

loop_
  _symmetry_equiv_pos_as_xyz
  'x, y, z'

loop_
  _atom_site_type_symbol
  _atom_site_label
  _atom_site_symmetry_multiplicity
  _atom_site_fract_x
  _atom_site_fract_y
  _atom_site_fract_z
  _atom_site_occupancy
  _atom_site_charge
V   V1        1.0  0.69618  0.69618  0.39236  1.0000 1.8566136006
V   V2        1.0  0.30382  0.30382  0.60764  1.0000 1.8566136006
V   V3        1.0  0.94618  0.05382  0.50000  1.0000 1.8566136006
V   V4        1.0  0.55382  0.44618  0.50000  1.0000 1.8566136006
H   H1        1.0  0.98127  0.03350  0.18071  1.0000 0.1354437265
H   H2        1.0  0.85279  0.80056  0.81929  1.0000 0.1354437265
H   H3        1.0  0.28350  0.60279  0.55223  1.0000 0.1354437265
H   H4        1.0  0.05056  0.73127  0.44777  1.0000 0.1354437265
H   H5        1.0  0.26873  0.94944  0.55223  1.0000 0.1354437265
H   H6        1.0  0.39721  0.71650  0.44777  1.0000 0.1354437265
H   H7        1.0  0.96650  0.01873  0.81929  1.0000 0.1354437265
H   H8        1.0  0.19944  0.14721  0.18071  1.0000 0.1354437265
H   H9        1.0  0.62548  0.62548  0.00000  1.0000 0.1461306679
H   H10       1.0  0.87548  0.37548  0.50000  1.0000 0.1461306679
H   H11       1.0  0.62452  0.12452  0.50000  1.0000 0.1461306679
H   H12       1.0  0.37452  0.37452  0.00000  1.0000 0.1461306679
C   C1        1.0  0.80340  0.83000  0.10960  1.0000 -0.0159492404
C   C2        1.0  0.79440  0.84250  0.23130  1.0000 0.625524545
C   C3        1.0  0.91780  0.94760  0.10820  1.0000 -0.1289751996
C   C4        1.0  0.72040  0.69380  0.89040  1.0000 -0.0159492404
C   C5        1.0  0.61120  0.56310  0.76870  1.0000 0.625524545
C   C6        1.0  0.83940  0.80960  0.89180  1.0000 -0.1289751996
C   C7        1.0  0.08000  0.47040  0.52660  1.0000 -0.0159492404
C   C8        1.0  0.09250  0.36120  0.54810  1.0000 0.625524545
C   C9        1.0  0.19760  0.58940  0.52980  1.0000 -0.1289751996
C   C10       1.0  0.94380  0.55340  0.47340  1.0000 -0.0159492404
C   C11       1.0  0.81310  0.54440  0.45190  1.0000 0.625524545
C   C12       1.0  0.05960  0.66780  0.47020  1.0000 -0.1289751996
C   C13       1.0  0.44660  0.05620  0.52660  1.0000 -0.0159492404
C   C14       1.0  0.45560  0.18690  0.54810  1.0000 0.625524545
C   C15       1.0  0.33220  0.94040  0.52980  1.0000 -0.1289751996
C   C16       1.0  0.52960  0.92000  0.47340  1.0000 -0.0159492404
C   C17       1.0  0.63880  0.90750  0.45190  1.0000 0.625524545
C   C18       1.0  0.41060  0.80240  0.47020  1.0000 -0.1289751996
C   C19       1.0  0.17000  0.19660  0.89040  1.0000 -0.0159492404
C   C20       1.0  0.15750  0.20560  0.76870  1.0000 0.625524545
C   C21       1.0  0.05240  0.08220  0.89180  1.0000 -0.1289751996
C   C22       1.0  0.30620  0.27960  0.10960  1.0000 -0.0159492404
C   C23       1.0  0.43690  0.38880  0.23130  1.0000 0.625524545
C   C24       1.0  0.19040  0.16060  0.10820  1.0000 -0.1289751996
C   C25       1.0  0.93800  0.93800  0.00000  1.0000 0.0626277122
C   C26       1.0  0.70310  0.70310  0.00000  1.0000 -0.0983335507
C   C27       1.0  0.18800  0.68800  0.50000  1.0000 0.0626277122
C   C28       1.0  0.95310  0.45310  0.50000  1.0000 -0.0983335507
C   C29       1.0  0.31200  0.81200  0.50000  1.0000 0.0626277122
C   C30       1.0  0.54690  0.04690  0.50000  1.0000 -0.0983335507
C   C31       1.0  0.06200  0.06200  0.00000  1.0000 0.0626277122
C   C32       1.0  0.29690  0.29690  0.00000  1.0000 -0.0983335507
O   O1        1.0  0.85809  0.96764  0.31453  1.0000 -0.5810671505
O   O2        1.0  0.72812  0.72910  0.24314  1.0000 -0.5541136818
O   O3        1.0  0.65311  0.54356  0.68547  1.0000 -0.5810671505
O   O4        1.0  0.48596  0.48498  0.75686  1.0000 -0.555115914
O   O5        1.0  0.21764  0.40311  0.60955  1.0000 -0.5810671505
O   O6        1.0  0.97910  0.23596  0.50098  1.0000 -0.5541136818
O   O7        1.0  0.79356  0.60809  0.39045  1.0000 -0.5810671505
O   O8        1.0  0.73498  0.47812  0.49902  1.0000 -0.5541136818
O   O9        1.0  0.39191  0.20644  0.60955  1.0000 -0.5810671505
O   O10       1.0  0.52188  0.26502  0.50098  1.0000 -0.5541136818
O   O11       1.0  0.59689  0.78236  0.39045  1.0000 -0.5810671505
O   O12       1.0  0.76404  0.02090  0.49902  1.0000 -0.5541136818
O   O13       1.0  0.03236  0.14191  0.68547  1.0000 -0.5810671505
O   O14       1.0  0.27090  0.27188  0.75686  1.0000 -0.555115914
O   O15       1.0  0.45644  0.34689  0.31453  1.0000 -0.5810671505
O   O16       1.0  0.51502  0.51404  0.24314  1.0000 -0.5541136818
O   O17       1.0  0.86860  0.87500  0.49360  1.0000 -0.9282633122
O   O18       1.0  0.38140  0.37500  0.50640  1.0000 -0.9282633122
O   O19       1.0  0.12500  0.13140  0.50640  1.0000 -0.9282633122
O   O20       1.0  0.62500  0.61860  0.49360  1.0000 -0.9282633122
