# DDEC6 charges by PACMAN v1.1 (https://github.com/mtap-research/PACMAN-charge/)
data_2021[Zn][pts]3[FSR]1
_chemical_formula_sum              "Zn2 H16 C28 N8 O8"
_cell_length_a       10.0686
_cell_length_b       10.0686
_cell_length_c       13.411
_cell_angle_alpha    84.7361
_cell_angle_beta     95.2639
_cell_angle_gamma    68.3418

_symmetry_space_group_name_H-M    "P 1"
_symmetry_Int_Tables_number       1

loop_
  _symmetry_equiv_pos_as_xyz
  'x, y, z'

loop_
  _atom_site_type_symbol
  _atom_site_label
  _atom_site_symmetry_multiplicity
  _atom_site_fract_x
  _atom_site_fract_y
  _atom_site_fract_z
  _atom_site_occupancy
  _atom_site_charge
Zn  Zn1       1.0  0.92189  0.92189  0.75000  1.0000 0.7743281484
Zn  Zn2       1.0  0.07811  0.07811  0.25000  1.0000 0.7743281484
H   H1        1.0  0.04770  0.11090  0.61680  1.0000 0.1203657355
H   H2        1.0  0.69900  0.45500  0.62520  1.0000 0.1380719465
H   H3        1.0  0.90420  0.54080  0.64940  1.0000 0.1380719465
H   H4        1.0  0.68100  0.24680  0.71340  1.0000 0.1334516167
H   H5        1.0  0.11090  0.04770  0.88320  1.0000 0.1203657355
H   H6        1.0  0.45500  0.69900  0.87480  1.0000 0.1380719465
H   H7        1.0  0.54080  0.90420  0.85060  1.0000 0.1380719465
H   H8        1.0  0.24680  0.68100  0.78660  1.0000 0.1334516167
H   H9        1.0  0.95230  0.88910  0.38320  1.0000 0.1203657355
H   H10       1.0  0.30100  0.54500  0.37480  1.0000 0.1380719465
H   H11       1.0  0.09580  0.45920  0.35060  1.0000 0.1380719465
H   H12       1.0  0.31900  0.75320  0.28660  1.0000 0.1334516167
H   H13       1.0  0.88910  0.95230  0.11680  1.0000 0.1203657355
H   H14       1.0  0.54500  0.30100  0.12520  1.0000 0.1380719465
H   H15       1.0  0.45920  0.09580  0.14940  1.0000 0.1380719465
H   H16       1.0  0.75320  0.31900  0.21340  1.0000 0.1334516167
C   C1        1.0  0.99810  0.74630  0.60240  1.0000 0.5489853084
C   C2        1.0  0.95640  0.16900  0.62940  1.0000 0.1380719465
C   C3        1.0  0.94880  0.40440  0.54550  1.0000 0.1203657355
C   C4        1.0  0.99750  0.62210  0.54510  1.0000 -0.0660290658
C   C5        1.0  0.76620  0.36060  0.63360  1.0000 -0.1240522113
C   C6        1.0  0.94370  0.52450  0.58950  1.0000 -0.1804332972
C   C7        1.0  0.75880  0.24500  0.68040  1.0000 -0.0091894441
C   C8        1.0  0.74630  0.99810  0.89760  1.0000 0.5489853084
C   C9        1.0  0.16900  0.95640  0.87060  1.0000 0.1380719465
C   C10       1.0  0.40440  0.94880  0.95450  1.0000 0.1203657355
C   C11       1.0  0.62210  0.99750  0.95490  1.0000 -0.0660290658
C   C12       1.0  0.36060  0.76620  0.86640  1.0000 -0.1240522113
C   C13       1.0  0.52450  0.94370  0.91050  1.0000 -0.1804332972
C   C14       1.0  0.24500  0.75880  0.81960  1.0000 -0.0091894441
C   C15       1.0  0.00190  0.25370  0.39760  1.0000 0.5489853084
C   C16       1.0  0.04360  0.83100  0.37060  1.0000 0.1380719465
C   C17       1.0  0.05120  0.59560  0.45450  1.0000 0.1203657355
C   C18       1.0  0.00250  0.37790  0.45490  1.0000 -0.0660290658
C   C19       1.0  0.23380  0.63940  0.36640  1.0000 -0.1240522113
C   C20       1.0  0.05630  0.47550  0.41050  1.0000 -0.1804332972
C   C21       1.0  0.24120  0.75500  0.31960  1.0000 -0.0091894441
C   C22       1.0  0.25370  0.00190  0.10240  1.0000 0.5489853084
C   C23       1.0  0.83100  0.04360  0.12940  1.0000 0.1380719465
C   C24       1.0  0.59560  0.05120  0.04550  1.0000 0.1203657355
C   C25       1.0  0.37790  0.00250  0.04510  1.0000 -0.0660290658
C   C26       1.0  0.63940  0.23380  0.13360  1.0000 -0.1240522113
C   C27       1.0  0.47550  0.05630  0.08950  1.0000 -0.1804332972
C   C28       1.0  0.75500  0.24120  0.18040  1.0000 -0.0091894441
N   N1        1.0  0.89650  0.30870  0.60030  1.0000 0.0229512177
N   N2        1.0  0.87370  0.12150  0.67740  1.0000 -0.2842414618
N   N3        1.0  0.30870  0.89650  0.89970  1.0000 0.0229512177
N   N4        1.0  0.12150  0.87370  0.82260  1.0000 -0.2842414618
N   N5        1.0  0.10350  0.69130  0.39970  1.0000 0.0229512177
N   N6        1.0  0.12630  0.87850  0.32260  1.0000 -0.2842414618
N   N7        1.0  0.69130  0.10350  0.10030  1.0000 0.0229512177
N   N8        1.0  0.87850  0.12630  0.17740  1.0000 -0.2842414618
O   O1        1.0  0.92000  0.76920  0.67210  1.0000 -0.5275917441
O   O2        1.0  0.07470  0.81410  0.58190  1.0000 -0.5566214263
O   O3        1.0  0.76920  0.92000  0.82790  1.0000 -0.5275917441
O   O4        1.0  0.81410  0.07470  0.91810  1.0000 -0.5566214263
O   O5        1.0  0.08000  0.23080  0.32790  1.0000 -0.5275917441
O   O6        1.0  0.92530  0.18590  0.41810  1.0000 -0.5539849341
O   O7        1.0  0.23080  0.08000  0.17210  1.0000 -0.5275917441
O   O8        1.0  0.18590  0.92530  0.08190  1.0000 -0.5566214263
