# DDEC6 charges by PACMAN v1.1 (https://github.com/mtap-research/PACMAN-charge/)
data_2021[V][nan]3[FSR]1
_chemical_formula_sum              "V4 H16 C32 O20"
_cell_length_a       12.3167
_cell_length_b       12.3167
_cell_length_c       12.3167
_cell_angle_alpha    103.972
_cell_angle_beta     103.972
_cell_angle_gamma    121.139

_symmetry_space_group_name_H-M    "P 1"
_symmetry_Int_Tables_number       1

loop_
  _symmetry_equiv_pos_as_xyz
  'x, y, z'

loop_
  _atom_site_type_symbol
  _atom_site_label
  _atom_site_symmetry_multiplicity
  _atom_site_fract_x
  _atom_site_fract_y
  _atom_site_fract_z
  _atom_site_occupancy
  _atom_site_charge
V   V1        1.0  0.69046  0.69046  0.38092  1.0000 1.6697928253
V   V2        1.0  0.30954  0.30954  0.61908  1.0000 1.6697928253
V   V3        1.0  0.94046  0.05954  0.50000  1.0000 1.6697928253
V   V4        1.0  0.55954  0.44046  0.50000  1.0000 1.6697928253
H   H1        1.0  0.97940  0.03439  0.17797  1.0000 0.1278826091
H   H2        1.0  0.85642  0.80143  0.82203  1.0000 0.1278826091
H   H3        1.0  0.28439  0.60642  0.55499  1.0000 0.1278826091
H   H4        1.0  0.05143  0.72940  0.44501  1.0000 0.1278826091
H   H5        1.0  0.27060  0.94857  0.55499  1.0000 0.1278826091
H   H6        1.0  0.39358  0.71561  0.44501  1.0000 0.1278826091
H   H7        1.0  0.96561  0.02060  0.82203  1.0000 0.1278826091
H   H8        1.0  0.19857  0.14358  0.17797  1.0000 0.1278826091
H   H9        1.0  0.93870  0.87500  0.56370  1.0000 0.4249770585
H   H10       1.0  0.31130  0.37500  0.43630  1.0000 0.4254402462
H   H11       1.0  0.12500  0.06130  0.43630  1.0000 0.4249770585
H   H12       1.0  0.62500  0.68870  0.56370  1.0000 0.4254402462
H   H13       1.0  0.62929  0.62929  0.00000  1.0000 0.1476803067
H   H14       1.0  0.87929  0.37929  0.50000  1.0000 0.1476803067
H   H15       1.0  0.62071  0.12071  0.50000  1.0000 0.1476803067
H   H16       1.0  0.37071  0.37071  0.00000  1.0000 0.1476803067
C   C1        1.0  0.80410  0.83210  0.10860  1.0000 -0.0202112024
C   C2        1.0  0.79360  0.84420  0.22880  1.0000 0.6165768447
C   C3        1.0  0.91730  0.94860  0.10650  1.0000 -0.1472504066
C   C4        1.0  0.72350  0.69550  0.89140  1.0000 -0.0202112024
C   C5        1.0  0.61540  0.56480  0.77120  1.0000 0.6165768447
C   C6        1.0  0.84210  0.81080  0.89350  1.0000 -0.1472504066
C   C7        1.0  0.08210  0.47350  0.52800  1.0000 -0.0202112024
C   C8        1.0  0.09420  0.36540  0.55060  1.0000 0.6165768447
C   C9        1.0  0.19860  0.59210  0.53130  1.0000 -0.1472504066
C   C10       1.0  0.94550  0.55410  0.47200  1.0000 -0.0202112024
C   C11       1.0  0.81480  0.54360  0.44940  1.0000 0.6165768447
C   C12       1.0  0.06080  0.66730  0.46870  1.0000 -0.1472504066
C   C13       1.0  0.44590  0.05450  0.52800  1.0000 -0.0202112024
C   C14       1.0  0.45640  0.18520  0.55060  1.0000 0.6165768447
C   C15       1.0  0.33270  0.93920  0.53130  1.0000 -0.1472504066
C   C16       1.0  0.52650  0.91790  0.47200  1.0000 -0.0202112024
C   C17       1.0  0.63460  0.90580  0.44940  1.0000 0.6165768447
C   C18       1.0  0.40790  0.80140  0.46870  1.0000 -0.1472504066
C   C19       1.0  0.16790  0.19590  0.89140  1.0000 -0.0202112024
C   C20       1.0  0.15580  0.20640  0.77120  1.0000 0.6165768447
C   C21       1.0  0.05140  0.08270  0.89350  1.0000 -0.1472504066
C   C22       1.0  0.30450  0.27650  0.10860  1.0000 -0.0202112024
C   C23       1.0  0.43520  0.38460  0.22880  1.0000 0.6165768447
C   C24       1.0  0.18920  0.15790  0.10650  1.0000 -0.1472504066
C   C25       1.0  0.93850  0.93850  0.00000  1.0000 0.0691578257
C   C26       1.0  0.70610  0.70610  0.00000  1.0000 -0.0988782179
C   C27       1.0  0.18850  0.68850  0.50000  1.0000 0.0691578257
C   C28       1.0  0.95610  0.45610  0.50000  1.0000 -0.0988782179
C   C29       1.0  0.31150  0.81150  0.50000  1.0000 0.0691578257
C   C30       1.0  0.54390  0.04390  0.50000  1.0000 -0.0988782179
C   C31       1.0  0.06150  0.06150  0.00000  1.0000 0.0691578257
C   C32       1.0  0.29390  0.29390  0.00000  1.0000 -0.0988782179
O   O1        1.0  0.85778  0.96763  0.31261  1.0000 -0.6087149587
O   O2        1.0  0.72510  0.73100  0.23870  1.0000 -0.5805671346
O   O3        1.0  0.65502  0.54517  0.68739  1.0000 -0.6087149587
O   O4        1.0  0.49230  0.48640  0.76130  1.0000 -0.5805671346
O   O5        1.0  0.21763  0.40502  0.60985  1.0000 -0.6087149587
O   O6        1.0  0.98100  0.24230  0.50590  1.0000 -0.5805671346
O   O7        1.0  0.79517  0.60778  0.39015  1.0000 -0.6087149587
O   O8        1.0  0.73640  0.47510  0.49410  1.0000 -0.5805671346
O   O9        1.0  0.39222  0.20483  0.60985  1.0000 -0.6087149587
O   O10       1.0  0.52490  0.26360  0.50590  1.0000 -0.5805671346
O   O11       1.0  0.59498  0.78237  0.39015  1.0000 -0.6087149587
O   O12       1.0  0.75770  0.01900  0.49410  1.0000 -0.5805671346
O   O13       1.0  0.03237  0.14222  0.68739  1.0000 -0.6087149587
O   O14       1.0  0.26900  0.27490  0.76130  1.0000 -0.5805671346
O   O15       1.0  0.45483  0.34498  0.31261  1.0000 -0.6087149587
O   O16       1.0  0.51360  0.50770  0.23870  1.0000 -0.5805671346
O   O17       1.0  0.87540  0.87500  0.50040  1.0000 -0.9883928952
O   O18       1.0  0.37460  0.37500  0.49960  1.0000 -0.9883928952
O   O19       1.0  0.12500  0.12460  0.49960  1.0000 -0.9883928952
O   O20       1.0  0.62500  0.62540  0.50040  1.0000 -0.9883928952
