# DDEC6 charges by PACMAN v1.1 (https://github.com/mtap-research/PACMAN-charge/)
data_2021[Zn][nan]3[FSR]20
_chemical_formula_sum              "Zn12 H24 C28 N24 O24"
_cell_length_a       7.7498
_cell_length_b       11.1124
_cell_length_c       20.6337
_cell_angle_alpha    90
_cell_angle_beta     90
_cell_angle_gamma    90

_symmetry_space_group_name_H-M    "P 1"
_symmetry_Int_Tables_number       1

loop_
  _symmetry_equiv_pos_as_xyz
  'x, y, z'

loop_
  _atom_site_type_symbol
  _atom_site_label
  _atom_site_symmetry_multiplicity
  _atom_site_fract_x
  _atom_site_fract_y
  _atom_site_fract_z
  _atom_site_occupancy
  _atom_site_charge
Zn  Zn1       1.0  0.44480  0.00410  0.28758  1.0000 0.8005769375
Zn  Zn2       1.0  0.43650  0.72210  0.37414  1.0000 0.8089621041
Zn  Zn3       1.0  0.73410  0.94130  0.40892  1.0000 0.9155569199
Zn  Zn4       1.0  0.05520  0.99590  0.78758  1.0000 0.8005769375
Zn  Zn5       1.0  0.06350  0.27790  0.87414  1.0000 0.8089621041
Zn  Zn6       1.0  0.76590  0.05870  0.90892  1.0000 0.9155569199
Zn  Zn7       1.0  0.55520  0.50410  0.21242  1.0000 0.8005769375
Zn  Zn8       1.0  0.56350  0.22210  0.12586  1.0000 0.8089621041
Zn  Zn9       1.0  0.26590  0.44130  0.09108  1.0000 0.9155569199
Zn  Zn10      1.0  0.94480  0.49590  0.71242  1.0000 0.8005769375
Zn  Zn11      1.0  0.93650  0.77790  0.62586  1.0000 0.8089621041
Zn  Zn12      1.0  0.23410  0.55870  0.59108  1.0000 0.9155569199
H   H1        1.0  0.69160  0.10370  0.33370  1.0000 0.356671733
H   H2        1.0  0.62400  0.76750  0.46410  1.0000 0.3841564405
H   H3        1.0  0.06980  0.11180  0.27650  1.0000 0.3120646003
H   H4        1.0  0.89770  0.06350  0.28680  1.0000 0.2799937252
H   H5        1.0  0.03110  0.75560  0.40980  1.0000 0.1182946983
H   H6        1.0  0.28160  0.29510  0.39720  1.0000 0.1623932246
H   H7        1.0  0.80840  0.89630  0.83370  1.0000 0.356671733
H   H8        1.0  0.87600  0.23250  0.96410  1.0000 0.3841564405
H   H9        1.0  0.43020  0.88820  0.77650  1.0000 0.3120646003
H   H10       1.0  0.60230  0.93650  0.78680  1.0000 0.2799937252
H   H11       1.0  0.46890  0.24440  0.90980  1.0000 0.1182946983
H   H12       1.0  0.21840  0.70490  0.89720  1.0000 0.1623932246
H   H13       1.0  0.30840  0.60370  0.16630  1.0000 0.356671733
H   H14       1.0  0.37600  0.26750  0.03590  1.0000 0.3841564405
H   H15       1.0  0.93020  0.61180  0.22350  1.0000 0.3120646003
H   H16       1.0  0.10230  0.56350  0.21320  1.0000 0.2799937252
H   H17       1.0  0.96890  0.25560  0.09020  1.0000 0.1182946983
H   H18       1.0  0.71840  0.79510  0.10280  1.0000 0.1623932246
H   H19       1.0  0.19160  0.39630  0.66630  1.0000 0.356671733
H   H20       1.0  0.12400  0.73250  0.53590  1.0000 0.3841564405
H   H21       1.0  0.56980  0.38820  0.72350  1.0000 0.3120646003
H   H22       1.0  0.39770  0.43650  0.71320  1.0000 0.2799937252
H   H23       1.0  0.53110  0.74440  0.59020  1.0000 0.1182946983
H   H24       1.0  0.78160  0.20490  0.60280  1.0000 0.1623932246
C   C1        1.0  0.07000  0.97600  0.33180  1.0000 0.4587060932
C   C2        1.0  0.06800  0.82100  0.38530  1.0000 0.1495719823
C   C3        1.0  0.31000  0.53600  0.46120  1.0000 0.542460275
C   C4        1.0  0.34300  0.47700  0.39690  1.0000 0.0736719641
C   C5        1.0  0.32200  0.36200  0.37480  1.0000 -0.2333491434
C   C6        1.0  0.37400  0.36900  0.31220  1.0000 0.0544561866
C   C7        1.0  0.38700  0.27400  0.26150  1.0000 0.5657401207
C   C8        1.0  0.43000  0.02400  0.83180  1.0000 0.4587060932
C   C9        1.0  0.43200  0.17900  0.88530  1.0000 0.1495719823
C   C10       1.0  0.19000  0.46400  0.96120  1.0000 0.542460275
C   C11       1.0  0.15700  0.52300  0.89690  1.0000 0.0736719641
C   C12       1.0  0.17800  0.63800  0.87480  1.0000 -0.2333491434
C   C13       1.0  0.12600  0.63100  0.81220  1.0000 0.0544561866
C   C14       1.0  0.11300  0.72600  0.76150  1.0000 0.5657401207
C   C15       1.0  0.93000  0.47600  0.16820  1.0000 0.4587060932
C   C16       1.0  0.93200  0.32100  0.11470  1.0000 0.1495719823
C   C17       1.0  0.69000  0.03600  0.03880  1.0000 0.542460275
C   C18       1.0  0.65700  0.97700  0.10310  1.0000 0.0736719641
C   C19       1.0  0.67800  0.86200  0.12520  1.0000 -0.2333491434
C   C20       1.0  0.62600  0.86900  0.18780  1.0000 0.0544561866
C   C21       1.0  0.61300  0.77400  0.23850  1.0000 0.5657401207
C   C22       1.0  0.57000  0.52400  0.66820  1.0000 0.4587060932
C   C23       1.0  0.56800  0.67900  0.61470  1.0000 0.1495719823
C   C24       1.0  0.81000  0.96400  0.53880  1.0000 0.542460275
C   C25       1.0  0.84300  0.02300  0.60310  1.0000 0.0736719641
C   C26       1.0  0.82200  0.13800  0.62520  1.0000 -0.2333491434
C   C27       1.0  0.87400  0.13100  0.68780  1.0000 0.0544561866
C   C28       1.0  0.88700  0.22600  0.73850  1.0000 0.5657401207
N   N1        1.0  0.96900  0.91100  0.37170  1.0000 -0.4125772294
N   N2        1.0  0.22400  0.93600  0.32540  1.0000 -0.2912491736
N   N3        1.0  0.22800  0.83000  0.36090  1.0000 -0.2201364365
N   N4        1.0  0.99700  0.08300  0.30500  1.0000 -0.6570664373
N   N5        1.0  0.40900  0.54500  0.35170  1.0000 -0.2104716924
N   N6        1.0  0.43300  0.47560  0.29900  1.0000 -0.202213167
N   N7        1.0  0.53100  0.08900  0.87170  1.0000 -0.4125772294
N   N8        1.0  0.27600  0.06400  0.82540  1.0000 -0.2912491736
N   N9        1.0  0.27200  0.17000  0.86090  1.0000 -0.2201364365
N   N10       1.0  0.50300  0.91700  0.80500  1.0000 -0.6570664373
N   N11       1.0  0.09100  0.45500  0.85170  1.0000 -0.2104716924
N   N12       1.0  0.06700  0.52440  0.79900  1.0000 -0.202213167
N   N13       1.0  0.03100  0.41100  0.12830  1.0000 -0.4125772294
N   N14       1.0  0.77600  0.43600  0.17460  1.0000 -0.2912491736
N   N15       1.0  0.77200  0.33000  0.13910  1.0000 -0.2201364365
N   N16       1.0  0.00300  0.58300  0.19500  1.0000 -0.6570664373
N   N17       1.0  0.59100  0.04500  0.14830  1.0000 -0.2104716924
N   N18       1.0  0.56700  0.97560  0.20100  1.0000 -0.202213167
N   N19       1.0  0.46900  0.58900  0.62830  1.0000 -0.4125772294
N   N20       1.0  0.72400  0.56400  0.67460  1.0000 -0.2912491736
N   N21       1.0  0.72800  0.67000  0.63910  1.0000 -0.2201364365
N   N22       1.0  0.49700  0.41700  0.69500  1.0000 -0.6570664373
N   N23       1.0  0.90900  0.95500  0.64830  1.0000 -0.2104716924
N   N24       1.0  0.93300  0.02440  0.70100  1.0000 -0.202213167
O   O1        1.0  0.61600  0.05380  0.35300  1.0000 -0.8218214315
O   O2        1.0  0.62700  0.79290  0.42290  1.0000 -0.8218214315
O   O3        1.0  0.32400  0.64510  0.46470  1.0000 -0.539276543
O   O4        1.0  0.26000  0.46720  0.50770  1.0000 -0.5182917294
O   O5        1.0  0.33500  0.17210  0.26990  1.0000 -0.4779967245
O   O6        1.0  0.46900  0.31110  0.20960  1.0000 -0.5770058659
O   O7        1.0  0.88400  0.94620  0.85300  1.0000 -0.8218214315
O   O8        1.0  0.87300  0.20710  0.92290  1.0000 -0.8218214315
O   O9        1.0  0.17600  0.35490  0.96470  1.0000 -0.539276543
O   O10       1.0  0.24000  0.53280  0.00770  1.0000 -0.5182917294
O   O11       1.0  0.16500  0.82790  0.76990  1.0000 -0.4779967245
O   O12       1.0  0.03100  0.68890  0.70960  1.0000 -0.5770058659
O   O13       1.0  0.38400  0.55380  0.14700  1.0000 -0.8218214315
O   O14       1.0  0.37300  0.29290  0.07710  1.0000 -0.8218214315
O   O15       1.0  0.67600  0.14510  0.03530  1.0000 -0.539276543
O   O16       1.0  0.74000  0.96720  0.99230  1.0000 -0.5182917294
O   O17       1.0  0.66500  0.67210  0.23010  1.0000 -0.4779967245
O   O18       1.0  0.53100  0.81110  0.29040  1.0000 -0.5770058659
O   O19       1.0  0.11600  0.44620  0.64700  1.0000 -0.8218214315
O   O20       1.0  0.12700  0.70710  0.57710  1.0000 -0.8218214315
O   O21       1.0  0.82400  0.85490  0.53530  1.0000 -0.539276543
O   O22       1.0  0.76000  0.03280  0.49230  1.0000 -0.5182917294
O   O23       1.0  0.83500  0.32790  0.73010  1.0000 -0.4779967245
O   O24       1.0  0.96900  0.18890  0.79040  1.0000 -0.5770058659
