# DDEC6 charges by PACMAN v1.1 (https://github.com/mtap-research/PACMAN-charge/)
data_2021[FeGa][rna]3[FSR]2
_chemical_formula_sum              "Ga2 Fe2 C24 O10"
_cell_length_a       6.6864
_cell_length_b       10.4239
_cell_length_c       10.664
_cell_angle_alpha    88.4452
_cell_angle_beta     102.409
_cell_angle_gamma    101.218

_symmetry_space_group_name_H-M    "P 1"
_symmetry_Int_Tables_number       1

loop_
  _symmetry_equiv_pos_as_xyz
  'x, y, z'

loop_
  _atom_site_type_symbol
  _atom_site_label
  _atom_site_symmetry_multiplicity
  _atom_site_fract_x
  _atom_site_fract_y
  _atom_site_fract_z
  _atom_site_occupancy
  _atom_site_charge
Ga  Ga1       1.0  0.50000  0.00000  0.00000  1.0000 1.3711390498
Ga  Ga2       1.0  0.00000  0.00000  0.00000  1.0000 1.3711390498
Fe  Fe1       1.0  0.50000  0.00000  0.50000  1.0000 0.1697309169
Fe  Fe2       1.0  0.50000  0.50000  0.00000  1.0000 0.1587371232
C   C1        1.0  0.32798  0.07231  0.22146  1.0000 0.6247841122
C   C2        1.0  0.37740  0.11495  0.35694  1.0000 -0.1274325622
C   C3        1.0  0.23949  0.08608  0.44520  1.0000 0.0460083338
C   C4        1.0  0.35495  0.13457  0.57054  1.0000 0.0056605451
C   C5        1.0  0.56425  0.19353  0.55970  1.0000 -0.0068022443
C   C6        1.0  0.57891  0.18106  0.42739  1.0000 0.0359689968
C   C7        1.0  0.70787  0.78144  0.08705  1.0000 0.6298266652
C   C8        1.0  0.66335  0.64554  0.12875  1.0000 -0.1274325622
C   C9        1.0  0.47503  0.58360  0.16865  1.0000 0.0575672931
C   C10       1.0  0.48152  0.44641  0.18517  1.0000 -0.0351283064
C   C11       1.0  0.67179  0.42370  0.15350  1.0000 0.0193885269
C   C12       1.0  0.78325  0.54670  0.11797  1.0000 0.0193885269
C   C13       1.0  0.67202  0.92769  0.77854  1.0000 0.6247841122
C   C14       1.0  0.62260  0.88505  0.64306  1.0000 -0.1274325622
C   C15       1.0  0.76051  0.91392  0.55480  1.0000 0.0460083338
C   C16       1.0  0.64505  0.86543  0.42946  1.0000 0.0056605451
C   C17       1.0  0.43575  0.80647  0.44030  1.0000 -0.0068022443
C   C18       1.0  0.42109  0.81894  0.57261  1.0000 0.0359689968
C   C19       1.0  0.29213  0.21856  0.91295  1.0000 0.6298266652
C   C20       1.0  0.33665  0.35446  0.87125  1.0000 -0.1274325622
C   C21       1.0  0.52497  0.41640  0.83135  1.0000 0.0575672931
C   C22       1.0  0.51848  0.55359  0.81483  1.0000 -0.0338576545
C   C23       1.0  0.32821  0.57630  0.84650  1.0000 0.0193885269
C   C24       1.0  0.21675  0.45330  0.88203  1.0000 0.0193885269
O   O1        1.0  0.78200  0.07500  0.02600  1.0000 -0.6750920413
O   O2        1.0  0.13500  0.05200  0.18500  1.0000 -0.4883967934
O   O3        1.0  0.47600  0.07100  0.16500  1.0000 -0.5177002845
O   O4        1.0  0.57700  0.85100  0.10900  1.0000 -0.5095159409
O   O5        1.0  0.85700  0.83100  0.03700  1.0000 -0.4883967934
O   O6        1.0  0.21800  0.92500  0.97400  1.0000 -0.6724997757
O   O7        1.0  0.86500  0.94800  0.81500  1.0000 -0.4883967934
O   O8        1.0  0.52400  0.92900  0.83500  1.0000 -0.5177002845
O   O9        1.0  0.42300  0.14900  0.89100  1.0000 -0.5095159409
O   O10       1.0  0.14300  0.16900  0.96300  1.0000 -0.4883967934
