# DDEC6 charges by PACMAN v1.1 (https://github.com/mtap-research/PACMAN-charge/)
data_2021[Cu][rtl]3[FSR]2
_chemical_formula_sum              "Cu4 H36 C56 N4 O16"
_cell_length_a       10.5718
_cell_length_b       10.8997
_cell_length_c       14.4162
_cell_angle_alpha    90
_cell_angle_beta     107.242
_cell_angle_gamma    90

_symmetry_space_group_name_H-M    "P 1"
_symmetry_Int_Tables_number       1

loop_
  _symmetry_equiv_pos_as_xyz
  'x, y, z'

loop_
  _atom_site_type_symbol
  _atom_site_label
  _atom_site_symmetry_multiplicity
  _atom_site_fract_x
  _atom_site_fract_y
  _atom_site_fract_z
  _atom_site_occupancy
  _atom_site_charge
Cu  Cu1       1.0  0.09413  0.58722  0.50867  1.0000 0.8007750096
Cu  Cu2       1.0  0.90587  0.08722  0.99133  1.0000 0.8007750096
Cu  Cu3       1.0  0.90587  0.41278  0.49133  1.0000 0.8007750096
Cu  Cu4       1.0  0.09413  0.91278  0.00867  1.0000 0.8007750096
H   H1        1.0  0.60222  0.68526  0.52712  1.0000 0.1299163035
H   H2        1.0  0.60576  0.94720  0.72490  1.0000 0.1299163035
H   H3        1.0  0.94599  0.78624  0.72008  1.0000 0.1383402528
H   H4        1.0  0.38035  0.66068  0.56339  1.0000 0.1188433649
H   H5        1.0  0.21509  0.04666  0.48800  1.0000 0.1299163035
H   H6        1.0  0.43725  0.02358  0.57325  1.0000 0.1141926622
H   H7        1.0  0.00754  0.96706  0.40710  1.0000 0.1478529492
H   H8        1.0  0.97116  0.84887  0.45567  1.0000 0.1567483427
H   H9        1.0  0.01055  0.83830  0.35936  1.0000 0.1567483427
H   H10       1.0  0.39778  0.18526  0.97288  1.0000 0.1299163035
H   H11       1.0  0.39424  0.44720  0.77510  1.0000 0.1299163035
H   H12       1.0  0.05401  0.28624  0.77992  1.0000 0.1383402528
H   H13       1.0  0.61965  0.16068  0.93661  1.0000 0.1188433649
H   H14       1.0  0.78491  0.54666  0.01200  1.0000 0.1299163035
H   H15       1.0  0.56275  0.52358  0.92675  1.0000 0.1141926622
H   H16       1.0  0.99246  0.46706  0.09290  1.0000 0.1478529492
H   H17       1.0  0.02884  0.34887  0.04433  1.0000 0.1567483427
H   H18       1.0  0.98945  0.33830  0.14064  1.0000 0.1567483427
H   H19       1.0  0.39778  0.31474  0.47288  1.0000 0.1299163035
H   H20       1.0  0.39424  0.05280  0.27510  1.0000 0.1299163035
H   H21       1.0  0.05401  0.21376  0.27992  1.0000 0.1383402528
H   H22       1.0  0.61965  0.33932  0.43661  1.0000 0.1188433649
H   H23       1.0  0.78491  0.95334  0.51200  1.0000 0.1299163035
H   H24       1.0  0.56275  0.97642  0.42675  1.0000 0.1141926622
H   H25       1.0  0.99246  0.03294  0.59290  1.0000 0.1478529492
H   H26       1.0  0.02884  0.15113  0.54433  1.0000 0.1567483427
H   H27       1.0  0.98945  0.16170  0.64064  1.0000 0.1567483427
H   H28       1.0  0.60222  0.81474  0.02712  1.0000 0.1299163035
H   H29       1.0  0.60576  0.55280  0.22490  1.0000 0.1299163035
H   H30       1.0  0.94599  0.71376  0.22008  1.0000 0.1383402528
H   H31       1.0  0.38035  0.83932  0.06339  1.0000 0.1188433649
H   H32       1.0  0.21509  0.45334  0.98800  1.0000 0.1299163035
H   H33       1.0  0.43725  0.47642  0.07325  1.0000 0.1141926622
H   H34       1.0  0.00754  0.53294  0.90710  1.0000 0.1478529492
H   H35       1.0  0.97116  0.65113  0.95567  1.0000 0.1567483427
H   H36       1.0  0.01055  0.66170  0.85936  1.0000 0.1567483427
C   C1        1.0  0.78640  0.72420  0.61602  1.0000 -0.0123504657
C   C2        1.0  0.64830  0.73470  0.57862  1.0000 -0.1718883818
C   C3        1.0  0.58010  0.81900  0.61832  1.0000 0.0734273823
C   C4        1.0  0.65040  0.88990  0.69840  1.0000 -0.1614855496
C   C5        1.0  0.78680  0.87460  0.73850  1.0000 -0.00126139
C   C6        1.0  0.85450  0.79360  0.69536  1.0000 -0.1240402615
C   C7        1.0  0.86010  0.63780  0.57064  1.0000 0.564661804
C   C8        1.0  0.86040  0.93800  0.83163  1.0000 0.564661804
C   C9        1.0  0.43530  0.83730  0.57377  1.0000 0.0128021207
C   C10       1.0  0.34700  0.73950  0.54830  1.0000 0.0373311447
C   C11       1.0  0.16960  0.86660  0.47800  1.0000 0.3233522432
C   C12       1.0  0.25040  0.96860  0.50400  1.0000 -0.1853285251
C   C13       1.0  0.38340  0.95510  0.55360  1.0000 -0.0970089032
C   C14       1.0  0.02680  0.88160  0.41980  1.0000 -0.4999590484
C   C15       1.0  0.21360  0.22420  0.88398  1.0000 -0.0123504657
C   C16       1.0  0.35170  0.23470  0.92138  1.0000 -0.1718883818
C   C17       1.0  0.41990  0.31900  0.88168  1.0000 0.0734273823
C   C18       1.0  0.34960  0.38990  0.80160  1.0000 -0.1614855496
C   C19       1.0  0.21320  0.37460  0.76150  1.0000 -0.00126139
C   C20       1.0  0.14550  0.29360  0.80464  1.0000 -0.1240402615
C   C21       1.0  0.13990  0.13780  0.92936  1.0000 0.564661804
C   C22       1.0  0.13960  0.43800  0.66837  1.0000 0.564661804
C   C23       1.0  0.56470  0.33730  0.92623  1.0000 0.0128021207
C   C24       1.0  0.65300  0.23950  0.95170  1.0000 0.0373311447
C   C25       1.0  0.83040  0.36660  0.02200  1.0000 0.3233522432
C   C26       1.0  0.74960  0.46860  0.99600  1.0000 -0.1853285251
C   C27       1.0  0.61660  0.45510  0.94640  1.0000 -0.0970089032
C   C28       1.0  0.97320  0.38160  0.08020  1.0000 -0.4999590484
C   C29       1.0  0.21360  0.27580  0.38398  1.0000 -0.0123504657
C   C30       1.0  0.35170  0.26530  0.42138  1.0000 -0.1718883818
C   C31       1.0  0.41990  0.18100  0.38168  1.0000 0.0734273823
C   C32       1.0  0.34960  0.11010  0.30160  1.0000 -0.1614855496
C   C33       1.0  0.21320  0.12540  0.26150  1.0000 -0.00126139
C   C34       1.0  0.14550  0.20640  0.30464  1.0000 -0.1240402615
C   C35       1.0  0.13990  0.36220  0.42936  1.0000 0.5651432903
C   C36       1.0  0.13960  0.06200  0.16837  1.0000 0.564661804
C   C37       1.0  0.56470  0.16270  0.42623  1.0000 0.0128021207
C   C38       1.0  0.65300  0.26050  0.45170  1.0000 0.0373311447
C   C39       1.0  0.83040  0.13340  0.52200  1.0000 0.3233522432
C   C40       1.0  0.74960  0.03140  0.49600  1.0000 -0.1853285251
C   C41       1.0  0.61660  0.04490  0.44640  1.0000 -0.0970089032
C   C42       1.0  0.97320  0.11840  0.58020  1.0000 -0.4999590484
C   C43       1.0  0.78640  0.77580  0.11602  1.0000 -0.0123504657
C   C44       1.0  0.64830  0.76530  0.07862  1.0000 -0.1718883818
C   C45       1.0  0.58010  0.68100  0.11832  1.0000 0.0734273823
C   C46       1.0  0.65040  0.61010  0.19840  1.0000 -0.1614855496
C   C47       1.0  0.78680  0.62540  0.23850  1.0000 -0.00126139
C   C48       1.0  0.85450  0.70640  0.19536  1.0000 -0.1240402615
C   C49       1.0  0.86010  0.86220  0.07064  1.0000 0.564661804
C   C50       1.0  0.86040  0.56200  0.33163  1.0000 0.564661804
C   C51       1.0  0.43530  0.66270  0.07377  1.0000 0.0128021207
C   C52       1.0  0.34700  0.76050  0.04830  1.0000 0.0373311447
C   C53       1.0  0.16960  0.63340  0.97800  1.0000 0.3233522432
C   C54       1.0  0.25040  0.53140  0.00400  1.0000 -0.1853285251
C   C55       1.0  0.38340  0.54490  0.05360  1.0000 -0.0970089032
C   C56       1.0  0.02680  0.61840  0.91980  1.0000 -0.4999590484
N   N1        1.0  0.21660  0.75170  0.50348  1.0000 -0.2858043282
N   N2        1.0  0.78340  0.25170  0.99652  1.0000 -0.2858043282
N   N3        1.0  0.78340  0.24830  0.49652  1.0000 -0.2858043282
N   N4        1.0  0.21660  0.74830  0.00348  1.0000 -0.2858043282
O   O1        1.0  0.97243  0.67431  0.56684  1.0000 -0.5245062677
O   O2        1.0  0.80660  0.53624  0.54078  1.0000 -0.4999590484
O   O3        1.0  0.80640  0.02766  0.85993  1.0000 -0.4999590484
O   O4        1.0  0.97180  0.89300  0.87555  1.0000 -0.5360554872
O   O5        1.0  0.02757  0.17431  0.93316  1.0000 -0.5245062677
O   O6        1.0  0.19340  0.03624  0.95922  1.0000 -0.4999590484
O   O7        1.0  0.19360  0.52766  0.64007  1.0000 -0.4999590484
O   O8        1.0  0.02820  0.39300  0.62445  1.0000 -0.5360554872
O   O9        1.0  0.02757  0.32569  0.43316  1.0000 -0.5245062677
O   O10       1.0  0.19340  0.46376  0.45922  1.0000 -0.4999590484
O   O11       1.0  0.19360  0.97234  0.14007  1.0000 -0.4999590484
O   O12       1.0  0.02820  0.10700  0.12445  1.0000 -0.5360554872
O   O13       1.0  0.97243  0.82569  0.06684  1.0000 -0.5245062677
O   O14       1.0  0.80660  0.96376  0.04078  1.0000 -0.4999590484
O   O15       1.0  0.80640  0.47234  0.35993  1.0000 -0.4999590484
O   O16       1.0  0.97180  0.60700  0.37555  1.0000 -0.5360554872
