# DDEC6 charges by PACMAN v1.1 (https://github.com/mtap-research/PACMAN-charge/)
data_2021[Fe][nan]3[FSR]1
_chemical_formula_sum              "Fe4 H16 C32 O20"
_cell_length_a       12.2488
_cell_length_b       12.2488
_cell_length_c       12.2488
_cell_angle_alpha    103.883
_cell_angle_beta     103.883
_cell_angle_gamma    121.341

_symmetry_space_group_name_H-M    "P 1"
_symmetry_Int_Tables_number       1

loop_
  _symmetry_equiv_pos_as_xyz
  'x, y, z'

loop_
  _atom_site_type_symbol
  _atom_site_label
  _atom_site_symmetry_multiplicity
  _atom_site_fract_x
  _atom_site_fract_y
  _atom_site_fract_z
  _atom_site_occupancy
  _atom_site_charge
Fe  Fe1       1.0  0.19800  0.80200  0.00000  1.0000 1.2061708314
Fe  Fe2       1.0  0.80200  0.19800  0.00000  1.0000 1.1933729989
Fe  Fe3       1.0  0.44800  0.94800  0.89600  1.0000 1.2041706187
Fe  Fe4       1.0  0.05200  0.55200  0.10400  1.0000 1.2061708314
H   H1        1.0  0.49920  0.30380  0.95560  1.0000 0.1098264051
H   H2        1.0  0.34820  0.54360  0.04440  1.0000 0.1098264051
H   H3        1.0  0.79360  0.24920  0.69540  1.0000 0.1098264051
H   H4        1.0  0.55380  0.09820  0.30460  1.0000 0.1098264051
H   H5        1.0  0.75080  0.20640  0.30460  1.0000 0.1098264051
H   H6        1.0  0.90180  0.44620  0.69540  1.0000 0.1098264051
H   H7        1.0  0.45640  0.65180  0.95560  1.0000 0.1098264051
H   H8        1.0  0.69620  0.50080  0.04440  1.0000 0.1098264051
H   H9        1.0  0.43920  0.87500  0.06420  1.0000 0.4067544085
H   H10       1.0  0.81080  0.37500  0.93580  1.0000 0.4067544085
H   H11       1.0  0.62500  0.18920  0.06420  1.0000 0.4067544085
H   H12       1.0  0.12500  0.56080  0.93580  1.0000 0.4067544085
H   H13       1.0  0.11490  0.11490  0.00000  1.0000 0.1439892766
H   H14       1.0  0.36490  0.86490  0.50000  1.0000 0.1439892766
H   H15       1.0  0.13510  0.63510  0.50000  1.0000 0.1439892766
H   H16       1.0  0.88510  0.88510  0.00000  1.0000 0.1439892766
C   C1        1.0  0.28980  0.06100  0.95000  1.0000 0.5979933855
C   C2        1.0  0.30500  0.19269  0.97449  1.0000 -0.0455474522
C   C3        1.0  0.42330  0.31099  0.97449  1.0000 -0.1431428934
C   C4        1.0  0.11100  0.33980  0.05000  1.0000 0.5979933855
C   C5        1.0  0.21820  0.33051  0.02551  1.0000 -0.0455474522
C   C6        1.0  0.33650  0.44881  0.02551  1.0000 -0.1431428934
C   C7        1.0  0.58980  0.03980  0.72880  1.0000 0.5979933855
C   C8        1.0  0.58051  0.05500  0.61231  1.0000 -0.0455474522
C   C9        1.0  0.69881  0.17330  0.61231  1.0000 -0.1431428934
C   C10       1.0  0.31100  0.86100  0.27120  1.0000 0.5979933855
C   C11       1.0  0.44269  0.96820  0.38769  1.0000 -0.0455474522
C   C12       1.0  0.56099  0.08650  0.38769  1.0000 -0.1431428934
C   C13       1.0  0.96020  0.41020  0.27120  1.0000 0.5979933855
C   C14       1.0  0.94500  0.41949  0.38769  1.0000 -0.0455474522
C   C15       1.0  0.82670  0.30119  0.38769  1.0000 -0.1431428934
C   C16       1.0  0.13900  0.68900  0.72880  1.0000 0.5979933855
C   C17       1.0  0.03180  0.55731  0.61231  1.0000 -0.0455474522
C   C18       1.0  0.91350  0.43901  0.61231  1.0000 -0.1431428934
C   C19       1.0  0.66020  0.88900  0.95000  1.0000 0.5979933855
C   C20       1.0  0.66949  0.78180  0.97449  1.0000 -0.0455474522
C   C21       1.0  0.55119  0.66350  0.97449  1.0000 -0.1431428934
C   C22       1.0  0.93900  0.71020  0.05000  1.0000 0.5979933855
C   C23       1.0  0.80731  0.69500  0.02551  1.0000 -0.0455474522
C   C24       1.0  0.68901  0.57670  0.02551  1.0000 -0.1431428934
C   C25       1.0  0.20240  0.20240  0.00000  1.0000 -0.0834811883
C   C26       1.0  0.43910  0.43910  0.00000  1.0000 0.0778380377
C   C27       1.0  0.45240  0.95240  0.50000  1.0000 -0.0834811883
C   C28       1.0  0.68910  0.18910  0.50000  1.0000 0.0778380377
C   C29       1.0  0.04760  0.54760  0.50000  1.0000 -0.0834811883
C   C30       1.0  0.81090  0.31090  0.50000  1.0000 0.0778380377
C   C31       1.0  0.79760  0.79760  0.00000  1.0000 -0.0834811883
C   C32       1.0  0.56090  0.56090  0.00000  1.0000 0.0778380377
O   O1        1.0  0.22410  0.98540  0.99450  1.0000 -0.4851444321
O   O2        1.0  0.34400  0.03580  0.88680  1.0000 -0.512348968
O   O3        1.0  0.99090  0.22960  0.00550  1.0000 -0.4851444321
O   O4        1.0  0.14900  0.45720  0.11320  1.0000 -0.512348968
O   O5        1.0  0.47960  0.97410  0.73870  1.0000 -0.484796341
O   O6        1.0  0.70720  0.09400  0.80820  1.0000 -0.512348968
O   O7        1.0  0.23540  0.74090  0.26130  1.0000 -0.484796341
O   O8        1.0  0.28580  0.89900  0.19180  1.0000 -0.512348968
O   O9        1.0  0.02590  0.52040  0.26130  1.0000 -0.484796341
O   O10       1.0  0.90600  0.29280  0.19180  1.0000 -0.512348968
O   O11       1.0  0.25910  0.76460  0.73870  1.0000 -0.4851444321
O   O12       1.0  0.10100  0.71420  0.80820  1.0000 -0.512348968
O   O13       1.0  0.77040  0.00910  0.99450  1.0000 -0.484796341
O   O14       1.0  0.54280  0.85100  0.88680  1.0000 -0.512348968
O   O15       1.0  0.01460  0.77590  0.00550  1.0000 -0.4851444321
O   O16       1.0  0.96420  0.65600  0.11320  1.0000 -0.512348968
O   O17       1.0  0.37960  0.87500  0.00460  1.0000 -0.7911920356
O   O18       1.0  0.87040  0.37500  0.99540  1.0000 -0.7911920356
O   O19       1.0  0.62500  0.12960  0.00460  1.0000 -0.7911920356
O   O20       1.0  0.12500  0.62040  0.99540  1.0000 -0.7911920356
