# DDEC6 charges by PACMAN v1.1 (https://github.com/mtap-research/PACMAN-charge/)
data_2021[Cu][bcu]3[FSR]1
_chemical_formula_sum              "Cu8 H112 C104 N16 Cl4"
_cell_length_a       8.5301
_cell_length_b       24.6197
_cell_length_c       16.5416
_cell_angle_alpha    90
_cell_angle_beta     109.271
_cell_angle_gamma    90

_symmetry_space_group_name_H-M    "P 1"
_symmetry_Int_Tables_number       1

loop_
  _symmetry_equiv_pos_as_xyz
  'x, y, z'

loop_
  _atom_site_type_symbol
  _atom_site_label
  _atom_site_symmetry_multiplicity
  _atom_site_fract_x
  _atom_site_fract_y
  _atom_site_fract_z
  _atom_site_occupancy
  _atom_site_charge
Cu  Cu1       1.0  0.78308  0.07928  0.65685  1.0000 0.2229743725
Cu  Cu2       1.0  0.45929  0.01328  0.36538  1.0000 0.2592244385
Cu  Cu3       1.0  0.21692  0.57928  0.84315  1.0000 0.2229743725
Cu  Cu4       1.0  0.54071  0.51328  0.13462  1.0000 0.2592244385
Cu  Cu5       1.0  0.21692  0.92072  0.34315  1.0000 0.2229743725
Cu  Cu6       1.0  0.54071  0.98672  0.63462  1.0000 0.2592244385
Cu  Cu7       1.0  0.78308  0.42072  0.15685  1.0000 0.2229743725
Cu  Cu8       1.0  0.45929  0.48672  0.86538  1.0000 0.2592244385
H   H1        1.0  0.77150  0.34560  0.75120  1.0000 0.1000652655
H   H2        1.0  0.74110  0.35170  0.65280  1.0000 0.0905670216
H   H3        1.0  0.22900  0.05340  0.20200  1.0000 0.0905670216
H   H4        1.0  0.08740  0.13100  0.14860  1.0000 0.1308294019
H   H5        1.0  0.75860  0.15550  0.79070  1.0000 0.0905670216
H   H6        1.0  0.23830  0.25540  0.17080  1.0000 0.0905670216
H   H7        1.0  0.28230  0.27260  0.26710  1.0000 0.0905670216
H   H8        1.0  0.24910  0.19500  0.38180  1.0000 0.1308294019
H   H9        1.0  0.60650  0.16420  0.54220  1.0000 0.0905670216
H   H10       1.0  0.46070  0.32710  0.62340  1.0000 0.1093548268
H   H11       1.0  0.49190  0.32070  0.72180  1.0000 0.1093548268
H   H12       1.0  0.50440  0.44980  0.27690  1.0000 0.0905670216
H   H13       1.0  0.78130  0.48360  0.62020  1.0000 0.1308294019
H   H14       1.0  0.38930  0.11650  0.43070  1.0000 0.0905670216
H   H15       1.0  0.33980  0.38170  0.29780  1.0000 0.1308294019
H   H16       1.0  0.04970  0.49580  0.90690  1.0000 0.1000652655
H   H17       1.0  0.98340  0.22000  0.17080  1.0000 0.1093548268
H   H18       1.0  0.01790  0.24010  0.26500  1.0000 0.1093548268
H   H19       1.0  0.83730  0.43560  0.85780  1.0000 0.1362977936
H   H20       1.0  0.67850  0.24360  0.79960  1.0000 0.1362977936
H   H21       1.0  0.52090  0.25160  0.54550  1.0000 0.1308294019
H   H22       1.0  0.57020  0.41650  0.73770  1.0000 0.1000652655
H   H23       1.0  0.56790  0.42530  0.64350  1.0000 0.1093548268
H   H24       1.0  0.99320  0.54340  0.67500  1.0000 0.0905670216
H   H25       1.0  0.30350  0.43650  0.03010  1.0000 0.1000652655
H   H26       1.0  0.14290  0.36630  0.04480  1.0000 0.1362977936
H   H27       1.0  0.05880  0.33430  0.22860  1.0000 0.1000652655
H   H28       1.0  0.01540  0.31720  0.13250  1.0000 0.1093548268
H   H29       1.0  0.22850  0.84560  0.74880  1.0000 0.1000652655
H   H30       1.0  0.25890  0.85170  0.84720  1.0000 0.0905670216
H   H31       1.0  0.77100  0.55340  0.29800  1.0000 0.0905670216
H   H32       1.0  0.91260  0.63100  0.35140  1.0000 0.1308294019
H   H33       1.0  0.24140  0.65550  0.70930  1.0000 0.0905670216
H   H34       1.0  0.76170  0.75540  0.32920  1.0000 0.0905670216
H   H35       1.0  0.71770  0.77260  0.23290  1.0000 0.0905670216
H   H36       1.0  0.75090  0.69500  0.11820  1.0000 0.1308294019
H   H37       1.0  0.39350  0.66420  0.95780  1.0000 0.0905670216
H   H38       1.0  0.53930  0.82710  0.87660  1.0000 0.1093548268
H   H39       1.0  0.50810  0.82070  0.77820  1.0000 0.1093548268
H   H40       1.0  0.49560  0.94980  0.22310  1.0000 0.0905670216
H   H41       1.0  0.21870  0.98360  0.87980  1.0000 0.1308294019
H   H42       1.0  0.61070  0.61650  0.06930  1.0000 0.0905670216
H   H43       1.0  0.66020  0.88170  0.20220  1.0000 0.1308294019
H   H44       1.0  0.95030  0.99580  0.59310  1.0000 0.1000652655
H   H45       1.0  0.01660  0.72000  0.32920  1.0000 0.1093548268
H   H46       1.0  0.98210  0.74010  0.23500  1.0000 0.1093548268
H   H47       1.0  0.16270  0.93560  0.64220  1.0000 0.1362977936
H   H48       1.0  0.32150  0.74360  0.70040  1.0000 0.1362977936
H   H49       1.0  0.47910  0.75160  0.95450  1.0000 0.1308294019
H   H50       1.0  0.42980  0.91650  0.76230  1.0000 0.1000652655
H   H51       1.0  0.43210  0.92530  0.85650  1.0000 0.1093548268
H   H52       1.0  0.00680  0.04340  0.82500  1.0000 0.0905670216
H   H53       1.0  0.69650  0.93650  0.46990  1.0000 0.1000652655
H   H54       1.0  0.85710  0.86630  0.45520  1.0000 0.1362977936
H   H55       1.0  0.94120  0.83430  0.27140  1.0000 0.1000652655
H   H56       1.0  0.98460  0.81720  0.36750  1.0000 0.1093548268
H   H57       1.0  0.22850  0.65440  0.24880  1.0000 0.1000652655
H   H58       1.0  0.25890  0.64830  0.34720  1.0000 0.0905670216
H   H59       1.0  0.77100  0.94660  0.79800  1.0000 0.0905670216
H   H60       1.0  0.91260  0.86900  0.85140  1.0000 0.1308294019
H   H61       1.0  0.24140  0.84450  0.20930  1.0000 0.0905670216
H   H62       1.0  0.76170  0.74460  0.82920  1.0000 0.0905670216
H   H63       1.0  0.71770  0.72740  0.73290  1.0000 0.0905670216
H   H64       1.0  0.75090  0.80500  0.61820  1.0000 0.1308294019
H   H65       1.0  0.39350  0.83580  0.45780  1.0000 0.0905670216
H   H66       1.0  0.53930  0.67290  0.37660  1.0000 0.1093548268
H   H67       1.0  0.50810  0.67930  0.27820  1.0000 0.1093548268
H   H68       1.0  0.49560  0.55020  0.72310  1.0000 0.0905670216
H   H69       1.0  0.21870  0.51640  0.37980  1.0000 0.1308294019
H   H70       1.0  0.61070  0.88350  0.56930  1.0000 0.0905670216
H   H71       1.0  0.66020  0.61830  0.70220  1.0000 0.1308294019
H   H72       1.0  0.95030  0.50420  0.09310  1.0000 0.1000652655
H   H73       1.0  0.01660  0.78000  0.82920  1.0000 0.1093548268
H   H74       1.0  0.98210  0.75990  0.73500  1.0000 0.1093548268
H   H75       1.0  0.16270  0.56440  0.14220  1.0000 0.1362977936
H   H76       1.0  0.32150  0.75640  0.20040  1.0000 0.1362977936
H   H77       1.0  0.47910  0.74840  0.45450  1.0000 0.1308294019
H   H78       1.0  0.42980  0.58350  0.26230  1.0000 0.1000652655
H   H79       1.0  0.43210  0.57470  0.35650  1.0000 0.1093548268
H   H80       1.0  0.00680  0.45660  0.32500  1.0000 0.0905670216
H   H81       1.0  0.69650  0.56350  0.96990  1.0000 0.1000652655
H   H82       1.0  0.85710  0.63370  0.95520  1.0000 0.1362977936
H   H83       1.0  0.94120  0.66570  0.77140  1.0000 0.1000652655
H   H84       1.0  0.98460  0.68280  0.86750  1.0000 0.1093548268
H   H85       1.0  0.77150  0.15440  0.25120  1.0000 0.1000652655
H   H86       1.0  0.74110  0.14830  0.15280  1.0000 0.0905670216
H   H87       1.0  0.22900  0.44660  0.70200  1.0000 0.0905670216
H   H88       1.0  0.08740  0.36900  0.64860  1.0000 0.1308294019
H   H89       1.0  0.75860  0.34450  0.29070  1.0000 0.0905670216
H   H90       1.0  0.23830  0.24460  0.67080  1.0000 0.0905670216
H   H91       1.0  0.28230  0.22740  0.76710  1.0000 0.0905670216
H   H92       1.0  0.24910  0.30500  0.88180  1.0000 0.1308294019
H   H93       1.0  0.60650  0.33580  0.04220  1.0000 0.0905670216
H   H94       1.0  0.46070  0.17290  0.12340  1.0000 0.1093548268
H   H95       1.0  0.49190  0.17930  0.22180  1.0000 0.1093548268
H   H96       1.0  0.50440  0.05020  0.77690  1.0000 0.0905670216
H   H97       1.0  0.78130  0.01640  0.12020  1.0000 0.1308294019
H   H98       1.0  0.38930  0.38350  0.93070  1.0000 0.0905670216
H   H99       1.0  0.33980  0.11830  0.79780  1.0000 0.1308294019
H   H100      1.0  0.04970  0.00420  0.40690  1.0000 0.1000652655
H   H101      1.0  0.98340  0.28000  0.67080  1.0000 0.1093548268
H   H102      1.0  0.01790  0.25990  0.76500  1.0000 0.1093548268
H   H103      1.0  0.83730  0.06440  0.35780  1.0000 0.1362977936
H   H104      1.0  0.67850  0.25640  0.29960  1.0000 0.1362977936
H   H105      1.0  0.52090  0.24840  0.04550  1.0000 0.1308294019
H   H106      1.0  0.57020  0.08350  0.23770  1.0000 0.1000652655
H   H107      1.0  0.56790  0.07470  0.14350  1.0000 0.1093548268
H   H108      1.0  0.99320  0.95660  0.17500  1.0000 0.0905670216
H   H109      1.0  0.30350  0.06350  0.53010  1.0000 0.1000652655
H   H110      1.0  0.14290  0.13370  0.54480  1.0000 0.1362977936
H   H111      1.0  0.05880  0.16570  0.72860  1.0000 0.1000652655
H   H112      1.0  0.01540  0.18280  0.63250  1.0000 0.1093548268
C   C1        1.0  0.68980  0.35536  0.69680  1.0000 -0.1525875316
C   C2        1.0  0.59170  0.25839  0.67310  1.0000 0.1477046585
C   C3        1.0  0.15380  0.17270  0.25860  1.0000 0.1477046585
C   C4        1.0  0.23400  0.08228  0.23910  1.0000 0.0512067118
C   C5        1.0  0.78150  0.45259  0.73210  1.0000 0.1477046585
C   C6        1.0  0.14890  0.12899  0.20650  1.0000 -0.2085333075
C   C7        1.0  0.71120  0.17508  0.74050  1.0000 0.0512067118
C   C8        1.0  0.19190  0.26807  0.21360  1.0000 -0.1554871263
C   C9        1.0  0.24420  0.16674  0.34370  1.0000 -0.219188244
C   C10       1.0  0.62170  0.18023  0.59510  1.0000 0.0512067118
C   C11       1.0  0.54270  0.31698  0.67760  1.0000 -0.2681710707
C   C12       1.0  0.42870  0.43329  0.22940  1.0000 0.0432473789
C   C13       1.0  0.83340  0.48551  0.67920  1.0000 -0.219188244
C   C14       1.0  0.21980  0.36602  0.17330  1.0000 0.1477046585
C   C15       1.0  0.32740  0.11926  0.37290  1.0000 0.0432473789
C   C16       1.0  0.33100  0.39207  0.24240  1.0000 -0.219188244
C   C17       1.0  0.99460  0.49358  0.84830  1.0000 0.0637192851
C   C18       1.0  0.06990  0.22609  0.22530  1.0000 -0.2681710707
C   C19       1.0  0.86690  0.45724  0.81910  1.0000 -0.2085333075
C   C20       1.0  0.66290  0.22819  0.74620  1.0000 -0.219188244
C   C21       1.0  0.57030  0.23307  0.59660  1.0000 -0.219188244
C   C22       1.0  0.63680  0.41412  0.70030  1.0000 -0.2681710707
C   C23       1.0  0.96170  0.52129  0.71260  1.0000 0.0308611919
C   C24       1.0  0.31200  0.42515  0.08500  1.0000 0.0637192851
C   C25       1.0  0.21400  0.38327  0.09340  1.0000 -0.219188244
C   C26       1.0  0.10610  0.32228  0.18580  1.0000 -0.2681710707
C   C27       1.0  0.31020  0.85536  0.80320  1.0000 -0.1525875316
C   C28       1.0  0.40830  0.75839  0.82690  1.0000 0.1477046585
C   C29       1.0  0.84620  0.67270  0.24140  1.0000 0.1477046585
C   C30       1.0  0.76600  0.58228  0.26090  1.0000 0.0512067118
C   C31       1.0  0.21850  0.95259  0.76790  1.0000 0.1477046585
C   C32       1.0  0.85110  0.62899  0.29350  1.0000 -0.219188244
C   C33       1.0  0.28880  0.67508  0.75950  1.0000 0.0512067118
C   C34       1.0  0.80810  0.76807  0.28640  1.0000 -0.1554871263
C   C35       1.0  0.75580  0.66674  0.15630  1.0000 -0.219188244
C   C36       1.0  0.37830  0.68023  0.90490  1.0000 0.0512067118
C   C37       1.0  0.45730  0.81698  0.82240  1.0000 -0.2681710707
C   C38       1.0  0.57130  0.93329  0.27060  1.0000 0.0432473789
C   C39       1.0  0.16660  0.98551  0.82080  1.0000 -0.219188244
C   C40       1.0  0.78020  0.86602  0.32670  1.0000 0.1477046585
C   C41       1.0  0.67260  0.61926  0.12710  1.0000 0.0432473789
C   C42       1.0  0.66900  0.89207  0.25760  1.0000 -0.219188244
C   C43       1.0  0.00540  0.99358  0.65170  1.0000 0.0637192851
C   C44       1.0  0.93010  0.72609  0.27470  1.0000 -0.2681710707
C   C45       1.0  0.13310  0.95724  0.68090  1.0000 -0.2085333075
C   C46       1.0  0.33710  0.72819  0.75380  1.0000 -0.219188244
C   C47       1.0  0.42970  0.73307  0.90340  1.0000 -0.219188244
C   C48       1.0  0.36320  0.91412  0.79970  1.0000 -0.2681710707
C   C49       1.0  0.03830  0.02129  0.78740  1.0000 0.0308611919
C   C50       1.0  0.68800  0.92515  0.41500  1.0000 0.0637192851
C   C51       1.0  0.78600  0.88327  0.40660  1.0000 -0.219188244
C   C52       1.0  0.89390  0.82228  0.31420  1.0000 -0.2681710707
C   C53       1.0  0.31020  0.64464  0.30320  1.0000 -0.1525875316
C   C54       1.0  0.40830  0.74161  0.32690  1.0000 0.1477046585
C   C55       1.0  0.84620  0.82730  0.74140  1.0000 0.1477046585
C   C56       1.0  0.76600  0.91772  0.76090  1.0000 0.0512067118
C   C57       1.0  0.21850  0.54741  0.26790  1.0000 0.1477046585
C   C58       1.0  0.85110  0.87101  0.79350  1.0000 -0.219188244
C   C59       1.0  0.28880  0.82492  0.25950  1.0000 0.0512067118
C   C60       1.0  0.80810  0.73193  0.78640  1.0000 -0.1554871263
C   C61       1.0  0.75580  0.83326  0.65630  1.0000 -0.219188244
C   C62       1.0  0.37830  0.81977  0.40490  1.0000 0.0512067118
C   C63       1.0  0.45730  0.68302  0.32240  1.0000 -0.2681710707
C   C64       1.0  0.57130  0.56671  0.77060  1.0000 0.0432473789
C   C65       1.0  0.16660  0.51449  0.32080  1.0000 -0.219188244
C   C66       1.0  0.78020  0.63398  0.82670  1.0000 0.1477046585
C   C67       1.0  0.67260  0.88074  0.62710  1.0000 0.0432473789
C   C68       1.0  0.66900  0.60793  0.75760  1.0000 -0.219188244
C   C69       1.0  0.00540  0.50642  0.15170  1.0000 0.0637192851
C   C70       1.0  0.93010  0.77391  0.77470  1.0000 -0.2681710707
C   C71       1.0  0.13310  0.54276  0.18090  1.0000 -0.2085333075
C   C72       1.0  0.33710  0.77181  0.25380  1.0000 -0.219188244
C   C73       1.0  0.42970  0.76693  0.40340  1.0000 -0.219188244
C   C74       1.0  0.36320  0.58588  0.29970  1.0000 -0.2681710707
C   C75       1.0  0.03830  0.47871  0.28740  1.0000 0.0308611919
C   C76       1.0  0.68800  0.57485  0.91500  1.0000 0.0637192851
C   C77       1.0  0.78600  0.61673  0.90660  1.0000 -0.219188244
C   C78       1.0  0.89390  0.67772  0.81420  1.0000 -0.2681710707
C   C79       1.0  0.68980  0.14464  0.19680  1.0000 -0.1525875316
C   C80       1.0  0.59170  0.24161  0.17310  1.0000 0.1477046585
C   C81       1.0  0.15380  0.32730  0.75860  1.0000 0.1477046585
C   C82       1.0  0.23400  0.41772  0.73910  1.0000 0.0512067118
C   C83       1.0  0.78150  0.04741  0.23210  1.0000 0.1477046585
C   C84       1.0  0.14890  0.37101  0.70650  1.0000 -0.219188244
C   C85       1.0  0.71120  0.32492  0.24050  1.0000 0.0512067118
C   C86       1.0  0.19190  0.23193  0.71360  1.0000 -0.1554871263
C   C87       1.0  0.24420  0.33326  0.84370  1.0000 -0.219188244
C   C88       1.0  0.62170  0.31977  0.09510  1.0000 0.0512067118
C   C89       1.0  0.54270  0.18302  0.17760  1.0000 -0.2681710707
C   C90       1.0  0.42870  0.06671  0.72940  1.0000 0.0432473789
C   C91       1.0  0.83340  0.01449  0.17920  1.0000 -0.219188244
C   C92       1.0  0.21980  0.13398  0.67330  1.0000 0.1477046585
C   C93       1.0  0.32740  0.38074  0.87290  1.0000 0.0432473789
C   C94       1.0  0.33100  0.10793  0.74240  1.0000 -0.219188244
C   C95       1.0  0.99460  0.00642  0.34830  1.0000 0.0637192851
C   C96       1.0  0.06990  0.27391  0.72530  1.0000 -0.2681710707
C   C97       1.0  0.86690  0.04276  0.31910  1.0000 -0.2085333075
C   C98       1.0  0.66290  0.27181  0.24620  1.0000 -0.219188244
C   C99       1.0  0.57030  0.26693  0.09660  1.0000 -0.219188244
C   C100      1.0  0.63680  0.08588  0.20030  1.0000 -0.2681710707
C   C101      1.0  0.96170  0.97871  0.21260  1.0000 0.0308611919
C   C102      1.0  0.31200  0.07485  0.58500  1.0000 0.0637192851
C   C103      1.0  0.21400  0.11673  0.59340  1.0000 -0.219188244
C   C104      1.0  0.10610  0.17772  0.68580  1.0000 -0.2681710707
N   N1        1.0  0.32399  0.07638  0.32199  1.0000 -0.1983352673
N   N2        1.0  0.69216  0.15077  0.66546  1.0000 -0.1948250668
N   N3        1.0  0.41947  0.45061  0.15137  1.0000 -0.2085333075
N   N4        1.0  0.04389  0.52608  0.79639  1.0000 -0.2085333075
N   N5        1.0  0.67601  0.57638  0.17801  1.0000 -0.1983352673
N   N6        1.0  0.30784  0.65077  0.83454  1.0000 -0.1983352673
N   N7        1.0  0.58053  0.95061  0.34863  1.0000 -0.2085333075
N   N8        1.0  0.95611  0.02608  0.70361  1.0000 -0.2085333075
N   N9        1.0  0.67601  0.92362  0.67801  1.0000 -0.1983352673
N   N10       1.0  0.30784  0.84923  0.33454  1.0000 -0.1983352673
N   N11       1.0  0.58053  0.54939  0.84863  1.0000 -0.2085333075
N   N12       1.0  0.95611  0.47392  0.20361  1.0000 -0.2085333075
N   N13       1.0  0.32399  0.42362  0.82199  1.0000 -0.1983352673
N   N14       1.0  0.69216  0.34923  0.16546  1.0000 -0.1983352673
N   N15       1.0  0.41947  0.04939  0.65137  1.0000 -0.2085333075
N   N16       1.0  0.04389  0.97392  0.29639  1.0000 -0.2085333075
Cl  Cl1       1.0  0.66801  0.05235  0.50669  1.0000 -0.5722251521
Cl  Cl2       1.0  0.33199  0.55235  0.99331  1.0000 -0.5722251521
Cl  Cl3       1.0  0.33199  0.94765  0.49331  1.0000 -0.5722251521
Cl  Cl4       1.0  0.66801  0.44765  0.00669  1.0000 -0.5722251521
