# DDEC6 charges by PACMAN v1.1 (https://github.com/mtap-research/PACMAN-charge/)
data_2021[Cd][nan]3[FSR]3
_chemical_formula_sum              "Cd3 H70 C108 N12 O14"
_cell_length_a       10.3508
_cell_length_b       16.3026
_cell_length_c       19.4435
_cell_angle_alpha    94.393
_cell_angle_beta     101.768
_cell_angle_gamma    104.191

_symmetry_space_group_name_H-M    "P 1"
_symmetry_Int_Tables_number       1

loop_
  _symmetry_equiv_pos_as_xyz
  'x, y, z'

loop_
  _atom_site_type_symbol
  _atom_site_label
  _atom_site_symmetry_multiplicity
  _atom_site_fract_x
  _atom_site_fract_y
  _atom_site_fract_z
  _atom_site_occupancy
  _atom_site_charge
Cd  Cd1       1.0  0.62882  0.05004  0.30277  1.0000 0.8567707307
Cd  Cd2       1.0  0.37118  0.94996  0.69723  1.0000 0.8567707307
Cd  Cd3       1.0  0.00000  0.50000  0.00000  1.0000 0.9238383539
H   H1        1.0  0.74253  0.47324  0.03074  1.0000 0.3531722493
H   H2        1.0  0.82281  0.44935  0.08770  1.0000 0.366762764
H   H3        1.0  0.06489  0.19291  0.46697  1.0000 0.1190423432
H   H4        1.0  0.35423  0.42567  0.59838  1.0000 0.1113488294
H   H5        1.0  0.54948  0.94922  0.86665  1.0000 0.1113488294
H   H6        1.0  0.83225  0.34611  0.39545  1.0000 0.1190423432
H   H7        1.0  0.83433  0.79272  0.91505  1.0000 0.1413278001
H   H8        1.0  0.83424  0.65644  0.97515  1.0000 0.1190423432
H   H9        1.0  0.22079  0.55044  0.43986  1.0000 0.1190423432
H   H10       1.0  0.42564  0.78514  0.55166  1.0000 0.1190423432
H   H11       1.0  0.74308  0.61825  0.63693  1.0000 0.1113488294
H   H12       1.0  0.55823  0.66667  0.59024  1.0000 0.1190423432
H   H13       1.0  0.24383  0.31007  0.51748  1.0000 0.1190423432
H   H14       1.0  0.47743  0.90313  0.49355  1.0000 0.1306955416
H   H15       1.0  0.46341  0.46146  0.71642  1.0000 0.1113488294
H   H16       1.0  0.89476  0.87919  0.12158  1.0000 0.1413278001
H   H17       1.0  0.61406  0.89556  0.63545  1.0000 0.1452527113
H   H18       1.0  0.48250  0.75138  0.32245  1.0000 0.1113488294
H   H19       1.0  0.01183  0.46345  0.44400  1.0000 0.1113488294
H   H20       1.0  0.63202  0.45826  0.81266  1.0000 0.1190423432
H   H21       1.0  0.92820  0.84016  0.82565  1.0000 0.1190423432
H   H22       1.0  0.85732  0.13237  0.02231  1.0000 0.1190423432
H   H23       1.0  0.71898  0.00210  0.97214  1.0000 0.1413278001
H   H24       1.0  0.91292  0.60671  0.72932  1.0000 0.1190423432
H   H25       1.0  0.79175  0.84057  0.61617  1.0000 0.1190423432
H   H26       1.0  0.41411  0.63322  0.37792  1.0000 0.1113488294
H   H27       1.0  0.72837  0.92786  0.18031  1.0000 0.1190423432
H   H28       1.0  0.76178  0.22113  0.23835  1.0000 0.1413278001
H   H29       1.0  0.13371  0.90300  0.13676  1.0000 0.1190423432
H   H30       1.0  0.94786  0.81625  0.70968  1.0000 0.1190423432
H   H31       1.0  0.32972  0.88669  0.20857  1.0000 0.1113488294
H   H32       1.0  0.83933  0.31835  0.16623  1.0000 0.1190423432
H   H33       1.0  0.88151  0.27503  0.05928  1.0000 0.1113488294
H   H34       1.0  0.24793  0.64091  0.12402  1.0000 0.1306955416
H   H35       1.0  0.39204  0.75932  0.19936  1.0000 0.1113488294
H   H36       1.0  0.25747  0.52676  0.96926  1.0000 0.3531722493
H   H37       1.0  0.17719  0.55065  0.91230  1.0000 0.366762764
H   H38       1.0  0.93511  0.80709  0.53303  1.0000 0.1190423432
H   H39       1.0  0.64577  0.57433  0.40162  1.0000 0.1113488294
H   H40       1.0  0.45052  0.05078  0.13335  1.0000 0.1113488294
H   H41       1.0  0.16775  0.65389  0.60455  1.0000 0.1190423432
H   H42       1.0  0.16567  0.20728  0.08495  1.0000 0.1413278001
H   H43       1.0  0.16576  0.34356  0.02485  1.0000 0.1190423432
H   H44       1.0  0.77921  0.44956  0.56014  1.0000 0.1190423432
H   H45       1.0  0.57436  0.21486  0.44834  1.0000 0.1190423432
H   H46       1.0  0.25692  0.38175  0.36307  1.0000 0.1113488294
H   H47       1.0  0.44177  0.33333  0.40976  1.0000 0.1190423432
H   H48       1.0  0.75617  0.68993  0.48252  1.0000 0.1190423432
H   H49       1.0  0.52257  0.09687  0.50645  1.0000 0.1306955416
H   H50       1.0  0.53659  0.53854  0.28358  1.0000 0.1113488294
H   H51       1.0  0.10524  0.12081  0.87842  1.0000 0.1413278001
H   H52       1.0  0.38594  0.10444  0.36455  1.0000 0.1452527113
H   H53       1.0  0.51750  0.24862  0.67755  1.0000 0.1113488294
H   H54       1.0  0.98817  0.53655  0.55600  1.0000 0.1113488294
H   H55       1.0  0.36798  0.54174  0.18734  1.0000 0.1190423432
H   H56       1.0  0.07180  0.15984  0.17435  1.0000 0.1190423432
H   H57       1.0  0.14268  0.86763  0.97769  1.0000 0.1190423432
H   H58       1.0  0.28102  0.99790  0.02786  1.0000 0.1413278001
H   H59       1.0  0.08708  0.39329  0.27068  1.0000 0.1190423432
H   H60       1.0  0.20825  0.15943  0.38383  1.0000 0.1190423432
H   H61       1.0  0.58589  0.36678  0.62208  1.0000 0.1113488294
H   H62       1.0  0.27163  0.07214  0.81969  1.0000 0.1190423432
H   H63       1.0  0.23822  0.77887  0.76165  1.0000 0.1413278001
H   H64       1.0  0.86629  0.09700  0.86324  1.0000 0.1190423432
H   H65       1.0  0.05214  0.18375  0.29032  1.0000 0.1190423432
H   H66       1.0  0.67028  0.11331  0.79143  1.0000 0.1113488294
H   H67       1.0  0.16067  0.68165  0.83377  1.0000 0.1190423432
H   H68       1.0  0.11849  0.72497  0.94072  1.0000 0.1113488294
H   H69       1.0  0.75207  0.35909  0.87598  1.0000 0.1306955416
H   H70       1.0  0.60796  0.24068  0.80064  1.0000 0.1113488294
C   C1        1.0  0.05430  0.24730  0.46210  1.0000 -0.1002546197
C   C2        1.0  0.26630  0.47610  0.51550  1.0000 0.0690151427
C   C3        1.0  0.36380  0.47450  0.57600  1.0000 -0.1899141826
C   C4        1.0  0.76770  0.89760  0.93200  1.0000 0.2079528364
C   C5        1.0  0.81840  0.18030  0.38640  1.0000 0.5420491464
C   C6        1.0  0.59890  0.93100  0.83640  1.0000 0.1306955416
C   C7        1.0  0.91540  0.33870  0.41910  1.0000 -0.1002546197
C   C8        1.0  0.75660  0.88140  0.79940  1.0000 0.0878663329
C   C9        1.0  0.41810  0.69700  0.47140  1.0000 0.0690151427
C   C10       1.0  0.92990  0.25640  0.42430  1.0000 -0.0307067561
C   C11       1.0  0.82730  0.83260  0.95000  1.0000 -0.2661648624
C   C12       1.0  0.79840  0.09210  0.11070  1.0000 0.0878663329
C   C13       1.0  0.91230  0.68150  0.01070  1.0000 0.1306955416
C   C14       1.0  0.58360  0.54090  0.66600  1.0000 0.0690151427
C   C15       1.0  0.76800  0.11800  0.17440  1.0000 0.1190423432
C   C16       1.0  0.47610  0.54520  0.60390  1.0000 0.0807259038
C   C17       1.0  0.28350  0.54940  0.48130  1.0000 -0.1899141826
C   C18       1.0  0.66370  0.89830  0.74230  1.0000 0.1413278001
C   C19       1.0  0.43580  0.77810  0.50530  1.0000 -0.1348123186
C   C20       1.0  0.72040  0.58470  0.67150  1.0000 -0.151213145
C   C21       1.0  0.39340  0.62060  0.50880  1.0000 0.0807259038
C   C22       1.0  0.48700  0.61830  0.57070  1.0000 -0.1803174846
C   C23       1.0  0.16190  0.31770  0.49230  1.0000 -0.151213145
C   C24       1.0  0.46860  0.84910  0.47080  1.0000 -0.0835783042
C   C25       1.0  0.55330  0.49230  0.71940  1.0000 -0.151213145
C   C26       1.0  0.53100  0.91650  0.36620  1.0000 0.5522675879
C   C27       1.0  0.48840  0.84000  0.40240  1.0000 -0.0202650417
C   C28       1.0  0.86350  0.88430  0.07420  1.0000 -0.281653636
C   C29       1.0  0.14910  0.40020  0.48550  1.0000 0.0690151427
C   C30       1.0  0.67560  0.88400  0.67300  1.0000 -0.151213145
C   C31       1.0  0.46940  0.75850  0.36820  1.0000 -0.1002546197
C   C32       1.0  0.02300  0.40910  0.44860  1.0000 -0.151213145
C   C33       1.0  0.87610  0.82790  0.02080  1.0000 0.2079528364
C   C34       1.0  0.65480  0.48930  0.77660  1.0000 -0.1069462083
C   C35       1.0  0.86530  0.85080  0.78820  1.0000 -0.1997952767
C   C36       1.0  0.79020  0.53170  0.78120  1.0000 -0.0307067561
C   C37       1.0  0.83980  0.14980  0.06540  1.0000 -0.2108088218
C   C38       1.0  0.75650  0.95740  0.98430  1.0000 -0.2873773508
C   C39       1.0  0.80290  0.94850  0.05500  1.0000 0.2079528364
C   C40       1.0  0.82220  0.57890  0.72750  1.0000 -0.1002546197
C   C41       1.0  0.90130  0.52790  0.84320  1.0000 0.5624757178
C   C42       1.0  0.78210  0.85210  0.66220  1.0000 -0.1002546197
C   C43       1.0  0.43120  0.68760  0.40210  1.0000 -0.151213145
C   C44       1.0  0.06850  0.77850  0.09030  1.0000 0.0878663329
C   C45       1.0  0.74480  0.98330  0.16900  1.0000 0.1190423432
C   C46       1.0  0.78190  0.20350  0.19610  1.0000 -0.1658878558
C   C47       1.0  0.15500  0.85080  0.13510  1.0000 -0.1997952767
C   C48       1.0  0.87590  0.83670  0.71890  1.0000 -0.0835783042
C   C49       1.0  0.10230  0.70020  0.08640  1.0000 0.1413278001
C   C50       1.0  0.27220  0.84080  0.17640  1.0000 -0.0908309725
C   C51       1.0  0.82650  0.26040  0.15260  1.0000 -0.0908309725
C   C52       1.0  0.85350  0.23420  0.08790  1.0000 -0.0908309725
C   C53       1.0  0.22430  0.69230  0.12700  1.0000 -0.15861822
C   C54       1.0  0.30930  0.76290  0.17180  1.0000 -0.1002546197
C   C55       1.0  0.94570  0.75270  0.53790  1.0000 -0.1002546197
C   C56       1.0  0.73370  0.52390  0.48450  1.0000 0.0690151427
C   C57       1.0  0.63620  0.52550  0.42400  1.0000 -0.1899141826
C   C58       1.0  0.23230  0.10240  0.06800  1.0000 0.2079528364
C   C59       1.0  0.18160  0.81970  0.61360  1.0000 0.5420491464
C   C60       1.0  0.40110  0.06900  0.16360  1.0000 0.1306955416
C   C61       1.0  0.08460  0.66130  0.58090  1.0000 -0.1002546197
C   C62       1.0  0.24340  0.11860  0.20060  1.0000 0.0878663329
C   C63       1.0  0.58190  0.30300  0.52860  1.0000 0.0690151427
C   C64       1.0  0.07010  0.74360  0.57570  1.0000 -0.0307067561
C   C65       1.0  0.17270  0.16740  0.05000  1.0000 -0.2661648624
C   C66       1.0  0.20160  0.90790  0.88930  1.0000 0.0878663329
C   C67       1.0  0.08770  0.31850  0.98930  1.0000 0.1306955416
C   C68       1.0  0.41640  0.45910  0.33400  1.0000 0.0690151427
C   C69       1.0  0.23200  0.88200  0.82560  1.0000 0.1190423432
C   C70       1.0  0.52390  0.45480  0.39610  1.0000 0.0807259038
C   C71       1.0  0.71650  0.45060  0.51870  1.0000 -0.1899141826
C   C72       1.0  0.33630  0.10170  0.25770  1.0000 0.1413278001
C   C73       1.0  0.56420  0.22190  0.49470  1.0000 -0.1348123186
C   C74       1.0  0.27960  0.41530  0.32850  1.0000 -0.151213145
C   C75       1.0  0.60660  0.37940  0.49120  1.0000 0.0807259038
C   C76       1.0  0.51300  0.38170  0.42930  1.0000 -0.1803174846
C   C77       1.0  0.83810  0.68230  0.50770  1.0000 -0.151213145
C   C78       1.0  0.53140  0.15090  0.52920  1.0000 -0.0835783042
C   C79       1.0  0.44670  0.50770  0.28060  1.0000 -0.151213145
C   C80       1.0  0.46900  0.08350  0.63380  1.0000 0.5522675879
C   C81       1.0  0.51160  0.16000  0.59760  1.0000 -0.0202650417
C   C82       1.0  0.13650  0.11570  0.92580  1.0000 -0.281653636
C   C83       1.0  0.85090  0.59980  0.51450  1.0000 0.0690151427
C   C84       1.0  0.32440  0.11600  0.32700  1.0000 -0.151213145
C   C85       1.0  0.53060  0.24150  0.63180  1.0000 -0.1002546197
C   C86       1.0  0.97700  0.59090  0.55140  1.0000 -0.151213145
C   C87       1.0  0.12390  0.17210  0.97920  1.0000 0.2079528364
C   C88       1.0  0.34520  0.51070  0.22340  1.0000 -0.1069462083
C   C89       1.0  0.13470  0.14920  0.21180  1.0000 -0.1997952767
C   C90       1.0  0.20980  0.46830  0.21880  1.0000 -0.0307067561
C   C91       1.0  0.16020  0.85020  0.93460  1.0000 -0.2108088218
C   C92       1.0  0.24350  0.04260  0.01570  1.0000 -0.2873773508
C   C93       1.0  0.19710  0.05150  0.94500  1.0000 0.2079528364
C   C94       1.0  0.17780  0.42110  0.27250  1.0000 -0.1002546197
C   C95       1.0  0.09870  0.47210  0.15680  1.0000 0.5624757178
C   C96       1.0  0.21790  0.14790  0.33780  1.0000 -0.1002546197
C   C97       1.0  0.56880  0.31240  0.59790  1.0000 -0.151213145
C   C98       1.0  0.93150  0.22150  0.90970  1.0000 0.0878663329
C   C99       1.0  0.25520  0.01670  0.83100  1.0000 0.1190423432
C   C100      1.0  0.21810  0.79650  0.80390  1.0000 -0.1658878558
C   C101      1.0  0.84500  0.14920  0.86490  1.0000 -0.1997952767
C   C102      1.0  0.12410  0.16330  0.28110  1.0000 -0.0835783042
C   C103      1.0  0.89770  0.29980  0.91360  1.0000 0.1413278001
C   C104      1.0  0.72780  0.15920  0.82360  1.0000 -0.0908309725
C   C105      1.0  0.17350  0.73960  0.84740  1.0000 -0.0908309725
C   C106      1.0  0.14650  0.76580  0.91210  1.0000 -0.0908309725
C   C107      1.0  0.77570  0.30770  0.87300  1.0000 -0.15861822
C   C108      1.0  0.69070  0.23710  0.82820  1.0000 -0.1002546197
N   N1        1.0  0.71260  0.90390  0.85950  1.0000 -0.0622312154
N   N2        1.0  0.56590  0.92910  0.76790  1.0000 -0.3390804015
N   N3        1.0  0.73220  0.04720  0.20900  1.0000 -0.3390804015
N   N4        1.0  0.94580  0.76440  0.04060  1.0000 -0.0622312154
N   N5        1.0  0.78440  0.00570  0.10910  1.0000 -0.0533038962
N   N6        1.0  0.00080  0.64090  0.03690  1.0000 -0.3463469379
N   N7        1.0  0.28740  0.09610  0.14050  1.0000 -0.0622312154
N   N8        1.0  0.43410  0.07090  0.23210  1.0000 -0.3390804015
N   N9        1.0  0.26780  0.95280  0.79100  1.0000 -0.3390804015
N   N10       1.0  0.05420  0.23560  0.95940  1.0000 -0.0622312154
N   N11       1.0  0.21560  0.99430  0.89090  1.0000 -0.0533038962
N   N12       1.0  0.99920  0.35910  0.96310  1.0000 -0.3463469379
O   O1        1.0  0.57620  0.90680  0.31053  1.0000 -0.5705696576
O   O2        1.0  0.83980  0.10770  0.38671  1.0000 -0.524205827
O   O3        1.0  0.70760  0.19140  0.35239  1.0000 -0.5571781032
O   O4        1.0  0.86260  0.51260  0.89927  1.0000 -0.5782639019
O   O5        1.0  0.52330  0.98750  0.39101  1.0000 -0.5291051797
O   O6        1.0  0.80390  0.44360  0.04070  1.0000 -0.6717242234
O   O7        1.0  0.01930  0.53610  0.83490  1.0000 -0.5571781032
O   O8        1.0  0.42380  0.09320  0.68947  1.0000 -0.5705696576
O   O9        1.0  0.16020  0.89230  0.61329  1.0000 -0.524205827
O   O10       1.0  0.29240  0.80860  0.64761  1.0000 -0.5571781032
O   O11       1.0  0.13740  0.48740  0.10073  1.0000 -0.5782639019
O   O12       1.0  0.47670  0.01250  0.60899  1.0000 -0.5291051797
O   O13       1.0  0.19610  0.55640  0.95930  1.0000 -0.6717242234
O   O14       1.0  0.98070  0.46390  0.16510  1.0000 -0.5571781032
