# DDEC6 charges by PACMAN v1.1 (https://github.com/mtap-research/PACMAN-charge/)
data_2021[Ce][nan]3[FSR]1
_chemical_formula_sum              "Ce8 H78 C102 N2 O60"
_cell_length_a       16.999
_cell_length_b       10.867
_cell_length_c       18.927
_cell_angle_alpha    90
_cell_angle_beta     95.742
_cell_angle_gamma    90

_symmetry_space_group_name_H-M    "P 1"
_symmetry_Int_Tables_number       1

loop_
  _symmetry_equiv_pos_as_xyz
  'x, y, z'

loop_
  _atom_site_type_symbol
  _atom_site_label
  _atom_site_symmetry_multiplicity
  _atom_site_fract_x
  _atom_site_fract_y
  _atom_site_fract_z
  _atom_site_occupancy
  _atom_site_charge
Ce  Ce1       1.0  0.31521  0.14174  0.20115  1.0000 1.8941665535
Ce  Ce2       1.0  0.46498  0.58146  0.70402  1.0000 1.9683084135
Ce  Ce3       1.0  0.68232  0.38641  0.70245  1.0000 1.8941665535
Ce  Ce4       1.0  0.53212  0.95445  0.20360  1.0000 1.9683084135
Ce  Ce5       1.0  0.81521  0.85826  0.20115  1.0000 1.8941665535
Ce  Ce6       1.0  0.96498  0.41854  0.70402  1.0000 1.9683084135
Ce  Ce7       1.0  0.18232  0.61359  0.70245  1.0000 1.8941665535
Ce  Ce8       1.0  0.03212  0.04555  0.20360  1.0000 1.9683084135
H   H1        1.0  0.23960  0.84320  0.87320  1.0000 0.1198815202
H   H2        1.0  0.23160  0.92130  0.98170  1.0000 0.1291999626
H   H3        1.0  0.43880  0.77450  0.04670  1.0000 0.109632573
H   H4        1.0  0.43800  0.67460  0.93940  1.0000 0.1198815202
H   H5        1.0  0.45510  0.74340  0.39480  1.0000 0.109632573
H   H6        1.0  0.43240  0.67260  0.50910  1.0000 0.1198815202
H   H7        1.0  0.22190  0.84040  0.49110  1.0000 0.109632573
H   H8        1.0  0.24600  0.91580  0.38240  1.0000 0.1291999626
H   H9        1.0  0.38360  0.25890  0.37730  1.0000 0.1291999626
H   H10       1.0  0.38320  0.35920  0.48350  1.0000 0.1198815202
H   H11       1.0  0.61020  0.29300  0.52770  1.0000 0.1291999626
H   H12       1.0  0.60850  0.19870  0.41510  1.0000 0.1198815202
H   H13       1.0  0.56060  0.81390  0.51820  1.0000 0.1198815202
H   H14       1.0  0.57720  0.88230  0.40980  1.0000 0.1291999626
H   H15       1.0  0.74690  0.62150  0.40420  1.0000 0.1198815202
H   H16       1.0  0.72830  0.57120  0.51660  1.0000 0.1291999626
H   H17       1.0  0.40700  0.38190  0.88330  1.0000 0.1402665868
H   H18       1.0  0.38240  0.33280  0.99240  1.0000 0.109632573
H   H19       1.0  0.58610  0.15470  0.02580  1.0000 0.1291999626
H   H20       1.0  0.61930  0.23690  0.91530  1.0000 0.1198815202
H   H21       1.0  0.55650  0.75490  0.85730  1.0000 0.1198815202
H   H22       1.0  0.55610  0.85950  0.96470  1.0000 0.1198815202
H   H23       1.0  0.74060  0.64030  0.04720  1.0000 0.109632573
H   H24       1.0  0.74080  0.56060  0.93390  1.0000 0.1198815202
H   H25       1.0  0.34330  0.41040  0.16600  1.0000 0.3788030391
H   H26       1.0  0.27640  0.43150  0.20950  1.0000 0.4005572741
H   H27       1.0  0.65420  0.10360  0.71120  1.0000 0.4005572741
H   H28       1.0  0.70690  0.20750  0.67370  1.0000 0.331894273
H   H29       1.0  0.48310  0.74380  0.14490  1.0000 0.3609053586
H   H30       1.0  0.50570  0.67420  0.21390  1.0000 0.4091518839
H   H31       1.0  0.68350  0.02610  0.17560  1.0000 0.3609053586
H   H32       1.0  0.63350  0.14610  0.17490  1.0000 0.4091518839
H   H33       1.0  0.49060  0.88710  0.64150  1.0000 0.0916934554
H   H34       1.0  0.47410  0.06520  0.60560  1.0000 0.1291999626
H   H35       1.0  0.49030  0.17160  0.66110  1.0000 0.1402665868
H   H36       1.0  0.40320  0.13280  0.63580  1.0000 0.1402665868
H   H37       1.0  0.42120  0.00270  0.80680  1.0000 0.1291999626
H   H38       1.0  0.43760  0.13630  0.78070  1.0000 0.1291999626
H   H39       1.0  0.50840  0.04990  0.80690  1.0000 0.1291999626
H   H40       1.0  0.73960  0.15680  0.87320  1.0000 0.1198815202
H   H41       1.0  0.73160  0.07870  0.98170  1.0000 0.1291999626
H   H42       1.0  0.93880  0.22550  0.04670  1.0000 0.109632573
H   H43       1.0  0.93800  0.32540  0.93940  1.0000 0.1198815202
H   H44       1.0  0.95510  0.25660  0.39480  1.0000 0.109632573
H   H45       1.0  0.93240  0.32740  0.50910  1.0000 0.1198815202
H   H46       1.0  0.72190  0.15960  0.49110  1.0000 0.109632573
H   H47       1.0  0.74600  0.08420  0.38240  1.0000 0.1291999626
H   H48       1.0  0.88360  0.74110  0.37730  1.0000 0.1291999626
H   H49       1.0  0.88320  0.64080  0.48350  1.0000 0.1198815202
H   H50       1.0  0.11020  0.70700  0.52770  1.0000 0.1291999626
H   H51       1.0  0.10850  0.80130  0.41510  1.0000 0.1198815202
H   H52       1.0  0.06060  0.18610  0.51820  1.0000 0.1198815202
H   H53       1.0  0.07720  0.11770  0.40980  1.0000 0.1291999626
H   H54       1.0  0.24690  0.37850  0.40420  1.0000 0.1198815202
H   H55       1.0  0.22830  0.42880  0.51660  1.0000 0.1291999626
H   H56       1.0  0.90700  0.61810  0.88330  1.0000 0.1402665868
H   H57       1.0  0.88240  0.66720  0.99240  1.0000 0.109632573
H   H58       1.0  0.08610  0.84530  0.02580  1.0000 0.1291999626
H   H59       1.0  0.11930  0.76310  0.91530  1.0000 0.1198815202
H   H60       1.0  0.05650  0.24510  0.85730  1.0000 0.1198815202
H   H61       1.0  0.05610  0.14050  0.96470  1.0000 0.1198815202
H   H62       1.0  0.24060  0.35970  0.04720  1.0000 0.109632573
H   H63       1.0  0.24080  0.43940  0.93390  1.0000 0.1198815202
H   H64       1.0  0.84330  0.58960  0.16600  1.0000 0.3788030391
H   H65       1.0  0.77640  0.56850  0.20950  1.0000 0.4005572741
H   H66       1.0  0.15420  0.89640  0.71120  1.0000 0.4005572741
H   H67       1.0  0.20690  0.79250  0.67370  1.0000 0.331894273
H   H68       1.0  0.98310  0.25620  0.14490  1.0000 0.3609053586
H   H69       1.0  0.00570  0.32580  0.21390  1.0000 0.4091518839
H   H70       1.0  0.18350  0.97390  0.17560  1.0000 0.3609053586
H   H71       1.0  0.13350  0.85390  0.17490  1.0000 0.4091518839
H   H72       1.0  0.99060  0.11290  0.64150  1.0000 0.0916934554
H   H73       1.0  0.97410  0.93480  0.60560  1.0000 0.1291999626
H   H74       1.0  0.99030  0.82840  0.66110  1.0000 0.1402665868
H   H75       1.0  0.90320  0.86720  0.63580  1.0000 0.1402665868
H   H76       1.0  0.92120  0.99730  0.80680  1.0000 0.1291999626
H   H77       1.0  0.93760  0.86370  0.78070  1.0000 0.1291999626
H   H78       1.0  0.00840  0.95010  0.80690  1.0000 0.1291999626
C   C1        1.0  0.33890  0.74900  0.89250  1.0000 -0.0199606936
C   C2        1.0  0.28020  0.82600  0.90860  1.0000 -0.1097512717
C   C3        1.0  0.27700  0.87900  0.97230  1.0000 -0.1008110554
C   C4        1.0  0.33940  0.87240  0.02340  1.0000 -0.0199606936
C   C5        1.0  0.39820  0.79000  0.01110  1.0000 -0.1360895391
C   C6        1.0  0.39760  0.73000  0.94630  1.0000 -0.1008110554
C   C7        1.0  0.34150  0.69710  0.81990  1.0000 0.6117118443
C   C8        1.0  0.33870  0.93800  0.09290  1.0000 0.6018176024
C   C9        1.0  0.35280  0.84200  0.37720  1.0000 -0.0486906549
C   C10       1.0  0.40890  0.76500  0.41440  1.0000 -0.1097512717
C   C11       1.0  0.39400  0.71900  0.48250  1.0000 -0.1097512717
C   C12       1.0  0.32610  0.74300  0.50750  1.0000 -0.0199606936
C   C13       1.0  0.26840  0.82100  0.47160  1.0000 -0.1206122515
C   C14       1.0  0.28380  0.86600  0.40730  1.0000 -0.091156898
C   C15       1.0  0.37200  0.89300  0.30950  1.0000 0.6204321826
C   C16       1.0  0.31020  0.69990  0.58120  1.0000 0.6018176024
C   C17       1.0  0.49460  0.21500  0.38680  1.0000 -0.0105859911
C   C18       1.0  0.43030  0.26400  0.40720  1.0000 -0.1097512717
C   C19       1.0  0.42970  0.32300  0.47180  1.0000 -0.1008110554
C   C20       1.0  0.49410  0.32900  0.51760  1.0000 -0.0105859911
C   C21       1.0  0.56300  0.28600  0.49810  1.0000 -0.1097512717
C   C22       1.0  0.56200  0.22800  0.43000  1.0000 -0.1097512717
C   C23       1.0  0.49850  0.15300  0.31570  1.0000 0.6018176024
C   C24       1.0  0.49440  0.40000  0.58620  1.0000 0.5808769708
C   C25       1.0  0.63920  0.68600  0.52780  1.0000 -0.0263865161
C   C26       1.0  0.59940  0.77600  0.49430  1.0000 -0.1008110554
C   C27       1.0  0.60880  0.82000  0.43040  1.0000 -0.1206122515
C   C28       1.0  0.67130  0.76340  0.39420  1.0000 -0.0199606936
C   C29       1.0  0.71050  0.66500  0.42780  1.0000 -0.1097512717
C   C30       1.0  0.69720  0.63200  0.49360  1.0000 -0.1097512717
C   C31       1.0  0.62210  0.63500  0.59840  1.0000 0.6117118443
C   C32       1.0  0.68200  0.80500  0.31960  1.0000 0.6117118443
C   C33       1.0  0.51490  0.30500  0.88420  1.0000 -0.0105859911
C   C34       1.0  0.44440  0.33700  0.91150  1.0000 -0.1008110554
C   C35       1.0  0.42870  0.30500  0.97530  1.0000 -0.1097512717
C   C36       1.0  0.48070  0.22950  0.01840  1.0000 -0.0486906549
C   C37       1.0  0.54990  0.20200  0.99750  1.0000 -0.091156898
C   C38       1.0  0.56900  0.24800  0.92860  1.0000 -0.1206122515
C   C39       1.0  0.53180  0.34130  0.80910  1.0000 0.5909698849
C   C40       1.0  0.45780  0.19200  0.08790  1.0000 0.6204321826
C   C41       1.0  0.65490  0.65600  0.88320  1.0000 -0.0199606936
C   C42       1.0  0.59590  0.73900  0.89390  1.0000 -0.1008110554
C   C43       1.0  0.59430  0.80000  0.95890  1.0000 -0.1097512717
C   C44       1.0  0.64990  0.77100  0.01360  1.0000 -0.0486906549
C   C45       1.0  0.70710  0.66900  0.00890  1.0000 -0.1206122515
C   C46       1.0  0.70450  0.62230  0.94110  1.0000 -0.1097512717
C   C47       1.0  0.65570  0.58250  0.81640  1.0000 0.6018176024
C   C48       1.0  0.64550  0.82200  0.08480  1.0000 0.6204321826
C   C49       1.0  0.47860  0.89900  0.68790  1.0000 0.3007185702
C   C50       1.0  0.45630  0.10400  0.64680  1.0000 -0.3698407169
C   C51       1.0  0.45620  0.05300  0.78230  1.0000 -0.3274291511
C   C52       1.0  0.83890  0.25100  0.89250  1.0000 -0.0199606936
C   C53       1.0  0.78020  0.17400  0.90860  1.0000 -0.1097512717
C   C54       1.0  0.77700  0.12100  0.97230  1.0000 -0.1008110554
C   C55       1.0  0.83940  0.12760  0.02340  1.0000 -0.0199606936
C   C56       1.0  0.89820  0.21000  0.01110  1.0000 -0.1360895391
C   C57       1.0  0.89760  0.27000  0.94630  1.0000 -0.1008110554
C   C58       1.0  0.84150  0.30290  0.81990  1.0000 0.6117118443
C   C59       1.0  0.83870  0.06200  0.09290  1.0000 0.6018176024
C   C60       1.0  0.85280  0.15800  0.37720  1.0000 -0.0486906549
C   C61       1.0  0.90890  0.23500  0.41440  1.0000 -0.1097512717
C   C62       1.0  0.89400  0.28100  0.48250  1.0000 -0.1097512717
C   C63       1.0  0.82610  0.25700  0.50750  1.0000 -0.0199606936
C   C64       1.0  0.76840  0.17900  0.47160  1.0000 -0.1206122515
C   C65       1.0  0.78380  0.13400  0.40730  1.0000 -0.091156898
C   C66       1.0  0.87200  0.10700  0.30950  1.0000 0.6204321826
C   C67       1.0  0.81020  0.30010  0.58120  1.0000 0.6018176024
C   C68       1.0  0.99460  0.78500  0.38680  1.0000 -0.0105859911
C   C69       1.0  0.93030  0.73600  0.40720  1.0000 -0.1097512717
C   C70       1.0  0.92970  0.67700  0.47180  1.0000 -0.1008110554
C   C71       1.0  0.99410  0.67100  0.51760  1.0000 -0.0105859911
C   C72       1.0  0.06300  0.71400  0.49810  1.0000 -0.1097512717
C   C73       1.0  0.06200  0.77200  0.43000  1.0000 -0.1097512717
C   C74       1.0  0.99850  0.84700  0.31570  1.0000 0.6018176024
C   C75       1.0  0.99440  0.60000  0.58620  1.0000 0.5808769708
C   C76       1.0  0.13920  0.31400  0.52780  1.0000 -0.0263865161
C   C77       1.0  0.09940  0.22400  0.49430  1.0000 -0.1008110554
C   C78       1.0  0.10880  0.18000  0.43040  1.0000 -0.1206122515
C   C79       1.0  0.17130  0.23660  0.39420  1.0000 -0.0199606936
C   C80       1.0  0.21050  0.33500  0.42780  1.0000 -0.1097512717
C   C81       1.0  0.19720  0.36800  0.49360  1.0000 -0.1097512717
C   C82       1.0  0.12210  0.36500  0.59840  1.0000 0.6117118443
C   C83       1.0  0.18200  0.19500  0.31960  1.0000 0.6117118443
C   C84       1.0  0.01490  0.69500  0.88420  1.0000 -0.0105859911
C   C85       1.0  0.94440  0.66300  0.91150  1.0000 -0.1008110554
C   C86       1.0  0.92870  0.69500  0.97530  1.0000 -0.1097512717
C   C87       1.0  0.98070  0.77050  0.01840  1.0000 -0.0486906549
C   C88       1.0  0.04990  0.79800  0.99750  1.0000 -0.091156898
C   C89       1.0  0.06900  0.75200  0.92860  1.0000 -0.1206122515
C   C90       1.0  0.03180  0.65870  0.80910  1.0000 0.5909698849
C   C91       1.0  0.95780  0.80800  0.08790  1.0000 0.6204321826
C   C92       1.0  0.15490  0.34400  0.88320  1.0000 -0.0199606936
C   C93       1.0  0.09590  0.26100  0.89390  1.0000 -0.1008110554
C   C94       1.0  0.09430  0.20000  0.95890  1.0000 -0.1097512717
C   C95       1.0  0.14990  0.22900  0.01360  1.0000 -0.0486906549
C   C96       1.0  0.20710  0.33100  0.00890  1.0000 -0.1206122515
C   C97       1.0  0.20450  0.37770  0.94110  1.0000 -0.1097512717
C   C98       1.0  0.15570  0.41750  0.81640  1.0000 0.6018176024
C   C99       1.0  0.14550  0.17800  0.08480  1.0000 0.6204321826
C   C100      1.0  0.97860  0.10100  0.68790  1.0000 0.3007185702
C   C101      1.0  0.95630  0.89600  0.64680  1.0000 -0.3698407169
C   C102      1.0  0.95620  0.94700  0.78230  1.0000 -0.3274291511
N   N1        1.0  0.45850  0.00700  0.70950  1.0000 0.0410566051
N   N2        1.0  0.95850  0.99300  0.70950  1.0000 0.0410566051
O   O1        1.0  0.28500  0.71810  0.77740  1.0000 -0.5895749683
O   O2        1.0  0.40080  0.63190  0.81050  1.0000 -0.5991039331
O   O3        1.0  0.27320  0.98700  0.10700  1.0000 -0.6106194015
O   O4        1.0  0.40000  0.94620  0.13290  1.0000 -0.6499390508
O   O5        1.0  0.32070  0.39700  0.20310  1.0000 -0.7333632465
O   O6        1.0  0.43990  0.87810  0.29070  1.0000 -0.6409765835
O   O7        1.0  0.31640  0.95460  0.27020  1.0000 -0.6740875597
O   O8        1.0  0.24470  0.67830  0.59730  1.0000 -0.5628315862
O   O9        1.0  0.37160  0.69850  0.62550  1.0000 -0.6346021946
O   O10       1.0  0.43930  0.15030  0.27470  1.0000 -0.6200249151
O   O11       1.0  0.56120  0.10100  0.30490  1.0000 -0.5486909802
O   O12       1.0  0.55430  0.39710  0.63020  1.0000 -0.6499390508
O   O13       1.0  0.43100  0.44470  0.59960  1.0000 -0.532177722
O   O14       1.0  0.67570  0.57550  0.63310  1.0000 -0.5628315862
O   O15       1.0  0.55630  0.66370  0.61820  1.0000 -0.6346021946
O   O16       1.0  0.62950  0.86010  0.28490  1.0000 -0.5991039331
O   O17       1.0  0.75140  0.79070  0.30490  1.0000 -0.6200249151
O   O18       1.0  0.66110  0.16330  0.67970  1.0000 -0.7818378563
O   O19       1.0  0.48140  0.81300  0.73090  1.0000 -0.493112361
O   O20       1.0  0.32230  0.47180  0.70190  1.0000 -0.2659997101
O   O21       1.0  0.47670  0.38950  0.77190  1.0000 -0.5745644923
O   O22       1.0  0.59890  0.31330  0.79380  1.0000 -0.6106194015
O   O23       1.0  0.39280  0.21490  0.10870  1.0000 -0.6200249151
O   O24       1.0  0.51260  0.13640  0.12940  1.0000 -0.6779549475
O   O25       1.0  0.71970  0.53120  0.80460  1.0000 -0.5486909802
O   O26       1.0  0.59500  0.58160  0.77150  1.0000 -0.6914946194
O   O27       1.0  0.69540  0.79080  0.13600  1.0000 -0.6779549475
O   O28       1.0  0.58910  0.90000  0.09300  1.0000 -0.6779549475
O   O29       1.0  0.51140  0.72930  0.18350  1.0000 -0.7444345112
O   O30       1.0  0.65980  0.08370  0.19670  1.0000 -0.7533432301
O   O31       1.0  0.78500  0.28190  0.77740  1.0000 -0.5895749683
O   O32       1.0  0.90080  0.36810  0.81050  1.0000 -0.5991039331
O   O33       1.0  0.77320  0.01300  0.10700  1.0000 -0.6106194015
O   O34       1.0  0.90000  0.05380  0.13290  1.0000 -0.6499390508
O   O35       1.0  0.82070  0.60300  0.20310  1.0000 -0.7333632465
O   O36       1.0  0.93990  0.12190  0.29070  1.0000 -0.6409765835
O   O37       1.0  0.81640  0.04540  0.27020  1.0000 -0.6740875597
O   O38       1.0  0.74470  0.32170  0.59730  1.0000 -0.5628315862
O   O39       1.0  0.87160  0.30150  0.62550  1.0000 -0.6346021946
O   O40       1.0  0.93930  0.84970  0.27470  1.0000 -0.6200249151
O   O41       1.0  0.06120  0.89900  0.30490  1.0000 -0.5486909802
O   O42       1.0  0.05430  0.60290  0.63020  1.0000 -0.6499390508
O   O43       1.0  0.93100  0.55530  0.59960  1.0000 -0.532177722
O   O44       1.0  0.17570  0.42450  0.63310  1.0000 -0.5628315862
O   O45       1.0  0.05630  0.33630  0.61820  1.0000 -0.6346021946
O   O46       1.0  0.12950  0.13990  0.28490  1.0000 -0.5991039331
O   O47       1.0  0.25140  0.20930  0.30490  1.0000 -0.6200249151
O   O48       1.0  0.16110  0.83670  0.67970  1.0000 -0.7818378563
O   O49       1.0  0.98140  0.18700  0.73090  1.0000 -0.493112361
O   O50       1.0  0.82230  0.52820  0.70190  1.0000 -0.2659997101
O   O51       1.0  0.97670  0.61050  0.77190  1.0000 -0.5745644923
O   O52       1.0  0.09890  0.68670  0.79380  1.0000 -0.6106194015
O   O53       1.0  0.89280  0.78510  0.10870  1.0000 -0.6200249151
O   O54       1.0  0.01260  0.86360  0.12940  1.0000 -0.6779549475
O   O55       1.0  0.21970  0.46880  0.80460  1.0000 -0.5486909802
O   O56       1.0  0.09500  0.41840  0.77150  1.0000 -0.6914946194
O   O57       1.0  0.19540  0.20920  0.13600  1.0000 -0.6779549475
O   O58       1.0  0.08910  0.10000  0.09300  1.0000 -0.6779549475
O   O59       1.0  0.01140  0.27070  0.18350  1.0000 -0.7444345112
O   O60       1.0  0.15980  0.91630  0.19670  1.0000 -0.7533432301
