# DDEC6 charges by PACMAN v1.1 (https://github.com/mtap-research/PACMAN-charge/)
data_2022[Co][nan]3[FSR]14
_chemical_formula_sum              "Co6 H6 C24 N6 O36"
_cell_length_a       15.0975
_cell_length_b       15.0975
_cell_length_c       15.0975
_cell_angle_alpha    117.81
_cell_angle_beta     117.81
_cell_angle_gamma    117.81

_symmetry_space_group_name_H-M    "P 1"
_symmetry_Int_Tables_number       1

loop_
  _symmetry_equiv_pos_as_xyz
  'x, y, z'

loop_
  _atom_site_type_symbol
  _atom_site_label
  _atom_site_symmetry_multiplicity
  _atom_site_fract_x
  _atom_site_fract_y
  _atom_site_fract_z
  _atom_site_occupancy
  _atom_site_charge
Co  Co1       1.0  0.11500  0.53547  0.79977  1.0000 0.8327904083
Co  Co2       1.0  0.53547  0.79977  0.11500  1.0000 0.8327904083
Co  Co3       1.0  0.79977  0.11500  0.53547  1.0000 0.8327904083
Co  Co4       1.0  0.88500  0.46453  0.20023  1.0000 0.8327904083
Co  Co5       1.0  0.46453  0.20023  0.88500  1.0000 0.8327904083
Co  Co6       1.0  0.20023  0.88500  0.46453  1.0000 0.8327904083
H   H1        1.0  0.33363  0.79973  0.35197  1.0000 0.1379363797
H   H2        1.0  0.79973  0.35197  0.33363  1.0000 0.1379363797
H   H3        1.0  0.35197  0.33363  0.79973  1.0000 0.1379363797
H   H4        1.0  0.66637  0.20027  0.64803  1.0000 0.1379363797
H   H5        1.0  0.20027  0.64803  0.66637  1.0000 0.1379363797
H   H6        1.0  0.64803  0.66637  0.20027  1.0000 0.1379363797
C   C1        1.0  0.35440  0.73987  0.17773  1.0000 0.5907809473
C   C2        1.0  0.16743  0.61297  0.07940  1.0000 -0.1675423769
C   C3        1.0  0.96433  0.42996  0.86461  1.0000 0.2118283075
C   C4        1.0  0.19713  0.67731  0.20826  1.0000 -0.2537714554
C   C5        1.0  0.73987  0.17773  0.35440  1.0000 0.5907809473
C   C6        1.0  0.61297  0.07940  0.16743  1.0000 -0.1675423769
C   C7        1.0  0.42996  0.86461  0.96433  1.0000 0.2118283075
C   C8        1.0  0.67731  0.20826  0.19713  1.0000 -0.2537714554
C   C9        1.0  0.17773  0.35440  0.73987  1.0000 0.5907809473
C   C10       1.0  0.07940  0.16743  0.61297  1.0000 -0.1675423769
C   C11       1.0  0.86461  0.96433  0.42996  1.0000 0.2118283075
C   C12       1.0  0.20826  0.19713  0.67731  1.0000 -0.2537714554
C   C13       1.0  0.64560  0.26013  0.82227  1.0000 0.5907809473
C   C14       1.0  0.83257  0.38703  0.92060  1.0000 -0.1675423769
C   C15       1.0  0.03567  0.57004  0.13539  1.0000 0.2118283075
C   C16       1.0  0.80287  0.32269  0.79174  1.0000 -0.2537714554
C   C17       1.0  0.26013  0.82227  0.64560  1.0000 0.5907809473
C   C18       1.0  0.38703  0.92060  0.83257  1.0000 -0.1675423769
C   C19       1.0  0.57004  0.13539  0.03567  1.0000 0.2118283075
C   C20       1.0  0.32269  0.79174  0.80287  1.0000 -0.2537714554
C   C21       1.0  0.82227  0.64560  0.26013  1.0000 0.5907809473
C   C22       1.0  0.92060  0.83257  0.38703  1.0000 -0.1675423769
C   C23       1.0  0.13539  0.03567  0.57004  1.0000 0.2118283075
C   C24       1.0  0.79174  0.80287  0.32269  1.0000 -0.2537714554
N   N1        1.0  0.16419  0.72487  0.92664  1.0000 0.1334958163
N   N2        1.0  0.72487  0.92664  0.16419  1.0000 0.1334958163
N   N3        1.0  0.92664  0.16419  0.72487  1.0000 0.1334958163
N   N4        1.0  0.83581  0.27513  0.07336  1.0000 0.1334958163
N   N5        1.0  0.27513  0.07336  0.83581  1.0000 0.1334958163
N   N6        1.0  0.07336  0.83581  0.27513  1.0000 0.1334958163
O   O1        1.0  0.33110  0.68275  0.06345  1.0000 -0.5983331067
O   O2        1.0  0.52777  0.89610  0.36923  1.0000 -0.5983331067
O   O3        1.0  0.91782  0.35457  0.72581  1.0000 -0.6490624609
O   O4        1.0  0.14220  0.75970  0.88020  1.0000 0.1703436709
O   O5        1.0  0.25080  0.84080  0.06940  1.0000 -0.0426370319
O   O6        1.0  0.03440  0.66180  0.83630  1.0000 0.232192082
O   O7        1.0  0.68275  0.06345  0.33110  1.0000 -0.5983331067
O   O8        1.0  0.89610  0.36923  0.52777  1.0000 -0.5983331067
O   O9        1.0  0.35457  0.72581  0.91782  1.0000 -0.6490624609
O   O10       1.0  0.75970  0.88020  0.14220  1.0000 0.1703436709
O   O11       1.0  0.84080  0.06940  0.25080  1.0000 -0.0426370319
O   O12       1.0  0.66180  0.83630  0.03440  1.0000 0.232192082
O   O13       1.0  0.06345  0.33110  0.68275  1.0000 -0.5983331067
O   O14       1.0  0.36923  0.52777  0.89610  1.0000 -0.5983331067
O   O15       1.0  0.72581  0.91782  0.35457  1.0000 -0.6490624609
O   O16       1.0  0.88020  0.14220  0.75970  1.0000 0.1703436709
O   O17       1.0  0.06940  0.25080  0.84080  1.0000 -0.0426370319
O   O18       1.0  0.83630  0.03440  0.66180  1.0000 0.232192082
O   O19       1.0  0.66890  0.31725  0.93655  1.0000 -0.5983331067
O   O20       1.0  0.47223  0.10390  0.63077  1.0000 -0.5983331067
O   O21       1.0  0.08218  0.64543  0.27419  1.0000 -0.6490624609
O   O22       1.0  0.85780  0.24030  0.11980  1.0000 0.1703436709
O   O23       1.0  0.74920  0.15920  0.93060  1.0000 -0.0426370319
O   O24       1.0  0.96560  0.33820  0.16370  1.0000 0.232192082
O   O25       1.0  0.31725  0.93655  0.66890  1.0000 -0.5983331067
O   O26       1.0  0.10390  0.63077  0.47223  1.0000 -0.5983331067
O   O27       1.0  0.64543  0.27419  0.08218  1.0000 -0.6490624609
O   O28       1.0  0.24030  0.11980  0.85780  1.0000 0.1703436709
O   O29       1.0  0.15920  0.93060  0.74920  1.0000 -0.0426370319
O   O30       1.0  0.33820  0.16370  0.96560  1.0000 0.232192082
O   O31       1.0  0.93655  0.66890  0.31725  1.0000 -0.5983331067
O   O32       1.0  0.63077  0.47223  0.10390  1.0000 -0.5983331067
O   O33       1.0  0.27419  0.08218  0.64543  1.0000 -0.6490624609
O   O34       1.0  0.11980  0.85780  0.24030  1.0000 0.1703436709
O   O35       1.0  0.93060  0.74920  0.15920  1.0000 -0.0455966592
O   O36       1.0  0.16370  0.96560  0.33820  1.0000 0.2370232679
