# DDEC6 charges by PACMAN v1.1 (https://github.com/mtap-research/PACMAN-charge/)
data_2022[NiMn][nan]3[FSR]2
_chemical_formula_sum              "Mn6 O44 H28 C40 Ni4"
_cell_length_a       7.3611
_cell_length_b       16.4784
_cell_length_c       14.3423
_cell_angle_alpha    90
_cell_angle_beta     95.86
_cell_angle_gamma    90

_symmetry_space_group_name_H-M    "P 1"
_symmetry_Int_Tables_number       1

loop_
  _symmetry_equiv_pos_as_xyz
  'x, y, z'

loop_
  _atom_site_type_symbol
  _atom_site_label
  _atom_site_symmetry_multiplicity
  _atom_site_fract_x
  _atom_site_fract_y
  _atom_site_fract_z
  _atom_site_occupancy
  _atom_site_charge
Mn  Mn1       1.0  0.80827  0.37434  0.52934  1.0000 0.9488155976
Mn  Mn2       1.0  0.79875  0.49093  0.32665  1.0000 0.9230675832
O   O1        1.0  0.75850  0.48260  0.46260  1.0000 -0.804206179
O   O2        1.0  0.09570  0.08390  0.10332  1.0000 -0.5689418182
O   O3        1.0  0.47910  0.08002  0.13780  1.0000 -0.5576870605
O   O4        1.0  0.39550  0.40718  0.41909  1.0000 -0.5208217293
O   O5        1.0  0.03150  0.34458  0.46330  1.0000 -0.5320564374
O   O6        1.0  0.56470  0.04755  0.28315  1.0000 -0.4744008645
O   O7        1.0  0.63040  0.31982  0.43498  1.0000 -0.5576870605
O   O8        1.0  0.98650  0.39990  0.32037  1.0000 -0.5499869152
O   O9        1.0  0.89520  0.08057  0.20925  1.0000 -0.5106495484
O   O10       1.0  0.62870  0.41603  0.24180  1.0000 -0.6258343324
H   H1        1.0  0.69020  0.37650  0.22350  1.0000 0.3305484787
H   H2        1.0  0.59150  0.44120  0.19170  1.0000 0.3360697464
O   O11       1.0  0.83400  0.25282  0.58029  1.0000 -0.6050593122
H   H3        1.0  0.72840  0.23210  0.58080  1.0000 0.3305484787
H   H4        1.0  0.87740  0.25350  0.63750  1.0000 0.3091035843
C   C1        1.0  0.46870  0.33979  0.40790  1.0000 0.5885431901
C   C2        1.0  0.05370  0.34894  0.37800  1.0000 0.5999047146
C   C3        1.0  0.16500  0.28203  0.33880  1.0000 0.0022149407
C   C4        1.0  0.46650  0.08887  0.22490  1.0000 0.5726940766
C   C5        1.0  0.04130  0.10314  0.18100  1.0000 0.5999047146
C   C6        1.0  0.35510  0.27618  0.35450  1.0000 -0.0399245411
C   C7        1.0  0.15730  0.16049  0.24270  1.0000 -0.0586885998
C   C8        1.0  0.34780  0.15348  0.26090  1.0000 -0.0650239229
C   C9        1.0  0.06910  0.22361  0.28430  1.0000 -0.1571995109
H   H5        1.0  0.94230  0.22670  0.27540  1.0000 0.139274104
C   C10       1.0  0.44220  0.21064  0.31790  1.0000 -0.1427351474
H   H6        1.0  0.56760  0.20480  0.33210  1.0000 0.139274104
H   H7        1.0  0.81700  0.51800  0.48600  1.0000 0.3690532282
Ni  Ni1       1.0  0.19173  0.62566  0.47066  1.0000 1.0495442883
Ni  Ni2       1.0  0.20125  0.50907  0.67335  1.0000 1.0436137453
Mn  Mn3       1.0  0.69173  0.87434  0.97066  1.0000 0.9488155976
Mn  Mn4       1.0  0.70125  0.99093  0.17335  1.0000 0.9230675832
O   O12       1.0  0.74150  0.98260  0.03740  1.0000 -0.804206179
O   O13       1.0  0.40430  0.58390  0.39668  1.0000 -0.5689418182
O   O14       1.0  0.02090  0.58002  0.36220  1.0000 -0.5576870605
O   O15       1.0  0.10450  0.90718  0.08091  1.0000 -0.5208217293
O   O16       1.0  0.46850  0.84458  0.03670  1.0000 -0.5320564374
O   O17       1.0  0.93530  0.54755  0.21685  1.0000 -0.4750348493
O   O18       1.0  0.86960  0.81982  0.06502  1.0000 -0.5576870605
O   O19       1.0  0.51350  0.89990  0.17963  1.0000 -0.5499869152
O   O20       1.0  0.60480  0.58057  0.29075  1.0000 -0.5106495484
O   O21       1.0  0.87130  0.91603  0.25820  1.0000 -0.6258343324
H   H8        1.0  0.80980  0.87650  0.27650  1.0000 0.3305484787
H   H9        1.0  0.90850  0.94120  0.30830  1.0000 0.3360697464
O   O22       1.0  0.66600  0.75282  0.91971  1.0000 -0.6050593122
H   H10       1.0  0.77160  0.73210  0.91920  1.0000 0.3305484787
H   H11       1.0  0.62260  0.75350  0.86250  1.0000 0.3091035843
C   C11       1.0  0.03130  0.83979  0.09210  1.0000 0.5885431901
C   C12       1.0  0.44630  0.84894  0.12200  1.0000 0.5999047146
C   C13       1.0  0.33500  0.78203  0.16120  1.0000 0.0022149407
C   C14       1.0  0.03350  0.58887  0.27510  1.0000 0.5726940766
C   C15       1.0  0.45870  0.60314  0.31900  1.0000 0.5999047146
C   C16       1.0  0.14490  0.77618  0.14550  1.0000 -0.0399245411
C   C17       1.0  0.34270  0.66049  0.25730  1.0000 -0.0586885998
C   C18       1.0  0.15220  0.65348  0.23910  1.0000 -0.0650239229
C   C19       1.0  0.43090  0.72361  0.21570  1.0000 -0.1571995109
H   H12       1.0  0.55770  0.72670  0.22460  1.0000 0.139274104
C   C20       1.0  0.05780  0.71064  0.18210  1.0000 -0.1427351474
H   H13       1.0  0.93240  0.70480  0.16790  1.0000 0.139274104
H   H14       1.0  0.68300  0.01800  0.01400  1.0000 0.3690532282
Ni  Ni3       1.0  0.30827  0.12566  0.02934  1.0000 1.0495442883
Ni  Ni4       1.0  0.29875  0.00907  0.82665  1.0000 1.0436137453
O   O23       1.0  0.24150  0.51740  0.53740  1.0000 -0.7919566497
O   O24       1.0  0.90430  0.91610  0.89668  1.0000 -0.5689418182
O   O25       1.0  0.52090  0.91998  0.86220  1.0000 -0.5689418182
O   O26       1.0  0.60450  0.59282  0.58091  1.0000 -0.5208217293
O   O27       1.0  0.96850  0.65542  0.53670  1.0000 -0.5208217293
O   O28       1.0  0.43530  0.95245  0.71685  1.0000 -0.4923212692
O   O29       1.0  0.36960  0.68018  0.56502  1.0000 -0.5499869152
O   O30       1.0  0.01350  0.60010  0.67963  1.0000 -0.5499869152
O   O31       1.0  0.10480  0.91943  0.79075  1.0000 -0.5208217293
O   O32       1.0  0.37130  0.58397  0.75820  1.0000 -0.6208823189
H   H15       1.0  0.30980  0.62350  0.77650  1.0000 0.3305484787
H   H16       1.0  0.40850  0.55880  0.80830  1.0000 0.3305484787
O   O33       1.0  0.16600  0.74718  0.41971  1.0000 -0.5947420462
H   H17       1.0  0.27160  0.76790  0.41920  1.0000 0.3305484787
H   H18       1.0  0.12260  0.74650  0.36250  1.0000 0.3091035843
C   C21       1.0  0.53130  0.66021  0.59210  1.0000 0.5800575748
C   C22       1.0  0.94630  0.65106  0.62200  1.0000 0.5999047146
C   C23       1.0  0.83500  0.71797  0.66120  1.0000 -0.0006444587
C   C24       1.0  0.53350  0.91113  0.77510  1.0000 0.5800575748
C   C25       1.0  0.95870  0.89686  0.81900  1.0000 0.5999047146
C   C26       1.0  0.64490  0.72382  0.64550  1.0000 -0.0399245411
C   C27       1.0  0.84270  0.83951  0.75730  1.0000 -0.0586885998
C   C28       1.0  0.65220  0.84652  0.73910  1.0000 -0.0586885998
C   C29       1.0  0.93090  0.77639  0.71570  1.0000 -0.1571995109
H   H19       1.0  0.05770  0.77330  0.72460  1.0000 0.139274104
C   C30       1.0  0.55780  0.78936  0.68210  1.0000 -0.1454619779
H   H20       1.0  0.43240  0.79520  0.66790  1.0000 0.139274104
H   H21       1.0  0.18300  0.48200  0.51400  1.0000 0.3690532282
O   O34       1.0  0.25850  0.01740  0.96260  1.0000 -0.7919566497
O   O35       1.0  0.59570  0.41610  0.60332  1.0000 -0.5689418182
O   O36       1.0  0.97910  0.41998  0.63780  1.0000 -0.5689418182
O   O37       1.0  0.89550  0.09282  0.91909  1.0000 -0.5208217293
O   O38       1.0  0.53150  0.15542  0.96330  1.0000 -0.5208217293
O   O39       1.0  0.06470  0.45245  0.78315  1.0000 -0.4923212692
O   O40       1.0  0.13040  0.18018  0.93498  1.0000 -0.5499869152
O   O41       1.0  0.48650  0.10010  0.82037  1.0000 -0.5499869152
O   O42       1.0  0.39520  0.41943  0.70925  1.0000 -0.5208217293
O   O43       1.0  0.12870  0.08397  0.74180  1.0000 -0.6208823189
H   H22       1.0  0.19020  0.12350  0.72350  1.0000 0.3305484787
H   H23       1.0  0.09150  0.05880  0.69170  1.0000 0.3305484787
O   O44       1.0  0.33400  0.24718  0.08029  1.0000 -0.5947420462
H   H24       1.0  0.22840  0.26790  0.08080  1.0000 0.3305484787
H   H25       1.0  0.37740  0.24650  0.13750  1.0000 0.3091035843
C   C31       1.0  0.96870  0.16021  0.90790  1.0000 0.5800575748
C   C32       1.0  0.55370  0.15106  0.87800  1.0000 0.5999047146
C   C33       1.0  0.66500  0.21797  0.83880  1.0000 -0.0006444587
C   C34       1.0  0.96650  0.41113  0.72490  1.0000 0.5800575748
C   C35       1.0  0.54130  0.39686  0.68100  1.0000 0.5999047146
C   C36       1.0  0.85510  0.22382  0.85450  1.0000 -0.0399245411
C   C37       1.0  0.65730  0.33951  0.74270  1.0000 -0.0586885998
C   C38       1.0  0.84780  0.34652  0.76090  1.0000 -0.0586885998
C   C39       1.0  0.56910  0.27639  0.78430  1.0000 -0.1571995109
H   H26       1.0  0.44230  0.27330  0.77540  1.0000 0.139274104
C   C40       1.0  0.94220  0.28936  0.81790  1.0000 -0.1454619779
H   H27       1.0  0.06760  0.29520  0.83210  1.0000 0.139274104
H   H28       1.0  0.31700  0.98200  0.98600  1.0000 0.3690532282
Mn  Mn5       1.0  0.50000  0.50000  0.50000  1.0000 0.9416029886
Mn  Mn6       1.0  0.00000  0.00000  0.00000  1.0000 0.9416029886
