# DDEC6 charges by PACMAN v1.1 (https://github.com/mtap-research/PACMAN-charge/)
data_2022[Tb][pcu]3[FSR]1
_chemical_formula_sum              "Tb8 B12 H100 C104 O88"
_cell_length_a       17.4981
_cell_length_b       14.6568
_cell_length_c       19.164
_cell_angle_alpha    90
_cell_angle_beta     106.552
_cell_angle_gamma    90

_symmetry_space_group_name_H-M    "P 1"
_symmetry_Int_Tables_number       1

loop_
  _symmetry_equiv_pos_as_xyz
  'x, y, z'

loop_
  _atom_site_type_symbol
  _atom_site_label
  _atom_site_symmetry_multiplicity
  _atom_site_fract_x
  _atom_site_fract_y
  _atom_site_fract_z
  _atom_site_occupancy
  _atom_site_charge
Tb  Tb1       1.0  0.70158  0.65117  0.19103  1.0000 2.0261678961
Tb  Tb2       1.0  0.80309  0.86219  0.32049  1.0000 2.0171098974
Tb  Tb3       1.0  0.29842  0.15117  0.30897  1.0000 2.0261678961
Tb  Tb4       1.0  0.19691  0.36219  0.17951  1.0000 2.0171098974
Tb  Tb5       1.0  0.29842  0.34883  0.80897  1.0000 2.0261678961
Tb  Tb6       1.0  0.19691  0.13781  0.67951  1.0000 2.0171098974
Tb  Tb7       1.0  0.70158  0.84883  0.69103  1.0000 2.0261678961
Tb  Tb8       1.0  0.80309  0.63781  0.82049  1.0000 2.0171098974
B   B1        1.0  0.12860  0.86690  0.23780  1.0000 0.7587443632
B   B2        1.0  0.82440  0.35900  0.50920  1.0000 0.7587443632
B   B3        1.0  0.63340  0.15760  0.29170  1.0000 0.7777895298
B   B4        1.0  0.87140  0.36690  0.26220  1.0000 0.7587443632
B   B5        1.0  0.17560  0.85900  0.99080  1.0000 0.7587443632
B   B6        1.0  0.36660  0.65760  0.20830  1.0000 0.7777895298
B   B7        1.0  0.87140  0.13310  0.76220  1.0000 0.7587443632
B   B8        1.0  0.17560  0.64100  0.49080  1.0000 0.7587443632
B   B9        1.0  0.36660  0.84240  0.70830  1.0000 0.7777895298
B   B10       1.0  0.12860  0.63310  0.73780  1.0000 0.7587443632
B   B11       1.0  0.82440  0.14100  0.00920  1.0000 0.7587443632
B   B12       1.0  0.63340  0.34240  0.79170  1.0000 0.7777895298
H   H1        1.0  0.21512  0.91922  0.22065  1.0000 0.3700834554
H   H2        1.0  0.83048  0.34105  0.40698  1.0000 0.3700834554
H   H3        1.0  0.14109  0.97397  0.28669  1.0000 0.3700834554
H   H4        1.0  0.86991  0.26985  0.57256  1.0000 0.3700834554
H   H5        1.0  0.67069  0.59155  0.04669  1.0000 0.3171165403
H   H6        1.0  0.69450  0.51547  0.08653  1.0000 0.3489394155
H   H7        1.0  0.79500  0.98390  0.44740  1.0000 0.3700834554
H   H8        1.0  0.97170  0.81300  0.42290  1.0000 0.361654775
H   H9        1.0  0.59591  0.71789  0.06097  1.0000 0.3279442009
H   H10       1.0  0.55289  0.65382  0.08318  1.0000 0.3489394155
H   H11       1.0  0.63478  0.04390  0.32800  1.0000 0.361654775
H   H12       1.0  0.16180  0.70097  0.19583  1.0000 0.1212205721
H   H13       1.0  0.72432  0.10639  0.28360  1.0000 0.361654775
H   H14       1.0  0.97435  0.55157  0.20847  1.0000 0.1212205721
H   H15       1.0  0.98133  0.81917  0.25284  1.0000 0.127197471
H   H16       1.0  0.80036  0.47097  0.61404  1.0000 0.127197471
H   H17       1.0  0.78041  0.48509  0.40040  1.0000 0.1212205721
H   H18       1.0  0.47425  0.46579  0.20947  1.0000 0.127197471
H   H19       1.0  0.47727  0.20742  0.28135  1.0000 0.1212205721
H   H20       1.0  0.74360  0.70841  0.50709  1.0000 0.1212205721
H   H21       1.0  0.67625  0.32062  0.25700  1.0000 0.1212205721
H   H22       1.0  0.83522  0.84621  0.52577  1.0000 0.127197471
H   H23       1.0  0.87592  0.94227  0.54110  1.0000 0.109662686
H   H24       1.0  0.96956  0.90636  0.49950  1.0000 0.101868343
H   H25       1.0  0.95316  0.81315  0.53213  1.0000 0.1212205721
H   H26       1.0  0.78488  0.41922  0.27935  1.0000 0.3700834554
H   H27       1.0  0.16952  0.84105  0.09302  1.0000 0.3700834554
H   H28       1.0  0.85891  0.47397  0.21331  1.0000 0.3700834554
H   H29       1.0  0.13009  0.76985  0.92744  1.0000 0.3700834554
H   H30       1.0  0.32931  0.09155  0.45331  1.0000 0.3171165403
H   H31       1.0  0.30550  0.01547  0.41347  1.0000 0.3489394155
H   H32       1.0  0.20500  0.48390  0.05260  1.0000 0.3700834554
H   H33       1.0  0.02830  0.31300  0.07710  1.0000 0.361654775
H   H34       1.0  0.40409  0.21789  0.43903  1.0000 0.3279442009
H   H35       1.0  0.44711  0.15382  0.41682  1.0000 0.3489394155
H   H36       1.0  0.36522  0.54390  0.17200  1.0000 0.361654775
H   H37       1.0  0.83820  0.20097  0.30417  1.0000 0.1212205721
H   H38       1.0  0.27568  0.60639  0.21640  1.0000 0.361654775
H   H39       1.0  0.02565  0.05157  0.29153  1.0000 0.1212205721
H   H40       1.0  0.01867  0.31917  0.24716  1.0000 0.127197471
H   H41       1.0  0.19964  0.97097  0.88596  1.0000 0.127197471
H   H42       1.0  0.21959  0.98509  0.09960  1.0000 0.1212205721
H   H43       1.0  0.52575  0.96579  0.29053  1.0000 0.127197471
H   H44       1.0  0.52273  0.70742  0.21865  1.0000 0.1212205721
H   H45       1.0  0.25640  0.20841  0.99291  1.0000 0.1212205721
H   H46       1.0  0.32375  0.82062  0.24300  1.0000 0.1212205721
H   H47       1.0  0.16478  0.34621  0.97423  1.0000 0.127197471
H   H48       1.0  0.12408  0.44227  0.95890  1.0000 0.109662686
H   H49       1.0  0.03044  0.40636  0.00050  1.0000 0.101868343
H   H50       1.0  0.04684  0.31315  0.96787  1.0000 0.1212205721
H   H51       1.0  0.78488  0.08078  0.77935  1.0000 0.3700834554
H   H52       1.0  0.16952  0.65895  0.59302  1.0000 0.3700834554
H   H53       1.0  0.85891  0.02603  0.71331  1.0000 0.3700834554
H   H54       1.0  0.13009  0.73015  0.42744  1.0000 0.3700834554
H   H55       1.0  0.32931  0.40845  0.95331  1.0000 0.3171165403
H   H56       1.0  0.30550  0.48453  0.91347  1.0000 0.3489394155
H   H57       1.0  0.20500  0.01610  0.55260  1.0000 0.3700834554
H   H58       1.0  0.02830  0.18700  0.57710  1.0000 0.361654775
H   H59       1.0  0.40409  0.28211  0.93903  1.0000 0.3279442009
H   H60       1.0  0.44711  0.34618  0.91682  1.0000 0.3489394155
H   H61       1.0  0.36522  0.95610  0.67200  1.0000 0.361654775
H   H62       1.0  0.83820  0.29903  0.80417  1.0000 0.1212205721
H   H63       1.0  0.27568  0.89361  0.71640  1.0000 0.361654775
H   H64       1.0  0.02565  0.44843  0.79153  1.0000 0.1212205721
H   H65       1.0  0.01867  0.18083  0.74716  1.0000 0.127197471
H   H66       1.0  0.19964  0.52903  0.38596  1.0000 0.127197471
H   H67       1.0  0.21959  0.51491  0.59960  1.0000 0.1212205721
H   H68       1.0  0.52575  0.53421  0.79053  1.0000 0.127197471
H   H69       1.0  0.52273  0.79258  0.71865  1.0000 0.1212205721
H   H70       1.0  0.25640  0.29159  0.49291  1.0000 0.1212205721
H   H71       1.0  0.32375  0.67938  0.74300  1.0000 0.1212205721
H   H72       1.0  0.16478  0.15379  0.47423  1.0000 0.127197471
H   H73       1.0  0.12408  0.05773  0.45890  1.0000 0.109662686
H   H74       1.0  0.03044  0.09364  0.50050  1.0000 0.101868343
H   H75       1.0  0.04684  0.18685  0.46787  1.0000 0.1212205721
H   H76       1.0  0.21512  0.58078  0.72065  1.0000 0.3700834554
H   H77       1.0  0.83048  0.15895  0.90698  1.0000 0.3700834554
H   H78       1.0  0.14109  0.52603  0.78669  1.0000 0.3700834554
H   H79       1.0  0.86991  0.23015  0.07256  1.0000 0.3700834554
H   H80       1.0  0.67069  0.90845  0.54669  1.0000 0.3171165403
H   H81       1.0  0.69450  0.98453  0.58653  1.0000 0.3489394155
H   H82       1.0  0.79500  0.51610  0.94740  1.0000 0.3700834554
H   H83       1.0  0.97170  0.68700  0.92290  1.0000 0.361654775
H   H84       1.0  0.59591  0.78211  0.56097  1.0000 0.3279442009
H   H85       1.0  0.55289  0.84618  0.58318  1.0000 0.3489394155
H   H86       1.0  0.63478  0.45610  0.82800  1.0000 0.361654775
H   H87       1.0  0.16180  0.79903  0.69583  1.0000 0.1212205721
H   H88       1.0  0.72432  0.39361  0.78360  1.0000 0.361654775
H   H89       1.0  0.97435  0.94843  0.70847  1.0000 0.1212205721
H   H90       1.0  0.98133  0.68083  0.75284  1.0000 0.127197471
H   H91       1.0  0.80036  0.02903  0.11404  1.0000 0.127197471
H   H92       1.0  0.78041  0.01491  0.90040  1.0000 0.1212205721
H   H93       1.0  0.47425  0.03421  0.70947  1.0000 0.127197471
H   H94       1.0  0.47727  0.29258  0.78135  1.0000 0.1212205721
H   H95       1.0  0.74360  0.79159  0.00709  1.0000 0.1212205721
H   H96       1.0  0.67625  0.17938  0.75700  1.0000 0.1212205721
H   H97       1.0  0.83522  0.65379  0.02577  1.0000 0.127197471
H   H98       1.0  0.87592  0.55773  0.04110  1.0000 0.109662686
H   H99       1.0  0.96956  0.59364  0.99950  1.0000 0.101868343
H   H100      1.0  0.95316  0.68685  0.03213  1.0000 0.1212205721
C   C1        1.0  0.79600  0.46120  0.50770  1.0000 -0.192368656
C   C2        1.0  0.62570  0.48730  0.21430  1.0000 0.5736620095
C   C3        1.0  0.88290  0.67830  0.24110  1.0000 0.6377490776
C   C4        1.0  0.96500  0.68460  0.23180  1.0000 -0.0379610167
C   C5        1.0  0.58440  0.24830  0.27200  1.0000 -0.169211065
C   C6        1.0  0.11320  0.69680  0.20640  1.0000 -0.078310329
C   C7        1.0  0.77000  0.59660  0.57110  1.0000 -0.0379610167
C   C8        1.0  0.07610  0.61240  0.20270  1.0000 -0.0333019203
C   C9        1.0  0.00080  0.60730  0.21350  1.0000 -0.1026874143
C   C10       1.0  0.76180  0.60590  0.44380  1.0000 -0.0333019203
C   C11       1.0  0.00460  0.76780  0.23900  1.0000 -0.0907255518
C   C12       1.0  0.46110  0.33740  0.24340  1.0000 -0.0379610167
C   C13       1.0  0.75170  0.66200  0.37660  1.0000 0.6377490776
C   C14       1.0  0.11620  0.52720  0.18800  1.0000 0.5736620095
C   C15       1.0  0.58280  0.40640  0.23220  1.0000 -0.0379610167
C   C16       1.0  0.79040  0.50430  0.57110  1.0000 -0.073017264
C   C17       1.0  0.77950  0.51300  0.44370  1.0000 -0.0907255518
C   C18       1.0  0.76280  0.64440  0.63890  1.0000 0.6377490776
C   C19       1.0  0.50170  0.41190  0.22570  1.0000 -0.0907255518
C   C20       1.0  0.37320  0.34320  0.23240  1.0000 0.6314525273
C   C21       1.0  0.50350  0.25650  0.26780  1.0000 -0.073017264
C   C22       1.0  0.07910  0.77540  0.22570  1.0000 -0.169211065
C   C23       1.0  0.75640  0.64680  0.50719  1.0000 -0.1114027477
C   C24       1.0  0.62240  0.32460  0.25410  1.0000 -0.073017264
C   C25       1.0  0.86150  0.89340  0.50560  1.0000 -0.0333019203
C   C26       1.0  0.93110  0.85730  0.49410  1.0000 -0.0571703832
C   C27       1.0  0.20400  0.96120  0.99230  1.0000 -0.192368656
C   C28       1.0  0.37430  0.98730  0.28570  1.0000 0.5736620095
C   C29       1.0  0.11710  0.17830  0.25890  1.0000 0.6377490776
C   C30       1.0  0.03500  0.18460  0.26820  1.0000 -0.0379610167
C   C31       1.0  0.41560  0.74830  0.22800  1.0000 -0.169211065
C   C32       1.0  0.88680  0.19680  0.29360  1.0000 -0.078310329
C   C33       1.0  0.23000  0.09660  0.92890  1.0000 -0.0379610167
C   C34       1.0  0.92390  0.11240  0.29730  1.0000 -0.0333019203
C   C35       1.0  0.99920  0.10730  0.28650  1.0000 -0.1026874143
C   C36       1.0  0.23820  0.10590  0.05620  1.0000 -0.0333019203
C   C37       1.0  0.99540  0.26780  0.26100  1.0000 -0.0907255518
C   C38       1.0  0.53890  0.83740  0.25660  1.0000 -0.0379610167
C   C39       1.0  0.24830  0.16200  0.12340  1.0000 0.6377490776
C   C40       1.0  0.88380  0.02720  0.31200  1.0000 0.5736620095
C   C41       1.0  0.41720  0.90640  0.26780  1.0000 -0.0379610167
C   C42       1.0  0.20960  0.00430  0.92890  1.0000 -0.073017264
C   C43       1.0  0.22050  0.01300  0.05630  1.0000 -0.0907255518
C   C44       1.0  0.23720  0.14440  0.86110  1.0000 0.6377490776
C   C45       1.0  0.49830  0.91190  0.27430  1.0000 -0.0907255518
C   C46       1.0  0.62680  0.84320  0.26760  1.0000 0.6314525273
C   C47       1.0  0.49650  0.75650  0.23220  1.0000 -0.073017264
C   C48       1.0  0.92090  0.27540  0.27430  1.0000 -0.169211065
C   C49       1.0  0.24360  0.14680  0.99281  1.0000 -0.1114027477
C   C50       1.0  0.37760  0.82460  0.24590  1.0000 -0.073017264
C   C51       1.0  0.13850  0.39340  0.99440  1.0000 -0.0333019203
C   C52       1.0  0.06890  0.35730  0.00590  1.0000 -0.0571703832
C   C53       1.0  0.20400  0.53880  0.49230  1.0000 -0.192368656
C   C54       1.0  0.37430  0.51270  0.78570  1.0000 0.5736620095
C   C55       1.0  0.11710  0.32170  0.75890  1.0000 0.6377490776
C   C56       1.0  0.03500  0.31540  0.76820  1.0000 -0.0379610167
C   C57       1.0  0.41560  0.75170  0.72800  1.0000 -0.169211065
C   C58       1.0  0.88680  0.30320  0.79360  1.0000 -0.078310329
C   C59       1.0  0.23000  0.40340  0.42890  1.0000 -0.0379610167
C   C60       1.0  0.92390  0.38760  0.79730  1.0000 -0.0333019203
C   C61       1.0  0.99920  0.39270  0.78650  1.0000 -0.1026874143
C   C62       1.0  0.23820  0.39410  0.55620  1.0000 -0.0333019203
C   C63       1.0  0.99540  0.23220  0.76100  1.0000 -0.0907255518
C   C64       1.0  0.53890  0.66260  0.75660  1.0000 -0.0379610167
C   C65       1.0  0.24830  0.33800  0.62340  1.0000 0.6377490776
C   C66       1.0  0.88380  0.47280  0.81200  1.0000 0.5736620095
C   C67       1.0  0.41720  0.59360  0.76780  1.0000 -0.0379610167
C   C68       1.0  0.20960  0.49570  0.42890  1.0000 -0.073017264
C   C69       1.0  0.22050  0.48700  0.55630  1.0000 -0.0907255518
C   C70       1.0  0.23720  0.35560  0.36110  1.0000 0.6377490776
C   C71       1.0  0.49830  0.58810  0.77430  1.0000 -0.0907255518
C   C72       1.0  0.62680  0.65680  0.76760  1.0000 0.6314525273
C   C73       1.0  0.49650  0.74350  0.73220  1.0000 -0.073017264
C   C74       1.0  0.92090  0.22460  0.77430  1.0000 -0.169211065
C   C75       1.0  0.24360  0.35320  0.49281  1.0000 -0.1114027477
C   C76       1.0  0.37760  0.67540  0.74590  1.0000 -0.073017264
C   C77       1.0  0.13850  0.10660  0.49440  1.0000 -0.0333019203
C   C78       1.0  0.06890  0.14270  0.50590  1.0000 -0.0571703832
C   C79       1.0  0.79600  0.03880  0.00770  1.0000 -0.192368656
C   C80       1.0  0.62570  0.01270  0.71430  1.0000 0.5736620095
C   C81       1.0  0.88290  0.82170  0.74110  1.0000 0.6377490776
C   C82       1.0  0.96500  0.81540  0.73180  1.0000 -0.0379610167
C   C83       1.0  0.58440  0.25170  0.77200  1.0000 -0.169211065
C   C84       1.0  0.11320  0.80320  0.70640  1.0000 -0.078310329
C   C85       1.0  0.77000  0.90340  0.07110  1.0000 -0.0379610167
C   C86       1.0  0.07610  0.88760  0.70270  1.0000 -0.0333019203
C   C87       1.0  0.00080  0.89270  0.71350  1.0000 -0.1026874143
C   C88       1.0  0.76180  0.89410  0.94380  1.0000 -0.0333019203
C   C89       1.0  0.00460  0.73220  0.73900  1.0000 -0.0907255518
C   C90       1.0  0.46110  0.16260  0.74340  1.0000 -0.0379610167
C   C91       1.0  0.75170  0.83800  0.87660  1.0000 0.6377490776
C   C92       1.0  0.11620  0.97280  0.68800  1.0000 0.5736620095
C   C93       1.0  0.58280  0.09360  0.73220  1.0000 -0.0379610167
C   C94       1.0  0.79040  0.99570  0.07110  1.0000 -0.073017264
C   C95       1.0  0.77950  0.98700  0.94370  1.0000 -0.0907255518
C   C96       1.0  0.76280  0.85560  0.13890  1.0000 0.6377490776
C   C97       1.0  0.50170  0.08810  0.72570  1.0000 -0.0907255518
C   C98       1.0  0.37320  0.15680  0.73240  1.0000 0.6314525273
C   C99       1.0  0.50350  0.24350  0.76780  1.0000 -0.073017264
C   C100      1.0  0.07910  0.72460  0.72570  1.0000 -0.169211065
C   C101      1.0  0.75640  0.85320  0.00719  1.0000 -0.1114027477
C   C102      1.0  0.62240  0.17540  0.75410  1.0000 -0.073017264
C   C103      1.0  0.86150  0.60660  0.00560  1.0000 -0.0333019203
C   C104      1.0  0.93110  0.64270  0.99410  1.0000 -0.0571703832
O   O1        1.0  0.33723  0.28151  0.25600  1.0000 -0.7032239023
O   O2        1.0  0.69780  0.48173  0.21478  1.0000 -0.633987413
O   O3        1.0  0.18250  0.88084  0.19975  1.0000 -0.6575230989
O   O4        1.0  0.83990  0.61009  0.21485  1.0000 -0.639957216
O   O5        1.0  0.18731  0.53036  0.18371  1.0000 -0.639957216
O   O6        1.0  0.73665  0.62130  0.31686  1.0000 -0.639957216
O   O7        1.0  0.82900  0.31104  0.44957  1.0000 -0.7032239023
O   O8        1.0  0.58831  0.56205  0.19868  1.0000 -0.639957216
O   O9        1.0  0.33448  0.41026  0.19763  1.0000 -0.633987413
O   O10       1.0  0.11634  0.92676  0.28789  1.0000 -0.6575230989
O   O11       1.0  0.85762  0.74214  0.27279  1.0000 -0.7124979827
O   O12       1.0  0.74489  0.72786  0.63254  1.0000 -0.6916545066
O   O13       1.0  0.75948  0.74736  0.38523  1.0000 -0.6492032069
O   O14       1.0  0.77609  0.59875  0.69659  1.0000 -0.633987413
O   O15       1.0  0.07945  0.45226  0.18116  1.0000 -0.639957216
O   O16       1.0  0.84650  0.31750  0.57542  1.0000 -0.6192728612
O   O17       1.0  0.70690  0.57130  0.08325  1.0000 -0.7492933008
O   O18       1.0  0.80630  0.92840  0.43980  1.0000 -0.5117517445
O   O19       1.0  0.92279  0.81410  0.42526  1.0000 -0.4812706742
O   O20       1.0  0.58290  0.69970  0.09820  1.0000 -0.7124979827
O   O21       1.0  0.61230  0.09170  0.33230  1.0000 -0.6575230989
O   O22       1.0  0.69720  0.15050  0.26500  1.0000 -0.6492032069
O   O23       1.0  0.66277  0.78151  0.24400  1.0000 -0.7032239023
O   O24       1.0  0.30220  0.98173  0.28522  1.0000 -0.633987413
O   O25       1.0  0.81750  0.38084  0.30025  1.0000 -0.6575230989
O   O26       1.0  0.16010  0.11009  0.28515  1.0000 -0.639957216
O   O27       1.0  0.81269  0.03036  0.31629  1.0000 -0.639957216
O   O28       1.0  0.26335  0.12130  0.18314  1.0000 -0.639957216
O   O29       1.0  0.17100  0.81104  0.05043  1.0000 -0.7032239023
O   O30       1.0  0.41169  0.06205  0.30132  1.0000 -0.633987413
O   O31       1.0  0.66552  0.91026  0.30237  1.0000 -0.633987413
O   O32       1.0  0.88366  0.42676  0.21211  1.0000 -0.6575230989
O   O33       1.0  0.14238  0.24214  0.22721  1.0000 -0.7124979827
O   O34       1.0  0.25511  0.22786  0.86746  1.0000 -0.6916545066
O   O35       1.0  0.24052  0.24736  0.11477  1.0000 -0.6492032069
O   O36       1.0  0.22391  0.09875  0.80341  1.0000 -0.633987413
O   O37       1.0  0.92055  0.95226  0.31884  1.0000 -0.639957216
O   O38       1.0  0.15350  0.81750  0.92458  1.0000 -0.6192728612
O   O39       1.0  0.29310  0.07130  0.41675  1.0000 -0.7492933008
O   O40       1.0  0.19370  0.42840  0.06020  1.0000 -0.5117517445
O   O41       1.0  0.07721  0.31410  0.07474  1.0000 -0.4812706742
O   O42       1.0  0.41710  0.19970  0.40180  1.0000 -0.7124979827
O   O43       1.0  0.38770  0.59170  0.16770  1.0000 -0.6575230989
O   O44       1.0  0.30280  0.65050  0.23500  1.0000 -0.6492032069
O   O45       1.0  0.66277  0.71849  0.74400  1.0000 -0.7032239023
O   O46       1.0  0.30220  0.51827  0.78522  1.0000 -0.633987413
O   O47       1.0  0.81750  0.11916  0.80025  1.0000 -0.6575230989
O   O48       1.0  0.16010  0.38991  0.78515  1.0000 -0.639957216
O   O49       1.0  0.81269  0.46964  0.81629  1.0000 -0.639957216
O   O50       1.0  0.26335  0.37870  0.68314  1.0000 -0.639957216
O   O51       1.0  0.17100  0.68896  0.55043  1.0000 -0.7032239023
O   O52       1.0  0.41169  0.43795  0.80132  1.0000 -0.633987413
O   O53       1.0  0.66552  0.58974  0.80237  1.0000 -0.633987413
O   O54       1.0  0.88366  0.07324  0.71211  1.0000 -0.6575230989
O   O55       1.0  0.14238  0.25786  0.72721  1.0000 -0.7124979827
O   O56       1.0  0.25511  0.27214  0.36746  1.0000 -0.6916545066
O   O57       1.0  0.24052  0.25264  0.61477  1.0000 -0.6492032069
O   O58       1.0  0.22391  0.40125  0.30341  1.0000 -0.633987413
O   O59       1.0  0.92055  0.54774  0.81884  1.0000 -0.639957216
O   O60       1.0  0.15350  0.68250  0.42458  1.0000 -0.6192728612
O   O61       1.0  0.29310  0.42870  0.91675  1.0000 -0.7492933008
O   O62       1.0  0.19370  0.07160  0.56020  1.0000 -0.5117517445
O   O63       1.0  0.07721  0.18590  0.57474  1.0000 -0.4812706742
O   O64       1.0  0.41710  0.30030  0.90180  1.0000 -0.7124979827
O   O65       1.0  0.38770  0.90830  0.66770  1.0000 -0.6575230989
O   O66       1.0  0.30280  0.84950  0.73500  1.0000 -0.6492032069
O   O67       1.0  0.33723  0.21849  0.75600  1.0000 -0.7032239023
O   O68       1.0  0.69780  0.01827  0.71478  1.0000 -0.633987413
O   O69       1.0  0.18250  0.61916  0.69975  1.0000 -0.6575230989
O   O70       1.0  0.83990  0.88991  0.71485  1.0000 -0.639957216
O   O71       1.0  0.18731  0.96964  0.68371  1.0000 -0.639957216
O   O72       1.0  0.73665  0.87870  0.81686  1.0000 -0.639957216
O   O73       1.0  0.82900  0.18896  0.94957  1.0000 -0.7032239023
O   O74       1.0  0.58831  0.93795  0.69868  1.0000 -0.639957216
O   O75       1.0  0.33448  0.08974  0.69763  1.0000 -0.633987413
O   O76       1.0  0.11634  0.57324  0.78789  1.0000 -0.6575230989
O   O77       1.0  0.85762  0.75786  0.77279  1.0000 -0.7124979827
O   O78       1.0  0.74489  0.77214  0.13254  1.0000 -0.6916545066
O   O79       1.0  0.75948  0.75264  0.88523  1.0000 -0.6492032069
O   O80       1.0  0.77609  0.90125  0.19659  1.0000 -0.633987413
O   O81       1.0  0.07945  0.04774  0.68116  1.0000 -0.639957216
O   O82       1.0  0.84650  0.18250  0.07542  1.0000 -0.6192728612
O   O83       1.0  0.70690  0.92870  0.58325  1.0000 -0.7492933008
O   O84       1.0  0.80630  0.57160  0.93980  1.0000 -0.5117517445
O   O85       1.0  0.92279  0.68590  0.92526  1.0000 -0.4812706742
O   O86       1.0  0.58290  0.80030  0.59820  1.0000 -0.7124979827
O   O87       1.0  0.61230  0.40830  0.83230  1.0000 -0.6575230989
O   O88       1.0  0.69720  0.34950  0.76500  1.0000 -0.6492032069
