# DDEC6 charges by PACMAN v1.1 (https://github.com/mtap-research/PACMAN-charge/)
data_2022[Ni][nan]3[FSR]2
_chemical_formula_sum              "Ni18 H30 C60 S18 O84"
_cell_length_a       16.1183
_cell_length_b       16.1183
_cell_length_c       12.0483
_cell_angle_alpha    90
_cell_angle_beta     90
_cell_angle_gamma    120

_symmetry_space_group_name_H-M    "P 1"
_symmetry_Int_Tables_number       1

loop_
  _symmetry_equiv_pos_as_xyz
  'x, y, z'

loop_
  _atom_site_type_symbol
  _atom_site_label
  _atom_site_symmetry_multiplicity
  _atom_site_fract_x
  _atom_site_fract_y
  _atom_site_fract_z
  _atom_site_occupancy
  _atom_site_charge
Ni  Ni1       1.0  0.99998  0.23925  0.99995  1.0000 0.7553391516
Ni  Ni2       1.0  0.87829  0.12169  0.19712  1.0000 0.6287511448
Ni  Ni3       1.0  0.12170  0.24352  0.19711  1.0000 0.6287511448
Ni  Ni4       1.0  0.76075  0.76073  0.99995  1.0000 0.7553391516
Ni  Ni5       1.0  0.87831  0.75660  0.19712  1.0000 0.6287511448
Ni  Ni6       1.0  0.75648  0.87818  0.19711  1.0000 0.6287511448
Ni  Ni7       1.0  0.23927  0.00002  0.99995  1.0000 0.7553391516
Ni  Ni8       1.0  0.24340  0.12171  0.19712  1.0000 0.6287511448
Ni  Ni9       1.0  0.12182  0.87830  0.19711  1.0000 0.6287511448
Ni  Ni10      1.0  0.00002  0.76075  0.00005  1.0000 0.7553391516
Ni  Ni11      1.0  0.12171  0.87831  0.80288  1.0000 0.6287511448
Ni  Ni12      1.0  0.87830  0.75648  0.80289  1.0000 0.6287511448
Ni  Ni13      1.0  0.23925  0.23927  0.00005  1.0000 0.7553391516
Ni  Ni14      1.0  0.12169  0.24340  0.80288  1.0000 0.6287511448
Ni  Ni15      1.0  0.24352  0.12182  0.80289  1.0000 0.6287511448
Ni  Ni16      1.0  0.76073  0.99998  0.00005  1.0000 0.7553391516
Ni  Ni17      1.0  0.75660  0.87829  0.80288  1.0000 0.6287511448
Ni  Ni18      1.0  0.87818  0.12170  0.80289  1.0000 0.6287511448
H   H1        1.0  0.00120  0.50020  0.12691  1.0000 0.1614237363
H   H2        1.0  0.99961  0.62361  0.41595  1.0000 0.1188848662
H   H3        1.0  0.99971  0.37650  0.41600  1.0000 0.1188848662
H   H4        1.0  0.05967  0.12110  0.24703  1.0000 0.1350272109
H   H5        1.0  0.93935  0.06113  0.24779  1.0000 0.1350272109
H   H6        1.0  0.49980  0.50100  0.12691  1.0000 0.1614237363
H   H7        1.0  0.37639  0.37600  0.41595  1.0000 0.1188848662
H   H8        1.0  0.62350  0.62321  0.41600  1.0000 0.1188848662
H   H9        1.0  0.87890  0.93857  0.24703  1.0000 0.1346276512
H   H10       1.0  0.93887  0.87822  0.24779  1.0000 0.1350272109
H   H11       1.0  0.49900  0.99880  0.12691  1.0000 0.1614237363
H   H12       1.0  0.62400  0.00039  0.41595  1.0000 0.1188848662
H   H13       1.0  0.37679  0.00029  0.41600  1.0000 0.1188848662
H   H14       1.0  0.06143  0.94033  0.24703  1.0000 0.1346276512
H   H15       1.0  0.12178  0.06065  0.24779  1.0000 0.1350272109
H   H16       1.0  0.99880  0.49980  0.87309  1.0000 0.1614237363
H   H17       1.0  0.00039  0.37639  0.58405  1.0000 0.1188848662
H   H18       1.0  0.00029  0.62350  0.58400  1.0000 0.1188848662
H   H19       1.0  0.94033  0.87890  0.75297  1.0000 0.1346276512
H   H20       1.0  0.06065  0.93887  0.75221  1.0000 0.1350272109
H   H21       1.0  0.50020  0.49900  0.87309  1.0000 0.1614237363
H   H22       1.0  0.62361  0.62400  0.58405  1.0000 0.1188848662
H   H23       1.0  0.37650  0.37679  0.58400  1.0000 0.1188848662
H   H24       1.0  0.12110  0.06143  0.75297  1.0000 0.1350272109
H   H25       1.0  0.06113  0.12178  0.75221  1.0000 0.1350272109
H   H26       1.0  0.50100  0.00120  0.87309  1.0000 0.1614237363
H   H27       1.0  0.37600  0.99961  0.58405  1.0000 0.1188848662
H   H28       1.0  0.62321  0.99971  0.58400  1.0000 0.1188848662
H   H29       1.0  0.93857  0.05967  0.75297  1.0000 0.1350272109
H   H30       1.0  0.87822  0.93935  0.75221  1.0000 0.1350272109
C   C1        1.0  0.99920  0.65530  0.20340  1.0000 0.6008411755
C   C2        1.0  0.99940  0.34410  0.20400  1.0000 0.6008411755
C   C3        1.0  0.00090  0.50020  0.20410  1.0000 -0.0881059507
C   C4        1.0  0.00050  0.57470  0.26370  1.0000 0.0083462835
C   C5        1.0  0.00060  0.42620  0.26390  1.0000 0.0083462835
C   C6        1.0  0.00010  0.50010  0.43790  1.0000 0.0532527334
C   C7        1.0  0.00000  0.57360  0.37790  1.0000 -0.1274723177
C   C8        1.0  0.00010  0.42690  0.37790  1.0000 -0.1274723177
C   C9        1.0  0.07090  0.14300  0.17410  1.0000 0.0083462835
C   C10       1.0  0.92860  0.07170  0.17470  1.0000 0.0083462835
C   C11       1.0  0.34470  0.34390  0.20340  1.0000 0.6008411755
C   C12       1.0  0.65590  0.65530  0.20400  1.0000 0.6008411755
C   C13       1.0  0.49980  0.50070  0.20410  1.0000 -0.0881059507
C   C14       1.0  0.42530  0.42580  0.26370  1.0000 0.0083462835
C   C15       1.0  0.57380  0.57440  0.26390  1.0000 0.0083462835
C   C16       1.0  0.49990  0.50000  0.43790  1.0000 0.0532527334
C   C17       1.0  0.42640  0.42640  0.37790  1.0000 -0.1274723177
C   C18       1.0  0.57310  0.57320  0.37790  1.0000 -0.1274723177
C   C19       1.0  0.85700  0.92790  0.17410  1.0000 0.0083462835
C   C20       1.0  0.92830  0.85690  0.17470  1.0000 0.0083462835
C   C21       1.0  0.65610  0.00080  0.20340  1.0000 0.6008411755
C   C22       1.0  0.34470  0.00060  0.20400  1.0000 0.6008411755
C   C23       1.0  0.49930  0.99910  0.20410  1.0000 -0.0881059507
C   C24       1.0  0.57420  0.99950  0.26370  1.0000 0.0083462835
C   C25       1.0  0.42560  0.99940  0.26390  1.0000 0.0083462835
C   C26       1.0  0.50000  0.99990  0.43790  1.0000 0.0532527334
C   C27       1.0  0.57360  0.00000  0.37790  1.0000 -0.1274723177
C   C28       1.0  0.42680  0.99990  0.37790  1.0000 -0.1274723177
C   C29       1.0  0.07210  0.92910  0.17410  1.0000 0.0083462835
C   C30       1.0  0.14310  0.07140  0.17470  1.0000 0.0083462835
C   C31       1.0  0.00080  0.34470  0.79660  1.0000 0.6008411755
C   C32       1.0  0.00060  0.65590  0.79600  1.0000 0.6008411755
C   C33       1.0  0.99910  0.49980  0.79590  1.0000 -0.0881059507
C   C34       1.0  0.99950  0.42530  0.73630  1.0000 0.0083462835
C   C35       1.0  0.99940  0.57380  0.73610  1.0000 0.0083462835
C   C36       1.0  0.99990  0.49990  0.56210  1.0000 0.0532527334
C   C37       1.0  0.00000  0.42640  0.62210  1.0000 -0.1274723177
C   C38       1.0  0.99990  0.57310  0.62210  1.0000 -0.1274723177
C   C39       1.0  0.92910  0.85700  0.82590  1.0000 0.0083462835
C   C40       1.0  0.07140  0.92830  0.82530  1.0000 0.0043542658
C   C41       1.0  0.65530  0.65610  0.79660  1.0000 0.6008411755
C   C42       1.0  0.34410  0.34470  0.79600  1.0000 0.6008411755
C   C43       1.0  0.50020  0.49930  0.79590  1.0000 -0.0881059507
C   C44       1.0  0.57470  0.57420  0.73630  1.0000 0.0083462835
C   C45       1.0  0.42620  0.42560  0.73610  1.0000 0.0083462835
C   C46       1.0  0.50010  0.50000  0.56210  1.0000 0.0532527334
C   C47       1.0  0.57360  0.57360  0.62210  1.0000 -0.1274723177
C   C48       1.0  0.42690  0.42680  0.62210  1.0000 -0.1274723177
C   C49       1.0  0.14300  0.07210  0.82590  1.0000 0.0083462835
C   C50       1.0  0.07170  0.14310  0.82530  1.0000 0.0043542658
C   C51       1.0  0.34390  0.99920  0.79660  1.0000 0.6008411755
C   C52       1.0  0.65530  0.99940  0.79600  1.0000 0.6008411755
C   C53       1.0  0.50070  0.00090  0.79590  1.0000 -0.0881059507
C   C54       1.0  0.42580  0.00050  0.73630  1.0000 0.0083462835
C   C55       1.0  0.57440  0.00060  0.73610  1.0000 0.0083462835
C   C56       1.0  0.50000  0.00010  0.56210  1.0000 0.0532527334
C   C57       1.0  0.42640  0.00000  0.62210  1.0000 -0.1274723177
C   C58       1.0  0.57320  0.00010  0.62210  1.0000 -0.1274723177
C   C59       1.0  0.92790  0.07090  0.82590  1.0000 0.0083462835
C   C60       1.0  0.85690  0.92860  0.82530  1.0000 0.0043542658
S   S1        1.0  0.00060  0.14620  0.42350  1.0000 0.2996910142
S   S2        1.0  0.15290  0.15230  0.42550  1.0000 0.2996910142
S   S3        1.0  0.79700  0.20500  0.00000  1.0000 1.0496323367
S   S4        1.0  0.85380  0.85440  0.42350  1.0000 0.2996910142
S   S5        1.0  0.84770  0.00060  0.42550  1.0000 0.3073836227
S   S6        1.0  0.79500  0.59200  0.00000  1.0000 1.0270635148
S   S7        1.0  0.14560  0.99940  0.42350  1.0000 0.2940353414
S   S8        1.0  0.99940  0.84710  0.42550  1.0000 0.2996910142
S   S9        1.0  0.40800  0.20300  0.00000  1.0000 1.0270635148
S   S10       1.0  0.99940  0.85380  0.57650  1.0000 0.2996910142
S   S11       1.0  0.84710  0.84770  0.57450  1.0000 0.3073836227
S   S12       1.0  0.20300  0.79500  0.00000  1.0000 1.0496323367
S   S13       1.0  0.14620  0.14560  0.57650  1.0000 0.2996910142
S   S14       1.0  0.15230  0.99940  0.57450  1.0000 0.2996910142
S   S15       1.0  0.20500  0.40800  0.00000  1.0000 1.0270635148
S   S16       1.0  0.85440  0.00060  0.57650  1.0000 0.2996910142
S   S17       1.0  0.00060  0.15290  0.57450  1.0000 0.2996910142
S   S18       1.0  0.59200  0.79700  0.00000  1.0000 1.0496323367
O   O1        1.0  0.00020  0.15620  0.13040  1.0000 -0.3027181516
O   O2        1.0  0.15600  0.15610  0.13070  1.0000 -0.3085768561
O   O3        1.0  0.99990  0.33450  0.11090  1.0000 -0.3813771943
O   O4        1.0  0.99980  0.66520  0.11070  1.0000 -0.3737549275
O   O5        1.0  0.92090  0.25350  0.25320  1.0000 -0.5196968555
O   O6        1.0  0.92230  0.66750  0.25310  1.0000 -0.5125782777
O   O7        1.0  0.85260  0.14810  0.03780  1.0000 -0.1749626736
O   O8        1.0  0.08850  0.17580  0.35310  1.0000 -0.2826072067
O   O9        1.0  0.91170  0.08800  0.35330  1.0000 -0.2826072067
O   O10       1.0  0.07890  0.74550  0.25200  1.0000 -0.5125782777
O   O11       1.0  0.85280  0.14720  0.96140  1.0000 -0.1803623589
O   O12       1.0  0.07910  0.33280  0.25280  1.0000 -0.5196968555
O   O13       1.0  0.82800  0.31300  0.00100  1.0000 -0.4583281517
O   O14       1.0  0.68800  0.16900  0.00100  1.0000 -0.4528698315
O   O15       1.0  0.84380  0.84400  0.13040  1.0000 -0.3027181516
O   O16       1.0  0.84390  0.99990  0.13070  1.0000 -0.3085768561
O   O17       1.0  0.66550  0.66540  0.11090  1.0000 -0.3813771943
O   O18       1.0  0.33480  0.33460  0.11070  1.0000 -0.3737549275
O   O19       1.0  0.74650  0.66740  0.25320  1.0000 -0.5196968555
O   O20       1.0  0.33250  0.25480  0.25310  1.0000 -0.5125782777
O   O21       1.0  0.85190  0.70450  0.03780  1.0000 -0.1749626736
O   O22       1.0  0.82420  0.91270  0.35310  1.0000 -0.2826072067
O   O23       1.0  0.91200  0.82370  0.35330  1.0000 -0.2826072067
O   O24       1.0  0.25450  0.33340  0.25200  1.0000 -0.5125782777
O   O25       1.0  0.85280  0.70560  0.96140  1.0000 -0.1803623589
O   O26       1.0  0.66720  0.74630  0.25280  1.0000 -0.5196968555
O   O27       1.0  0.68700  0.51500  0.00100  1.0000 -0.4583281517
O   O28       1.0  0.83100  0.51900  0.00100  1.0000 -0.4528698315
O   O29       1.0  0.15600  0.99980  0.13040  1.0000 -0.3027181516
O   O30       1.0  0.00010  0.84400  0.13070  1.0000 -0.3085768561
O   O31       1.0  0.33460  0.00010  0.11090  1.0000 -0.3813771943
O   O32       1.0  0.66540  0.00020  0.11070  1.0000 -0.3737549275
O   O33       1.0  0.33260  0.07910  0.25320  1.0000 -0.5196968555
O   O34       1.0  0.74520  0.07770  0.25310  1.0000 -0.5125782777
O   O35       1.0  0.29550  0.14740  0.03780  1.0000 -0.1803623589
O   O36       1.0  0.08730  0.91150  0.35310  1.0000 -0.2826072067
O   O37       1.0  0.17630  0.08830  0.35330  1.0000 -0.2826072067
O   O38       1.0  0.66667  0.92110  0.25200  1.0000 -0.5125782777
O   O39       1.0  0.29440  0.14720  0.96140  1.0000 -0.1803623589
O   O40       1.0  0.25370  0.92090  0.25280  1.0000 -0.5196968555
O   O41       1.0  0.48500  0.17200  0.00100  1.0000 -0.4583281517
O   O42       1.0  0.48100  0.31200  0.00100  1.0000 -0.4528698315
O   O43       1.0  0.99980  0.84380  0.86960  1.0000 -0.3027181516
O   O44       1.0  0.84400  0.84390  0.86930  1.0000 -0.3085768561
O   O45       1.0  0.00010  0.66550  0.88910  1.0000 -0.3813771943
O   O46       1.0  0.00020  0.33480  0.88930  1.0000 -0.3737549275
O   O47       1.0  0.07910  0.74650  0.74680  1.0000 -0.5196968555
O   O48       1.0  0.07770  0.33250  0.74690  1.0000 -0.5125782777
O   O49       1.0  0.14740  0.85190  0.96220  1.0000 -0.1749626736
O   O50       1.0  0.91150  0.82420  0.64690  1.0000 -0.2826072067
O   O51       1.0  0.08830  0.91200  0.64670  1.0000 -0.2826072067
O   O52       1.0  0.92110  0.25450  0.74800  1.0000 -0.5125782777
O   O53       1.0  0.14720  0.85280  0.03860  1.0000 -0.1803623589
O   O54       1.0  0.92090  0.66720  0.74720  1.0000 -0.5196968555
O   O55       1.0  0.17200  0.68700  0.99900  1.0000 -0.4583281517
O   O56       1.0  0.31200  0.83100  0.99900  1.0000 -0.4528698315
O   O57       1.0  0.15620  0.15600  0.86960  1.0000 -0.3027181516
O   O58       1.0  0.15610  0.00010  0.86930  1.0000 -0.3085768561
O   O59       1.0  0.33450  0.33460  0.88910  1.0000 -0.3813771943
O   O60       1.0  0.66520  0.66540  0.88930  1.0000 -0.3737549275
O   O61       1.0  0.25350  0.33260  0.74680  1.0000 -0.5196968555
O   O62       1.0  0.66750  0.74520  0.74690  1.0000 -0.5125782777
O   O63       1.0  0.14810  0.29550  0.96220  1.0000 -0.1803623589
O   O64       1.0  0.17580  0.08730  0.64690  1.0000 -0.2826072067
O   O65       1.0  0.08800  0.17630  0.64670  1.0000 -0.2826072067
O   O66       1.0  0.74550  0.66667  0.74800  1.0000 -0.5125782777
O   O67       1.0  0.14720  0.29440  0.03860  1.0000 -0.1803623589
O   O68       1.0  0.33280  0.25370  0.74720  1.0000 -0.5196968555
O   O69       1.0  0.31300  0.48500  0.99900  1.0000 -0.4583281517
O   O70       1.0  0.16900  0.48100  0.99900  1.0000 -0.4528698315
O   O71       1.0  0.84400  0.00020  0.86960  1.0000 -0.3027181516
O   O72       1.0  0.99990  0.15600  0.86930  1.0000 -0.3085768561
O   O73       1.0  0.66540  0.99990  0.88910  1.0000 -0.3813771943
O   O74       1.0  0.33460  0.99980  0.88930  1.0000 -0.3737549275
O   O75       1.0  0.66740  0.92090  0.74680  1.0000 -0.5196968555
O   O76       1.0  0.25480  0.92230  0.74690  1.0000 -0.5125782777
O   O77       1.0  0.70450  0.85260  0.96220  1.0000 -0.1749626736
O   O78       1.0  0.91270  0.08850  0.64690  1.0000 -0.2826072067
O   O79       1.0  0.82370  0.91170  0.64670  1.0000 -0.2826072067
O   O80       1.0  0.33340  0.07890  0.74800  1.0000 -0.5125782777
O   O81       1.0  0.70560  0.85280  0.03860  1.0000 -0.1803623589
O   O82       1.0  0.74630  0.07910  0.74720  1.0000 -0.5196968555
O   O83       1.0  0.51500  0.82800  0.99900  1.0000 -0.4583281517
O   O84       1.0  0.51900  0.68800  0.99900  1.0000 -0.4528698315
