# DDEC6 charges by PACMAN v1.1 (https://github.com/mtap-research/PACMAN-charge/)
data_2022[Y][nan]3[FSR]1
_chemical_formula_sum              "Y2 H28 C44 N26 O14"
_cell_length_a       12.4895
_cell_length_b       12.4895
_cell_length_c       10.7618
_cell_angle_alpha    64.4813
_cell_angle_beta     115.519
_cell_angle_gamma    113.756

_symmetry_space_group_name_H-M    "P 1"
_symmetry_Int_Tables_number       1

loop_
  _symmetry_equiv_pos_as_xyz
  'x, y, z'

loop_
  _atom_site_type_symbol
  _atom_site_label
  _atom_site_symmetry_multiplicity
  _atom_site_fract_x
  _atom_site_fract_y
  _atom_site_fract_z
  _atom_site_occupancy
  _atom_site_charge
Y   Y1        1.0  0.96150  0.96150  0.75000  1.0000 1.2827413705
Y   Y2        1.0  0.03850  0.03850  0.25000  1.0000 1.2827413705
H   H1        1.0  0.35530  0.91770  0.59500  1.0000 0.1266473831
H   H2        1.0  0.55660  0.81400  0.01710  1.0000 0.1528300073
H   H3        1.0  0.23460  0.88820  0.90380  1.0000 0.141886669
H   H4        1.0  0.45910  0.80310  0.58000  1.0000 0.1108022312
H   H5        1.0  0.82300  0.89580  0.76750  1.0000 0.0975503454
H   H6        1.0  0.51440  0.69340  0.24560  1.0000 0.1266473831
H   H7        1.0  0.37770  0.83850  0.37600  1.0000 0.0921580315
H   H8        1.0  0.91770  0.35530  0.90500  1.0000 0.1266473831
H   H9        1.0  0.81400  0.55660  0.48290  1.0000 0.1528300073
H   H10       1.0  0.88820  0.23460  0.59620  1.0000 0.141886669
H   H11       1.0  0.80310  0.45910  0.92000  1.0000 0.1108022312
H   H12       1.0  0.89580  0.82300  0.73250  1.0000 0.0975503454
H   H13       1.0  0.69340  0.51440  0.25440  1.0000 0.1266473831
H   H14       1.0  0.83850  0.37770  0.12400  1.0000 0.0921580315
H   H15       1.0  0.64470  0.08230  0.40500  1.0000 0.1266473831
H   H16       1.0  0.44340  0.18600  0.98290  1.0000 0.1528300073
H   H17       1.0  0.76540  0.11180  0.09620  1.0000 0.141886669
H   H18       1.0  0.54090  0.19690  0.42000  1.0000 0.1108022312
H   H19       1.0  0.17700  0.10420  0.23250  1.0000 0.0975503454
H   H20       1.0  0.48560  0.30660  0.75440  1.0000 0.1266473831
H   H21       1.0  0.62230  0.16150  0.62400  1.0000 0.0921580315
H   H22       1.0  0.08230  0.64470  0.09500  1.0000 0.1266473831
H   H23       1.0  0.18600  0.44340  0.51710  1.0000 0.1528300073
H   H24       1.0  0.11180  0.76540  0.40380  1.0000 0.141886669
H   H25       1.0  0.19690  0.54090  0.08000  1.0000 0.1108022312
H   H26       1.0  0.10420  0.17700  0.26750  1.0000 0.0975503454
H   H27       1.0  0.30660  0.48560  0.74560  1.0000 0.1266473831
H   H28       1.0  0.16150  0.62230  0.87600  1.0000 0.0921580315
C   C1        1.0  0.16238  0.94192  0.61863  1.0000 0.6268215802
C   C2        1.0  0.27765  0.90763  0.73274  1.0000 0.0113138783
C   C3        1.0  0.36549  0.89977  0.69216  1.0000 -0.2230225477
C   C4        1.0  0.46967  0.86427  0.80125  1.0000 0.1635713715
C   C5        1.0  0.48686  0.83720  0.94606  1.0000 -0.2480812941
C   C6        1.0  0.39718  0.84556  0.98293  1.0000 0.1635713715
C   C7        1.0  0.29303  0.88161  0.87758  1.0000 -0.2105622787
C   C8        1.0  0.53581  0.82803  0.64391  1.0000 0.0921580315
C   C9        1.0  0.73937  0.88039  0.75027  1.0000 0.0423892856
C   C10       1.0  0.47265  0.73915  0.24800  1.0000 0.0975503454
C   C11       1.0  0.39741  0.81923  0.31548  1.0000 0.1266473831
C   C12       1.0  0.94192  0.16238  0.88137  1.0000 0.6268215802
C   C13       1.0  0.90763  0.27765  0.76726  1.0000 0.0113138783
C   C14       1.0  0.89977  0.36549  0.80784  1.0000 -0.2230225477
C   C15       1.0  0.86427  0.46967  0.69875  1.0000 0.1635713715
C   C16       1.0  0.83720  0.48686  0.55394  1.0000 -0.2480812941
C   C17       1.0  0.84556  0.39718  0.51707  1.0000 0.1635713715
C   C18       1.0  0.88161  0.29303  0.62242  1.0000 -0.2105622787
C   C19       1.0  0.82803  0.53581  0.85609  1.0000 0.0921580315
C   C20       1.0  0.88039  0.73937  0.74973  1.0000 0.0423892856
C   C21       1.0  0.73915  0.47265  0.25200  1.0000 0.0975503454
C   C22       1.0  0.81923  0.39741  0.18452  1.0000 0.1266473831
C   C23       1.0  0.83762  0.05808  0.38137  1.0000 0.6268215802
C   C24       1.0  0.72235  0.09237  0.26726  1.0000 0.0113138783
C   C25       1.0  0.63451  0.10023  0.30784  1.0000 -0.2230225477
C   C26       1.0  0.53033  0.13573  0.19875  1.0000 0.1635713715
C   C27       1.0  0.51314  0.16280  0.05394  1.0000 -0.2480812941
C   C28       1.0  0.60282  0.15444  0.01707  1.0000 0.1635713715
C   C29       1.0  0.70697  0.11839  0.12242  1.0000 -0.2105622787
C   C30       1.0  0.46419  0.17197  0.35609  1.0000 0.0921580315
C   C31       1.0  0.26063  0.11961  0.24973  1.0000 0.0423892856
C   C32       1.0  0.52735  0.26085  0.75200  1.0000 0.0975503454
C   C33       1.0  0.60259  0.18077  0.68452  1.0000 0.1266473831
C   C34       1.0  0.05808  0.83762  0.11863  1.0000 0.6268215802
C   C35       1.0  0.09237  0.72235  0.23274  1.0000 0.0113138783
C   C36       1.0  0.10023  0.63451  0.19216  1.0000 -0.2230225477
C   C37       1.0  0.13573  0.53033  0.30125  1.0000 0.1635713715
C   C38       1.0  0.16280  0.51314  0.44606  1.0000 -0.2480812941
C   C39       1.0  0.15444  0.60282  0.48293  1.0000 0.1635713715
C   C40       1.0  0.11839  0.70697  0.37758  1.0000 -0.2105622787
C   C41       1.0  0.17197  0.46419  0.14391  1.0000 0.0921580315
C   C42       1.0  0.11961  0.26063  0.25027  1.0000 0.0423892856
C   C43       1.0  0.26085  0.52735  0.74800  1.0000 0.0975503454
C   C44       1.0  0.18077  0.60259  0.81548  1.0000 0.1266473831
N   N1        1.0  0.56213  0.86157  0.76056  1.0000 0.1234454614
N   N2        1.0  0.68626  0.89340  0.82376  1.0000 -0.1572376761
N   N3        1.0  0.64308  0.83906  0.64322  1.0000 -0.1914702031
N   N4        1.0  0.41180  0.81672  0.13058  1.0000 0.1108022312
N   N5        1.0  0.36293  0.86881  0.17402  1.0000 -0.2297639224
N   N6        1.0  0.46397  0.73783  0.36624  1.0000 -0.3381163749
N   N7        1.0  0.86157  0.56213  0.73944  1.0000 0.1234454614
N   N8        1.0  0.89340  0.68626  0.67624  1.0000 -0.1572376761
N   N9        1.0  0.83906  0.64308  0.85678  1.0000 -0.1914702031
N   N10       1.0  0.81672  0.41180  0.36942  1.0000 0.1108022312
N   N11       1.0  0.86881  0.36293  0.32598  1.0000 -0.2297639224
N   N12       1.0  0.73783  0.46397  0.13376  1.0000 -0.3381163749
N   N13       1.0  0.43787  0.13843  0.23944  1.0000 0.1234454614
N   N14       1.0  0.31374  0.10660  0.17624  1.0000 -0.1572376761
N   N15       1.0  0.35692  0.16094  0.35678  1.0000 -0.1914702031
N   N16       1.0  0.58820  0.18328  0.86942  1.0000 0.1108022312
N   N17       1.0  0.63707  0.13119  0.82598  1.0000 -0.2297639224
N   N18       1.0  0.53603  0.26217  0.63376  1.0000 -0.3381163749
N   N19       1.0  0.13843  0.43787  0.26056  1.0000 0.1234454614
N   N20       1.0  0.10660  0.31374  0.32376  1.0000 -0.1572376761
N   N21       1.0  0.16094  0.35692  0.14322  1.0000 -0.1914702031
N   N22       1.0  0.18328  0.58820  0.63058  1.0000 0.1108022312
N   N23       1.0  0.13119  0.63707  0.67402  1.0000 -0.2297639224
N   N24       1.0  0.26217  0.53603  0.86624  1.0000 -0.3381163749
N   N25       1.0  0.17421  0.17421  0.75000  1.0000 0.6989959505
N   N26       1.0  0.82579  0.82579  0.25000  1.0000 0.6989959505
O   O1        1.0  0.17244  0.07776  0.85831  1.0000 -0.4322955731
O   O2        1.0  0.08038  0.93358  0.66167  1.0000 -0.5682083342
O   O3        1.0  0.15612  0.97576  0.48751  1.0000 -0.5947251889
O   O4        1.0  0.07776  0.17244  0.64169  1.0000 -0.4322955731
O   O5        1.0  0.93358  0.08038  0.83833  1.0000 -0.5682083342
O   O6        1.0  0.97576  0.15612  0.01249  1.0000 -0.5947251889
O   O7        1.0  0.82756  0.92224  0.14169  1.0000 -0.4322955731
O   O8        1.0  0.91962  0.06642  0.33833  1.0000 -0.5682083342
O   O9        1.0  0.84388  0.02424  0.51249  1.0000 -0.5947251889
O   O10       1.0  0.92224  0.82756  0.35831  1.0000 -0.4322955731
O   O11       1.0  0.06642  0.91962  0.16167  1.0000 -0.5682083342
O   O12       1.0  0.02424  0.84388  0.98751  1.0000 -0.5947251889
O   O13       1.0  0.26247  0.26247  0.75000  1.0000 -0.4083565149
O   O14       1.0  0.73753  0.73753  0.25000  1.0000 -0.4083565149
