# DDEC6 charges by PACMAN v1.1 (https://github.com/mtap-research/PACMAN-charge/)
data_2022[Zn][nan]3[FSR]25
_chemical_formula_sum              "Zn12 H48 C78 N24 O36"
_cell_length_a       21.1543
_cell_length_b       21.1543
_cell_length_c       21.1543
_cell_angle_alpha    116.268
_cell_angle_beta     116.268
_cell_angle_gamma    116.268

_symmetry_space_group_name_H-M    "P 1"
_symmetry_Int_Tables_number       1

loop_
  _symmetry_equiv_pos_as_xyz
  'x, y, z'

loop_
  _atom_site_type_symbol
  _atom_site_label
  _atom_site_symmetry_multiplicity
  _atom_site_fract_x
  _atom_site_fract_y
  _atom_site_fract_z
  _atom_site_occupancy
  _atom_site_charge
Zn  Zn1       1.0  0.45191  0.54129  0.98126  1.0000 0.8311806011
Zn  Zn2       1.0  0.34160  0.53493  0.79461  1.0000 0.7768762398
Zn  Zn3       1.0  0.54129  0.98126  0.45191  1.0000 0.8311806011
Zn  Zn4       1.0  0.53493  0.79461  0.34160  1.0000 0.7768762398
Zn  Zn5       1.0  0.98126  0.45191  0.54129  1.0000 0.8311806011
Zn  Zn6       1.0  0.79461  0.34160  0.53493  1.0000 0.7768762398
Zn  Zn7       1.0  0.54809  0.45871  0.01874  1.0000 0.8311806011
Zn  Zn8       1.0  0.65840  0.46507  0.20539  1.0000 0.7768762398
Zn  Zn9       1.0  0.45871  0.01874  0.54809  1.0000 0.8311806011
Zn  Zn10      1.0  0.46507  0.20539  0.65840  1.0000 0.7768762398
Zn  Zn11      1.0  0.01874  0.54809  0.45871  1.0000 0.8311806011
Zn  Zn12      1.0  0.20539  0.65840  0.46507  1.0000 0.7768762398
H   H1        1.0  0.57590  0.84900  0.21410  1.0000 0.1110670346
H   H2        1.0  0.66330  0.92380  0.10170  1.0000 0.126393148
H   H3        1.0  0.77840  0.11380  0.25560  1.0000 0.1110670346
H   H4        1.0  0.67580  0.03250  0.35670  1.0000 0.1110670346
H   H5        1.0  0.45920  0.65500  0.13270  1.0000 0.1110670346
H   H6        1.0  0.64480  0.58890  0.34620  1.0000 0.1246886241
H   H7        1.0  0.65720  0.65280  0.08300  1.0000 0.342718898
H   H8        1.0  0.68700  0.69900  0.17500  1.0000 0.3609708982
H   H9        1.0  0.84900  0.21410  0.57590  1.0000 0.1110670346
H   H10       1.0  0.92380  0.10170  0.66330  1.0000 0.126393148
H   H11       1.0  0.11380  0.25560  0.77840  1.0000 0.1110670346
H   H12       1.0  0.03250  0.35670  0.67580  1.0000 0.1110670346
H   H13       1.0  0.65500  0.13270  0.45920  1.0000 0.1110670346
H   H14       1.0  0.58890  0.34620  0.64480  1.0000 0.1246886241
H   H15       1.0  0.65280  0.08300  0.65720  1.0000 0.342718898
H   H16       1.0  0.69900  0.17500  0.68700  1.0000 0.3609708982
H   H17       1.0  0.21410  0.57590  0.84900  1.0000 0.1110670346
H   H18       1.0  0.10170  0.66330  0.92380  1.0000 0.126393148
H   H19       1.0  0.25560  0.77840  0.11380  1.0000 0.1110670346
H   H20       1.0  0.35670  0.67580  0.03250  1.0000 0.1110670346
H   H21       1.0  0.13270  0.45920  0.65500  1.0000 0.1110670346
H   H22       1.0  0.34620  0.64480  0.58890  1.0000 0.1246886241
H   H23       1.0  0.08300  0.65720  0.65280  1.0000 0.342718898
H   H24       1.0  0.17500  0.68700  0.69900  1.0000 0.3609708982
H   H25       1.0  0.42410  0.15100  0.78590  1.0000 0.1110670346
H   H26       1.0  0.33670  0.07620  0.89830  1.0000 0.126393148
H   H27       1.0  0.22160  0.88620  0.74440  1.0000 0.1110670346
H   H28       1.0  0.32420  0.96750  0.64330  1.0000 0.1110670346
H   H29       1.0  0.54080  0.34500  0.86730  1.0000 0.1110670346
H   H30       1.0  0.35520  0.41110  0.65380  1.0000 0.1246886241
H   H31       1.0  0.34280  0.34720  0.91700  1.0000 0.342718898
H   H32       1.0  0.31300  0.30100  0.82500  1.0000 0.3609708982
H   H33       1.0  0.15100  0.78590  0.42410  1.0000 0.1110670346
H   H34       1.0  0.07620  0.89830  0.33670  1.0000 0.126393148
H   H35       1.0  0.88620  0.74440  0.22160  1.0000 0.1110670346
H   H36       1.0  0.96750  0.64330  0.32420  1.0000 0.1110670346
H   H37       1.0  0.34500  0.86730  0.54080  1.0000 0.1110670346
H   H38       1.0  0.41110  0.65380  0.35520  1.0000 0.1246886241
H   H39       1.0  0.34720  0.91700  0.34280  1.0000 0.342718898
H   H40       1.0  0.30100  0.82500  0.31300  1.0000 0.3609708982
H   H41       1.0  0.78590  0.42410  0.15100  1.0000 0.1110670346
H   H42       1.0  0.89830  0.33670  0.07620  1.0000 0.126393148
H   H43       1.0  0.74440  0.22160  0.88620  1.0000 0.1110670346
H   H44       1.0  0.64330  0.32420  0.96750  1.0000 0.1110670346
H   H45       1.0  0.86730  0.54080  0.34500  1.0000 0.1110670346
H   H46       1.0  0.65380  0.35520  0.41110  1.0000 0.1246886241
H   H47       1.0  0.91700  0.34280  0.34720  1.0000 0.342718898
H   H48       1.0  0.82500  0.31300  0.30100  1.0000 0.3609708982
C   C1        1.0  0.52800  0.74279  0.04031  1.0000 0.5905505108
C   C2        1.0  0.60658  0.86713  0.14159  1.0000 -0.0146290836
C   C3        1.0  0.61362  0.90148  0.22020  1.0000 -0.106524871
C   C4        1.0  0.66741  0.94632  0.15427  1.0000 -0.106524871
C   C5        1.0  0.80349  0.21119  0.41302  1.0000 0.5905505108
C   C6        1.0  0.73690  0.09141  0.32039  1.0000 -0.0261539773
C   C7        1.0  0.73458  0.05925  0.24507  1.0000 -0.1157764557
C   C8        1.0  0.67536  0.01159  0.30695  1.0000 -0.1018983287
C   C9        1.0  0.48972  0.64274  0.16574  1.0000 0.2754393506
C   C10       1.0  0.54417  0.57271  0.16992  1.0000 0.291844337
C   C11       1.0  0.57410  0.60834  0.26246  1.0000 -0.1890124467
C   C12       1.0  0.56142  0.66667  0.30947  1.0000 0.4960516977
C   C13       1.0  0.61717  0.57701  0.28792  1.0000 0.0432953673
C   C14       1.0  0.74279  0.04031  0.52800  1.0000 0.5905505108
C   C15       1.0  0.86713  0.14159  0.60658  1.0000 -0.0146290836
C   C16       1.0  0.90148  0.22020  0.61362  1.0000 -0.106524871
C   C17       1.0  0.94632  0.15427  0.66741  1.0000 -0.106524871
C   C18       1.0  0.21119  0.41302  0.80349  1.0000 0.5905505108
C   C19       1.0  0.09141  0.32039  0.73690  1.0000 -0.0261539773
C   C20       1.0  0.05925  0.24507  0.73458  1.0000 -0.1157764557
C   C21       1.0  0.01159  0.30695  0.67536  1.0000 -0.1018983287
C   C22       1.0  0.64274  0.16574  0.48972  1.0000 0.2754393506
C   C23       1.0  0.57271  0.16992  0.54417  1.0000 0.291844337
C   C24       1.0  0.60834  0.26246  0.57410  1.0000 -0.1890124467
C   C25       1.0  0.66667  0.30947  0.56142  1.0000 0.4960516977
C   C26       1.0  0.57701  0.28792  0.61717  1.0000 0.0432953673
C   C27       1.0  0.04031  0.52800  0.74279  1.0000 0.5905505108
C   C28       1.0  0.14159  0.60658  0.86713  1.0000 -0.0146290836
C   C29       1.0  0.22020  0.61362  0.90148  1.0000 -0.106524871
C   C30       1.0  0.15427  0.66741  0.94632  1.0000 -0.106524871
C   C31       1.0  0.41302  0.80349  0.21119  1.0000 0.5905505108
C   C32       1.0  0.32039  0.73690  0.09141  1.0000 -0.0261539773
C   C33       1.0  0.24507  0.73458  0.05925  1.0000 -0.1157764557
C   C34       1.0  0.30695  0.67536  0.01159  1.0000 -0.1018983287
C   C35       1.0  0.16574  0.48972  0.64274  1.0000 0.2754393506
C   C36       1.0  0.16992  0.54417  0.57271  1.0000 0.291844337
C   C37       1.0  0.26246  0.57410  0.60834  1.0000 -0.1890124467
C   C38       1.0  0.30947  0.56142  0.66667  1.0000 0.4960516977
C   C39       1.0  0.28792  0.61717  0.57701  1.0000 0.0432953673
C   C40       1.0  0.47200  0.25721  0.95969  1.0000 0.5905505108
C   C41       1.0  0.39342  0.13287  0.85841  1.0000 -0.0146290836
C   C42       1.0  0.38638  0.09852  0.77980  1.0000 -0.106524871
C   C43       1.0  0.33259  0.05368  0.84573  1.0000 -0.106524871
C   C44       1.0  0.19651  0.78881  0.58698  1.0000 0.5905505108
C   C45       1.0  0.26310  0.90859  0.67961  1.0000 -0.0261539773
C   C46       1.0  0.26542  0.94075  0.75493  1.0000 -0.1157764557
C   C47       1.0  0.32464  0.98841  0.69305  1.0000 -0.1018983287
C   C48       1.0  0.51028  0.35726  0.83426  1.0000 0.2754393506
C   C49       1.0  0.45583  0.42729  0.83008  1.0000 0.291844337
C   C50       1.0  0.42590  0.39166  0.73754  1.0000 -0.1890124467
C   C51       1.0  0.43858  0.33333  0.69053  1.0000 0.4960516977
C   C52       1.0  0.38283  0.42299  0.71208  1.0000 0.0432953673
C   C53       1.0  0.25721  0.95969  0.47200  1.0000 0.5905505108
C   C54       1.0  0.13287  0.85841  0.39342  1.0000 -0.0146290836
C   C55       1.0  0.09852  0.77980  0.38638  1.0000 -0.106524871
C   C56       1.0  0.05368  0.84573  0.33259  1.0000 -0.106524871
C   C57       1.0  0.78881  0.58698  0.19651  1.0000 0.5905505108
C   C58       1.0  0.90859  0.67961  0.26310  1.0000 -0.0261539773
C   C59       1.0  0.94075  0.75493  0.26542  1.0000 -0.1157764557
C   C60       1.0  0.98841  0.69305  0.32464  1.0000 -0.1018983287
C   C61       1.0  0.35726  0.83426  0.51028  1.0000 0.2754393506
C   C62       1.0  0.42729  0.83008  0.45583  1.0000 0.291844337
C   C63       1.0  0.39166  0.73754  0.42590  1.0000 -0.1890124467
C   C64       1.0  0.33333  0.69053  0.43858  1.0000 0.4960516977
C   C65       1.0  0.42299  0.71208  0.38283  1.0000 0.0432953673
C   C66       1.0  0.95969  0.47200  0.25721  1.0000 0.5905505108
C   C67       1.0  0.85841  0.39342  0.13287  1.0000 -0.0146290836
C   C68       1.0  0.77980  0.38638  0.09852  1.0000 -0.106524871
C   C69       1.0  0.84573  0.33259  0.05368  1.0000 -0.106524871
C   C70       1.0  0.58698  0.19651  0.78881  1.0000 0.5905505108
C   C71       1.0  0.67961  0.26310  0.90859  1.0000 -0.0261539773
C   C72       1.0  0.75493  0.26542  0.94075  1.0000 -0.1157764557
C   C73       1.0  0.69305  0.32464  0.98841  1.0000 -0.1018983287
C   C74       1.0  0.83426  0.51028  0.35726  1.0000 0.27499318
C   C75       1.0  0.83008  0.45583  0.42729  1.0000 0.291844337
C   C76       1.0  0.73754  0.42590  0.39166  1.0000 -0.1890124467
C   C77       1.0  0.69053  0.43858  0.33333  1.0000 0.4960516977
C   C78       1.0  0.71208  0.38283  0.42299  1.0000 0.0432953673
N   N1        1.0  0.49879  0.58780  0.11771  1.0000 -0.4022620332
N   N2        1.0  0.51863  0.68293  0.25564  1.0000 -0.4298426521
N   N3        1.0  0.61222  0.52788  0.21630  1.0000 -0.1890124467
N   N4        1.0  0.56685  0.52432  0.14163  1.0000 -0.3454498065
N   N5        1.0  0.58780  0.11771  0.49879  1.0000 -0.4022620332
N   N6        1.0  0.68293  0.25564  0.51863  1.0000 -0.4298426521
N   N7        1.0  0.52788  0.21630  0.61222  1.0000 -0.1890124467
N   N8        1.0  0.52432  0.14163  0.56685  1.0000 -0.3454498065
N   N9        1.0  0.11771  0.49879  0.58780  1.0000 -0.4022620332
N   N10       1.0  0.25564  0.51863  0.68293  1.0000 -0.4298426521
N   N11       1.0  0.21630  0.61222  0.52788  1.0000 -0.1890124467
N   N12       1.0  0.14163  0.56685  0.52432  1.0000 -0.3454498065
N   N13       1.0  0.50121  0.41220  0.88229  1.0000 -0.4022620332
N   N14       1.0  0.48137  0.31707  0.74436  1.0000 -0.4298426521
N   N15       1.0  0.38778  0.47212  0.78370  1.0000 -0.1890124467
N   N16       1.0  0.43315  0.47568  0.85837  1.0000 -0.3454498065
N   N17       1.0  0.41220  0.88229  0.50121  1.0000 -0.4022620332
N   N18       1.0  0.31707  0.74436  0.48137  1.0000 -0.4298426521
N   N19       1.0  0.47212  0.78370  0.38778  1.0000 -0.1890124467
N   N20       1.0  0.47568  0.85837  0.43315  1.0000 -0.3454498065
N   N21       1.0  0.88229  0.50121  0.41220  1.0000 -0.4022620332
N   N22       1.0  0.74436  0.48137  0.31707  1.0000 -0.4298426521
N   N23       1.0  0.78370  0.38778  0.47212  1.0000 -0.1890124467
N   N24       1.0  0.85837  0.43315  0.47568  1.0000 -0.3454498065
O   O1        1.0  0.51531  0.68980  0.05529  1.0000 -0.5642223668
O   O2        1.0  0.47882  0.70176  0.94752  1.0000 -0.5215837272
O   O3        1.0  0.88148  0.28743  0.44275  1.0000 -0.5479824158
O   O4        1.0  0.77476  0.22512  0.45392  1.0000 -0.5479824158
O   O5        1.0  0.58610  0.70483  0.39157  1.0000 -0.4803986512
O   O6        1.0  0.62811  0.63154  0.09285  1.0000 -0.6054974111
O   O7        1.0  0.68980  0.05529  0.51531  1.0000 -0.5642223668
O   O8        1.0  0.70176  0.94752  0.47882  1.0000 -0.5215837272
O   O9        1.0  0.28743  0.44275  0.88148  1.0000 -0.5479824158
O   O10       1.0  0.22512  0.45392  0.77476  1.0000 -0.5479824158
O   O11       1.0  0.70483  0.39157  0.58610  1.0000 -0.4803986512
O   O12       1.0  0.63154  0.09285  0.62811  1.0000 -0.6054974111
O   O13       1.0  0.05529  0.51531  0.68980  1.0000 -0.5642223668
O   O14       1.0  0.94752  0.47882  0.70176  1.0000 -0.5215837272
O   O15       1.0  0.44275  0.88148  0.28743  1.0000 -0.5479824158
O   O16       1.0  0.45392  0.77476  0.22512  1.0000 -0.5479824158
O   O17       1.0  0.39157  0.58610  0.70483  1.0000 -0.4803986512
O   O18       1.0  0.09285  0.62811  0.63154  1.0000 -0.6054974111
O   O19       1.0  0.48469  0.31020  0.94471  1.0000 -0.5642223668
O   O20       1.0  0.52118  0.29824  0.05248  1.0000 -0.5215837272
O   O21       1.0  0.11852  0.71257  0.55725  1.0000 -0.5479824158
O   O22       1.0  0.22524  0.77488  0.54608  1.0000 -0.5479824158
O   O23       1.0  0.41390  0.29517  0.60843  1.0000 -0.4803986512
O   O24       1.0  0.37189  0.36846  0.90715  1.0000 -0.6054974111
O   O25       1.0  0.31020  0.94471  0.48469  1.0000 -0.5642223668
O   O26       1.0  0.29824  0.05248  0.52118  1.0000 -0.5215837272
O   O27       1.0  0.71257  0.55725  0.11852  1.0000 -0.5479824158
O   O28       1.0  0.77488  0.54608  0.22524  1.0000 -0.5479824158
O   O29       1.0  0.29517  0.60843  0.41390  1.0000 -0.4803986512
O   O30       1.0  0.36846  0.90715  0.37189  1.0000 -0.6054974111
O   O31       1.0  0.94471  0.48469  0.31020  1.0000 -0.5642223668
O   O32       1.0  0.05248  0.52118  0.29824  1.0000 -0.5215837272
O   O33       1.0  0.55725  0.11852  0.71257  1.0000 -0.5479824158
O   O34       1.0  0.54608  0.22524  0.77488  1.0000 -0.5479824158
O   O35       1.0  0.60843  0.41390  0.29517  1.0000 -0.4803986512
O   O36       1.0  0.90715  0.37189  0.36846  1.0000 -0.6054974111
