# DDEC6 charges by PACMAN v1.1 (https://github.com/mtap-research/PACMAN-charge/)
data_2022[Zn][nan]3[FSR]13
_chemical_formula_sum              "Zn12 P16 H32 C16 O56"
_cell_length_a       11.954
_cell_length_b       9.3576
_cell_length_c       20.719
_cell_angle_alpha    90
_cell_angle_beta     91.462
_cell_angle_gamma    90

_symmetry_space_group_name_H-M    "P 1"
_symmetry_Int_Tables_number       1

loop_
  _symmetry_equiv_pos_as_xyz
  'x, y, z'

loop_
  _atom_site_type_symbol
  _atom_site_label
  _atom_site_symmetry_multiplicity
  _atom_site_fract_x
  _atom_site_fract_y
  _atom_site_fract_z
  _atom_site_occupancy
  _atom_site_charge
Zn  Zn1       1.0  0.74812  0.77721  0.17118  1.0000 1.0593463359
Zn  Zn2       1.0  0.55362  0.58298  0.39913  1.0000 1.1292401729
Zn  Zn3       1.0  0.14955  0.80275  0.28384  1.0000 1.1025363682
Zn  Zn4       1.0  0.25188  0.27721  0.32882  1.0000 1.0593463359
Zn  Zn5       1.0  0.44638  0.08298  0.10087  1.0000 1.1292401729
Zn  Zn6       1.0  0.85045  0.30275  0.21616  1.0000 1.1025363682
Zn  Zn7       1.0  0.25188  0.22279  0.82882  1.0000 1.0593463359
Zn  Zn8       1.0  0.44638  0.41702  0.60087  1.0000 1.1292401729
Zn  Zn9       1.0  0.85045  0.19725  0.71616  1.0000 1.1025363682
Zn  Zn10      1.0  0.74812  0.72279  0.67118  1.0000 1.0593463359
Zn  Zn11      1.0  0.55362  0.91702  0.89913  1.0000 1.1292401729
Zn  Zn12      1.0  0.14955  0.69725  0.78384  1.0000 1.1025363682
P   P1        1.0  0.72950  0.56023  0.27930  1.0000 1.2847666918
P   P2        1.0  0.95463  0.61111  0.21477  1.0000 1.2516790806
P   P3        1.0  0.37887  0.36215  0.45609  1.0000 1.2576942621
P   P4        1.0  0.29824  0.59869  0.36718  1.0000 1.2576942621
P   P5        1.0  0.27050  0.06023  0.22070  1.0000 1.2847666918
P   P6        1.0  0.04537  0.11111  0.28523  1.0000 1.2516790806
P   P7        1.0  0.62113  0.86215  0.04391  1.0000 1.2576942621
P   P8        1.0  0.70176  0.09869  0.13282  1.0000 1.2576942621
P   P9        1.0  0.27050  0.43977  0.72070  1.0000 1.2847666918
P   P10       1.0  0.04537  0.38889  0.78523  1.0000 1.2516790806
P   P11       1.0  0.62113  0.63785  0.54391  1.0000 1.2576942621
P   P12       1.0  0.70176  0.40131  0.63282  1.0000 1.2576942621
P   P13       1.0  0.72950  0.93977  0.77930  1.0000 1.2847666918
P   P14       1.0  0.95463  0.88889  0.71477  1.0000 1.2516790806
P   P15       1.0  0.37887  0.13785  0.95609  1.0000 1.2576942621
P   P16       1.0  0.29824  0.90131  0.86718  1.0000 1.2576942621
H   H1        1.0  0.90541  0.83515  0.29472  1.0000 0.3796576141
H   H2        1.0  0.37563  0.65703  0.49038  1.0000 0.3732864438
H   H3        1.0  0.14201  0.40144  0.43038  1.0000 0.1701979516
H   H4        1.0  0.11603  0.55562  0.45552  1.0000 0.1828594049
H   H5        1.0  0.16008  0.43810  0.50374  1.0000 0.1828594049
H   H6        1.0  0.94642  0.48200  0.34427  1.0000 0.1828594049
H   H7        1.0  0.88584  0.59869  0.38494  1.0000 0.1828594049
H   H8        1.0  0.00144  0.63270  0.35434  1.0000 0.1585569708
H   H9        1.0  0.09459  0.33515  0.20528  1.0000 0.3796576141
H   H10       1.0  0.62437  0.15703  0.00962  1.0000 0.3732864438
H   H11       1.0  0.85799  0.90144  0.06962  1.0000 0.1701979516
H   H12       1.0  0.88397  0.05562  0.04448  1.0000 0.1828594049
H   H13       1.0  0.83992  0.93810  0.99626  1.0000 0.1828594049
H   H14       1.0  0.05358  0.98200  0.15573  1.0000 0.1828594049
H   H15       1.0  0.11416  0.09869  0.11506  1.0000 0.1828594049
H   H16       1.0  0.99856  0.13270  0.14566  1.0000 0.1585569708
H   H17       1.0  0.09459  0.16485  0.70528  1.0000 0.3796576141
H   H18       1.0  0.62437  0.34297  0.50962  1.0000 0.3732864438
H   H19       1.0  0.85799  0.59856  0.56962  1.0000 0.1701979516
H   H20       1.0  0.88397  0.44438  0.54448  1.0000 0.1828594049
H   H21       1.0  0.83992  0.56190  0.49626  1.0000 0.1828594049
H   H22       1.0  0.05358  0.51800  0.65573  1.0000 0.1828594049
H   H23       1.0  0.11416  0.40131  0.61506  1.0000 0.1828594049
H   H24       1.0  0.99856  0.36730  0.64566  1.0000 0.1585569708
H   H25       1.0  0.90541  0.66485  0.79472  1.0000 0.3796576141
H   H26       1.0  0.37563  0.84297  0.99038  1.0000 0.3732864438
H   H27       1.0  0.14201  0.09856  0.93038  1.0000 0.1701979516
H   H28       1.0  0.11603  0.94438  0.95552  1.0000 0.1828594049
H   H29       1.0  0.16008  0.06190  0.00374  1.0000 0.1828594049
H   H30       1.0  0.94642  0.01800  0.84427  1.0000 0.1828594049
H   H31       1.0  0.88584  0.90131  0.88494  1.0000 0.1828594049
H   H32       1.0  0.00144  0.86730  0.85434  1.0000 0.1585569708
C   C1        1.0  0.87090  0.63710  0.28660  1.0000 -0.1777222426
C   C2        1.0  0.28460  0.51910  0.44790  1.0000 -0.1522288629
C   C3        1.0  0.16460  0.47440  0.46060  1.0000 -0.4270373108
C   C4        1.0  0.93190  0.58250  0.34840  1.0000 -0.4379198374
C   C5        1.0  0.12910  0.13710  0.21340  1.0000 -0.1777222426
C   C6        1.0  0.71540  0.01910  0.05210  1.0000 -0.1522288629
C   C7        1.0  0.83540  0.97440  0.03940  1.0000 -0.4270373108
C   C8        1.0  0.06810  0.08250  0.15160  1.0000 -0.4379198374
C   C9        1.0  0.12910  0.36290  0.71340  1.0000 -0.1777222426
C   C10       1.0  0.71540  0.48090  0.55210  1.0000 -0.1522288629
C   C11       1.0  0.83540  0.52560  0.53940  1.0000 -0.4270373108
C   C12       1.0  0.06810  0.41750  0.65160  1.0000 -0.4379198374
C   C13       1.0  0.87090  0.86290  0.78660  1.0000 -0.1777222426
C   C14       1.0  0.28460  0.98090  0.94790  1.0000 -0.1522288629
C   C15       1.0  0.16460  0.02560  0.96060  1.0000 -0.4270373108
C   C16       1.0  0.93190  0.91750  0.84840  1.0000 -0.4379198374
O   O1        1.0  0.38180  0.31520  0.52670  1.0000 -0.6708457516
O   O2        1.0  0.89620  0.69470  0.16050  1.0000 -0.690661353
O   O3        1.0  0.32760  0.24620  0.41380  1.0000 -0.6372034372
O   O4        1.0  0.49570  0.40350  0.43560  1.0000 -0.7173005314
O   O5        1.0  0.67130  0.64110  0.22500  1.0000 -0.678882447
O   O6        1.0  0.96100  0.45170  0.19940  1.0000 -0.702786331
O   O7        1.0  0.07140  0.66760  0.22850  1.0000 -0.678882447
O   O8        1.0  0.27640  0.47990  0.31720  1.0000 -0.702786331
O   O9        1.0  0.21050  0.71640  0.36130  1.0000 -0.678882447
O   O10       1.0  0.74070  0.40310  0.26690  1.0000 -0.690661353
O   O11       1.0  0.84660  0.79060  0.29030  1.0000 -0.3755064504
O   O12       1.0  0.67390  0.58180  0.34260  1.0000 -0.6708457516
O   O13       1.0  0.31140  0.62900  0.49530  1.0000 -0.3597484128
O   O14       1.0  0.41630  0.65870  0.36270  1.0000 -0.7061924757
O   O15       1.0  0.61820  0.81520  0.97330  1.0000 -0.6708457516
O   O16       1.0  0.10380  0.19470  0.33950  1.0000 -0.690661353
O   O17       1.0  0.67240  0.74620  0.08620  1.0000 -0.6372034372
O   O18       1.0  0.50430  0.90350  0.06440  1.0000 -0.7173005314
O   O19       1.0  0.32870  0.14110  0.27500  1.0000 -0.678882447
O   O20       1.0  0.03900  0.95170  0.30060  1.0000 -0.702786331
O   O21       1.0  0.92860  0.16760  0.27150  1.0000 -0.678882447
O   O22       1.0  0.72360  0.97990  0.18280  1.0000 -0.702786331
O   O23       1.0  0.78950  0.21640  0.13870  1.0000 -0.678882447
O   O24       1.0  0.25930  0.90310  0.23310  1.0000 -0.690661353
O   O25       1.0  0.15340  0.29060  0.20970  1.0000 -0.3755064504
O   O26       1.0  0.32610  0.08180  0.15740  1.0000 -0.6708457516
O   O27       1.0  0.68860  0.12900  0.00470  1.0000 -0.3597484128
O   O28       1.0  0.58370  0.15870  0.13730  1.0000 -0.7061924757
O   O29       1.0  0.61820  0.68480  0.47330  1.0000 -0.6708457516
O   O30       1.0  0.10380  0.30530  0.83950  1.0000 -0.690661353
O   O31       1.0  0.67240  0.75380  0.58620  1.0000 -0.6372034372
O   O32       1.0  0.50430  0.59650  0.56440  1.0000 -0.7173005314
O   O33       1.0  0.32870  0.35890  0.77500  1.0000 -0.678882447
O   O34       1.0  0.03900  0.54830  0.80060  1.0000 -0.702786331
O   O35       1.0  0.92860  0.33240  0.77150  1.0000 -0.678882447
O   O36       1.0  0.72360  0.52010  0.68280  1.0000 -0.702786331
O   O37       1.0  0.78950  0.28360  0.63870  1.0000 -0.678882447
O   O38       1.0  0.25930  0.59690  0.73310  1.0000 -0.690661353
O   O39       1.0  0.15340  0.20940  0.70970  1.0000 -0.3755064504
O   O40       1.0  0.32610  0.41820  0.65740  1.0000 -0.6708457516
O   O41       1.0  0.68860  0.37100  0.50470  1.0000 -0.3597484128
O   O42       1.0  0.58370  0.34130  0.63730  1.0000 -0.7061924757
O   O43       1.0  0.38180  0.18480  0.02670  1.0000 -0.6708457516
O   O44       1.0  0.89620  0.80530  0.66050  1.0000 -0.690661353
O   O45       1.0  0.32760  0.25380  0.91380  1.0000 -0.6372034372
O   O46       1.0  0.49570  0.09650  0.93560  1.0000 -0.7173005314
O   O47       1.0  0.67130  0.85890  0.72500  1.0000 -0.678882447
O   O48       1.0  0.96100  0.04830  0.69940  1.0000 -0.702786331
O   O49       1.0  0.07140  0.83240  0.72850  1.0000 -0.678882447
O   O50       1.0  0.27640  0.02010  0.81720  1.0000 -0.702786331
O   O51       1.0  0.21050  0.78360  0.86130  1.0000 -0.678882447
O   O52       1.0  0.74070  0.09690  0.76690  1.0000 -0.690661353
O   O53       1.0  0.84660  0.70940  0.79030  1.0000 -0.3755064504
O   O54       1.0  0.67390  0.91820  0.84260  1.0000 -0.6708457516
O   O55       1.0  0.31140  0.87100  0.99530  1.0000 -0.3597484128
O   O56       1.0  0.41630  0.84130  0.86270  1.0000 -0.7061924757
