# DDEC6 charges by PACMAN v1.1 (https://github.com/mtap-research/PACMAN-charge/)
data_2022[Cu][rtl]3[FSR]1
_chemical_formula_sum              "Cu8 H40 C56 N8 O28"
_cell_length_a       10.697
_cell_length_b       11.948
_cell_length_c       18.0251
_cell_angle_alpha    90
_cell_angle_beta     121.355
_cell_angle_gamma    90

_symmetry_space_group_name_H-M    "P 1"
_symmetry_Int_Tables_number       1

loop_
  _symmetry_equiv_pos_as_xyz
  'x, y, z'

loop_
  _atom_site_type_symbol
  _atom_site_label
  _atom_site_symmetry_multiplicity
  _atom_site_fract_x
  _atom_site_fract_y
  _atom_site_fract_z
  _atom_site_occupancy
  _atom_site_charge
Cu  Cu1       1.0  0.64219  0.51830  0.50802  1.0000 0.9427747791
Cu  Cu2       1.0  0.34812  0.54050  0.31546  1.0000 0.8512454693
Cu  Cu3       1.0  0.35781  0.01830  0.99198  1.0000 0.9427747791
Cu  Cu4       1.0  0.65188  0.04050  0.18454  1.0000 0.8512454693
Cu  Cu5       1.0  0.35781  0.48170  0.49198  1.0000 0.9427747791
Cu  Cu6       1.0  0.65188  0.45950  0.68454  1.0000 0.8512454693
Cu  Cu7       1.0  0.64219  0.98170  0.00802  1.0000 0.9427747791
Cu  Cu8       1.0  0.34812  0.95950  0.81546  1.0000 0.8512454693
H   H1        1.0  0.07924  0.45136  0.59851  1.0000 0.1388433938
H   H2        1.0  0.42873  0.28602  0.78202  1.0000 0.1326123801
H   H3        1.0  0.06170  0.29560  0.78996  1.0000 0.1210744594
H   H4        1.0  0.13890  0.26613  0.95145  1.0000 0.3081136946
H   H5        1.0  0.99215  0.27350  0.94183  1.0000 0.3081136946
H   H6        1.0  0.95182  0.37431  0.04463  1.0000 0.1326123801
H   H7        1.0  0.05254  0.47765  0.16648  1.0000 0.1135333161
H   H8        1.0  0.43795  0.45571  0.19586  1.0000 0.1135333161
H   H9        1.0  0.34758  0.35593  0.07238  1.0000 0.1388433938
H   H10       1.0  0.44000  0.64200  0.44600  1.0000 0.3904699449
H   H11       1.0  0.92076  0.95136  0.90149  1.0000 0.1388433938
H   H12       1.0  0.57127  0.78602  0.71798  1.0000 0.1326123801
H   H13       1.0  0.93830  0.79560  0.71004  1.0000 0.1210744594
H   H14       1.0  0.86110  0.76613  0.54855  1.0000 0.3081136946
H   H15       1.0  0.00785  0.77350  0.55817  1.0000 0.3081136946
H   H16       1.0  0.04818  0.87431  0.45537  1.0000 0.1326123801
H   H17       1.0  0.94746  0.97765  0.33352  1.0000 0.1135333161
H   H18       1.0  0.56205  0.95571  0.30414  1.0000 0.1135333161
H   H19       1.0  0.65242  0.85593  0.42762  1.0000 0.1388433938
H   H20       1.0  0.56000  0.14200  0.05400  1.0000 0.3904699449
H   H21       1.0  0.92076  0.54864  0.40149  1.0000 0.1388433938
H   H22       1.0  0.57127  0.71398  0.21798  1.0000 0.1326123801
H   H23       1.0  0.93830  0.70440  0.21004  1.0000 0.1210744594
H   H24       1.0  0.86110  0.73387  0.04855  1.0000 0.3081136946
H   H25       1.0  0.00785  0.72650  0.05817  1.0000 0.3081136946
H   H26       1.0  0.04818  0.62569  0.95537  1.0000 0.1326123801
H   H27       1.0  0.94746  0.52235  0.83352  1.0000 0.1135333161
H   H28       1.0  0.56205  0.54429  0.80414  1.0000 0.1135333161
H   H29       1.0  0.65242  0.64407  0.92762  1.0000 0.1388433938
H   H30       1.0  0.56000  0.35800  0.55400  1.0000 0.3904699449
H   H31       1.0  0.07924  0.04864  0.09851  1.0000 0.1388433938
H   H32       1.0  0.42873  0.21398  0.28202  1.0000 0.1326123801
H   H33       1.0  0.06170  0.20440  0.28996  1.0000 0.1210744594
H   H34       1.0  0.13890  0.23387  0.45145  1.0000 0.3081136946
H   H35       1.0  0.99215  0.22650  0.44183  1.0000 0.3081136946
H   H36       1.0  0.95182  0.12569  0.54463  1.0000 0.1326123801
H   H37       1.0  0.05254  0.02235  0.66648  1.0000 0.1135333161
H   H38       1.0  0.43795  0.04429  0.69586  1.0000 0.1135333161
H   H39       1.0  0.34758  0.14407  0.57238  1.0000 0.1388433938
H   H40       1.0  0.44000  0.85800  0.94600  1.0000 0.3904699449
C   C1        1.0  0.35770  0.41170  0.64800  1.0000 0.5701455687
C   C2        1.0  0.26990  0.37690  0.68730  1.0000 -0.0310958362
C   C3        1.0  0.89460  0.41920  0.65190  1.0000 0.5701455687
C   C4        1.0  0.12460  0.41010  0.64970  1.0000 -0.1194484225
C   C5        1.0  0.25590  0.27580  0.79740  1.0000 -0.0083785792
C   C6        1.0  0.32560  0.19060  0.86910  1.0000 0.5634285723
C   C7        1.0  0.33260  0.30970  0.75880  1.0000 -0.1142829592
C   C8        1.0  0.04810  0.38030  0.69030  1.0000 -0.0310958362
C   C9        1.0  0.11310  0.31460  0.76310  1.0000 -0.1194484225
C   C10       1.0  0.05140  0.39030  0.07440  1.0000 -0.2668249021
C   C11       1.0  0.11350  0.45150  0.14780  1.0000 0.0678501343
C   C12       1.0  0.14160  0.35050  0.04310  1.0000 0.3081136946
C   C13       1.0  0.33840  0.43950  0.16500  1.0000 0.0802023848
C   C14       1.0  0.28480  0.37860  0.09070  1.0000 -0.2668249021
C   C15       1.0  0.64230  0.91170  0.85200  1.0000 0.5701455687
C   C16       1.0  0.73010  0.87690  0.81270  1.0000 -0.0310958362
C   C17       1.0  0.10540  0.91920  0.84810  1.0000 0.5701455687
C   C18       1.0  0.87540  0.91010  0.85030  1.0000 -0.1194484225
C   C19       1.0  0.74410  0.77580  0.70260  1.0000 -0.0083785792
C   C20       1.0  0.67440  0.69060  0.63090  1.0000 0.5634285723
C   C21       1.0  0.66740  0.80970  0.74120  1.0000 -0.1142829592
C   C22       1.0  0.95190  0.88030  0.80970  1.0000 -0.0310958362
C   C23       1.0  0.88690  0.81460  0.73690  1.0000 -0.1194484225
C   C24       1.0  0.94860  0.89030  0.42560  1.0000 -0.2668249021
C   C25       1.0  0.88650  0.95150  0.35220  1.0000 0.0678501343
C   C26       1.0  0.85840  0.85050  0.45690  1.0000 0.3081136946
C   C27       1.0  0.66160  0.93950  0.33500  1.0000 0.0802023848
C   C28       1.0  0.71520  0.87860  0.40930  1.0000 -0.2668249021
C   C29       1.0  0.64230  0.58830  0.35200  1.0000 0.5701455687
C   C30       1.0  0.73010  0.62310  0.31270  1.0000 -0.0310958362
C   C31       1.0  0.10540  0.58080  0.34810  1.0000 0.5701455687
C   C32       1.0  0.87540  0.58990  0.35030  1.0000 -0.1194484225
C   C33       1.0  0.74410  0.72420  0.20260  1.0000 -0.0083785792
C   C34       1.0  0.67440  0.80940  0.13090  1.0000 0.5634285723
C   C35       1.0  0.66740  0.69030  0.24120  1.0000 -0.1142829592
C   C36       1.0  0.95190  0.61970  0.30970  1.0000 -0.0310958362
C   C37       1.0  0.88690  0.68540  0.23690  1.0000 -0.1194484225
C   C38       1.0  0.94860  0.60970  0.92560  1.0000 -0.2668249021
C   C39       1.0  0.88650  0.54850  0.85220  1.0000 0.0678501343
C   C40       1.0  0.85840  0.64950  0.95690  1.0000 0.3043189709
C   C41       1.0  0.66160  0.56050  0.83500  1.0000 0.0802023848
C   C42       1.0  0.71520  0.62140  0.90930  1.0000 -0.2668249021
C   C43       1.0  0.35770  0.08830  0.14800  1.0000 0.5701455687
C   C44       1.0  0.26990  0.12310  0.18730  1.0000 -0.0310958362
C   C45       1.0  0.89460  0.08080  0.15190  1.0000 0.5701455687
C   C46       1.0  0.12460  0.08990  0.14970  1.0000 -0.1194484225
C   C47       1.0  0.25590  0.22420  0.29740  1.0000 -0.0083785792
C   C48       1.0  0.32560  0.30940  0.36910  1.0000 0.5634285723
C   C49       1.0  0.33260  0.19030  0.25880  1.0000 -0.1142829592
C   C50       1.0  0.04810  0.11970  0.19030  1.0000 -0.0310958362
C   C51       1.0  0.11310  0.18540  0.26310  1.0000 -0.1194484225
C   C52       1.0  0.05140  0.10970  0.57440  1.0000 -0.2668249021
C   C53       1.0  0.11350  0.04850  0.64780  1.0000 0.0678501343
C   C54       1.0  0.14160  0.14950  0.54310  1.0000 0.3043189709
C   C55       1.0  0.33840  0.06050  0.66500  1.0000 0.0802023848
C   C56       1.0  0.28480  0.12140  0.59070  1.0000 -0.2668249021
N   N1        1.0  0.25740  0.47800  0.19690  1.0000 -0.2817807878
N   N2        1.0  0.08390  0.28940  0.97000  1.0000 -0.5460529263
N   N3        1.0  0.74260  0.97800  0.30310  1.0000 -0.2817807878
N   N4        1.0  0.91610  0.78940  0.53000  1.0000 -0.5460529263
N   N5        1.0  0.74260  0.52200  0.80310  1.0000 -0.2817807878
N   N6        1.0  0.91610  0.71060  0.03000  1.0000 -0.5460529263
N   N7        1.0  0.25740  0.02200  0.69690  1.0000 -0.2817807878
N   N8        1.0  0.08390  0.21060  0.47000  1.0000 -0.5460529263
O   O1        1.0  0.44530  0.57510  0.43790  1.0000 -0.7957125838
O   O2        1.0  0.82680  0.44350  0.57320  1.0000 -0.5005432191
O   O3        1.0  0.29160  0.45140  0.57380  1.0000 -0.5005432191
O   O4        1.0  0.84650  0.42710  0.70160  1.0000 -0.5445610221
O   O5        1.0  0.26840  0.17300  0.91400  1.0000 -0.5849419768
O   O6        1.0  0.49250  0.39820  0.69430  1.0000 -0.5342479284
O   O7        1.0  0.42980  0.13620  0.87430  1.0000 -0.6036022837
O   O8        1.0  0.55470  0.07510  0.06210  1.0000 -0.7957125838
O   O9        1.0  0.17320  0.94350  0.92680  1.0000 -0.5005432191
O   O10       1.0  0.70840  0.95140  0.92620  1.0000 -0.5005432191
O   O11       1.0  0.15350  0.92710  0.79840  1.0000 -0.5460529263
O   O12       1.0  0.73160  0.67300  0.58600  1.0000 -0.5849419768
O   O13       1.0  0.50750  0.89820  0.80570  1.0000 -0.5342479284
O   O14       1.0  0.57020  0.63620  0.62570  1.0000 -0.6036022837
O   O15       1.0  0.55470  0.42490  0.56210  1.0000 -0.7957125838
O   O16       1.0  0.17320  0.55650  0.42680  1.0000 -0.5005432191
O   O17       1.0  0.70840  0.54860  0.42620  1.0000 -0.5005432191
O   O18       1.0  0.15350  0.57290  0.29840  1.0000 -0.5445610221
O   O19       1.0  0.73160  0.82700  0.08600  1.0000 -0.5849419768
O   O20       1.0  0.50750  0.60180  0.30570  1.0000 -0.5342479284
O   O21       1.0  0.57020  0.86380  0.12570  1.0000 -0.6036022837
O   O22       1.0  0.44530  0.92490  0.93790  1.0000 -0.7957125838
O   O23       1.0  0.82680  0.05650  0.07320  1.0000 -0.5005432191
O   O24       1.0  0.29160  0.04860  0.07380  1.0000 -0.5005432191
O   O25       1.0  0.84650  0.07290  0.20160  1.0000 -0.5445610221
O   O26       1.0  0.26840  0.32700  0.41400  1.0000 -0.5849419768
O   O27       1.0  0.49250  0.10180  0.19430  1.0000 -0.5342479284
O   O28       1.0  0.42980  0.36380  0.37430  1.0000 -0.6036022837
