# DDEC6 charges by PACMAN v1.1 (https://github.com/mtap-research/PACMAN-charge/)
data_2022[Cu][nan]2[FSR]1
_chemical_formula_sum              "Cu6 C24 O24"
_cell_length_a       12.704
_cell_length_b       12.704
_cell_length_c       6.12
_cell_angle_alpha    79.5929
_cell_angle_beta     100.407
_cell_angle_gamma    118.714

_symmetry_space_group_name_H-M    "P 1"
_symmetry_Int_Tables_number       1

loop_
  _symmetry_equiv_pos_as_xyz
  'x, y, z'

loop_
  _atom_site_type_symbol
  _atom_site_label
  _atom_site_symmetry_multiplicity
  _atom_site_fract_x
  _atom_site_fract_y
  _atom_site_fract_z
  _atom_site_occupancy
  _atom_site_charge
Cu  Cu1       1.0  0.02252  0.47568  0.27890  1.0000 0.831128524
Cu  Cu2       1.0  0.47568  0.02252  0.72110  1.0000 0.831128524
Cu  Cu3       1.0  0.97748  0.52432  0.72110  1.0000 0.831128524
Cu  Cu4       1.0  0.52432  0.97748  0.27890  1.0000 0.831128524
Cu  Cu5       1.0  0.02160  0.97840  0.79040  1.0000 0.7971489293
Cu  Cu6       1.0  0.97840  0.02160  0.20960  1.0000 0.7971489293
C   C1        1.0  0.85090  0.26110  0.38900  1.0000 0.1708407396
C   C2        1.0  0.19080  0.70420  0.21900  1.0000 0.1545243425
C   C3        1.0  0.08000  0.70380  0.11000  1.0000 0.1290652969
C   C4        1.0  0.07770  0.80850  0.00900  1.0000 0.1708407396
C   C5        1.0  0.96020  0.14980  0.59700  1.0000 0.1422464711
C   C6        1.0  0.96040  0.25820  0.49100  1.0000 0.1557325375
C   C7        1.0  0.26110  0.85090  0.61100  1.0000 0.1708407396
C   C8        1.0  0.70420  0.19080  0.78100  1.0000 0.1545243425
C   C9        1.0  0.70380  0.08000  0.89000  1.0000 0.1290652969
C   C10       1.0  0.80850  0.07770  0.99100  1.0000 0.1708407396
C   C11       1.0  0.14980  0.96020  0.40300  1.0000 0.1422464711
C   C12       1.0  0.25820  0.96040  0.50900  1.0000 0.1557325375
C   C13       1.0  0.14910  0.73890  0.61100  1.0000 0.1708407396
C   C14       1.0  0.80920  0.29580  0.78100  1.0000 0.1545243425
C   C15       1.0  0.92000  0.29620  0.89000  1.0000 0.1290652969
C   C16       1.0  0.92230  0.19150  0.99100  1.0000 0.1708407396
C   C17       1.0  0.03980  0.85020  0.40300  1.0000 0.1422464711
C   C18       1.0  0.03960  0.74180  0.50900  1.0000 0.1557325375
C   C19       1.0  0.73890  0.14910  0.38900  1.0000 0.1708407396
C   C20       1.0  0.29580  0.80920  0.21900  1.0000 0.1557325375
C   C21       1.0  0.29620  0.92000  0.11000  1.0000 0.1290652969
C   C22       1.0  0.19150  0.92230  0.00900  1.0000 0.1708407396
C   C23       1.0  0.85020  0.03980  0.59700  1.0000 0.1422464711
C   C24       1.0  0.74180  0.03960  0.49100  1.0000 0.1557325375
O   O1        1.0  0.18670  0.60030  0.29300  1.0000 -0.3426190031
O   O2        1.0  0.98640  0.59860  0.10300  1.0000 -0.410043894
O   O3        1.0  0.98690  0.81630  0.90500  1.0000 -0.3426190031
O   O4        1.0  0.05770  0.14210  0.68100  1.0000 -0.3576771306
O   O5        1.0  0.05850  0.35670  0.47000  1.0000 -0.3426190031
O   O6        1.0  0.85770  0.35870  0.28600  1.0000 -0.3576771306
O   O7        1.0  0.60030  0.18670  0.70700  1.0000 -0.3426190031
O   O8        1.0  0.59860  0.98640  0.89700  1.0000 -0.410043894
O   O9        1.0  0.81630  0.98690  0.09500  1.0000 -0.3426190031
O   O10       1.0  0.14210  0.05770  0.31900  1.0000 -0.3576771306
O   O11       1.0  0.35670  0.05850  0.53000  1.0000 -0.3426190031
O   O12       1.0  0.35870  0.85770  0.71400  1.0000 -0.3576771306
O   O13       1.0  0.81330  0.39970  0.70700  1.0000 -0.3426190031
O   O14       1.0  0.01360  0.40140  0.89700  1.0000 -0.410043894
O   O15       1.0  0.01310  0.18370  0.09500  1.0000 -0.3426190031
O   O16       1.0  0.94230  0.85790  0.31900  1.0000 -0.3576771306
O   O17       1.0  0.94150  0.64330  0.53000  1.0000 -0.3426190031
O   O18       1.0  0.14230  0.64130  0.71400  1.0000 -0.3576771306
O   O19       1.0  0.39970  0.81330  0.29300  1.0000 -0.3426190031
O   O20       1.0  0.40140  0.01360  0.10300  1.0000 -0.410043894
O   O21       1.0  0.18370  0.01310  0.90500  1.0000 -0.3426190031
O   O22       1.0  0.85790  0.94230  0.68100  1.0000 -0.3576771306
O   O23       1.0  0.64330  0.94150  0.47000  1.0000 -0.3426190031
O   O24       1.0  0.64130  0.14230  0.28600  1.0000 -0.3576771306
