# DDEC6 charges by PACMAN v1.1 (https://github.com/mtap-research/PACMAN-charge/)
data_2022[Cu][tbo]3[FSR]6
_chemical_formula_sum              "Cu12 H48 C72 O60"
_cell_length_a       18.558
_cell_length_b       18.558
_cell_length_c       18.558
_cell_angle_alpha    60
_cell_angle_beta     60
_cell_angle_gamma    60

_symmetry_space_group_name_H-M    "P 1"
_symmetry_Int_Tables_number       1

loop_
  _symmetry_equiv_pos_as_xyz
  'x, y, z'

loop_
  _atom_site_type_symbol
  _atom_site_label
  _atom_site_symmetry_multiplicity
  _atom_site_fract_x
  _atom_site_fract_y
  _atom_site_fract_z
  _atom_site_occupancy
  _atom_site_charge
Cu  Cu1       1.0  0.57090  0.42910  0.00000  1.0000 0.8760088073
Cu  Cu2       1.0  0.42910  0.57090  0.00000  1.0000 0.8760088073
Cu  Cu3       1.0  0.00000  0.00000  0.57090  1.0000 0.8749244647
Cu  Cu4       1.0  0.00000  0.00000  0.42910  1.0000 0.8749244647
Cu  Cu5       1.0  0.00000  0.57090  0.42910  1.0000 0.8760088073
Cu  Cu6       1.0  0.00000  0.42910  0.57090  1.0000 0.8749244647
Cu  Cu7       1.0  0.57090  0.00000  0.00000  1.0000 0.8760088073
Cu  Cu8       1.0  0.42910  0.00000  0.00000  1.0000 0.8760088073
Cu  Cu9       1.0  0.42910  0.00000  0.57090  1.0000 0.8760088073
Cu  Cu10      1.0  0.57090  0.00000  0.42910  1.0000 0.8760088073
Cu  Cu11      1.0  0.00000  0.57090  0.00000  1.0000 0.8760088073
Cu  Cu12      1.0  0.00000  0.42910  0.00000  1.0000 0.8749244647
H   H1        1.0  0.51459  0.73043  0.02455  1.0000 0.1301918283
H   H2        1.0  0.73043  0.51459  0.73043  1.0000 0.1301918283
H   H3        1.0  0.02455  0.73043  0.51459  1.0000 0.1301918283
H   H4        1.0  0.73043  0.02455  0.73043  1.0000 0.1301918283
H   H5        1.0  0.02455  0.51459  0.73043  1.0000 0.1301918283
H   H6        1.0  0.73043  0.73043  0.51459  1.0000 0.1301918283
H   H7        1.0  0.51459  0.02455  0.73043  1.0000 0.1301918283
H   H8        1.0  0.73043  0.73043  0.02455  1.0000 0.1301918283
H   H9        1.0  0.73043  0.02455  0.51459  1.0000 0.1301918283
H   H10       1.0  0.51459  0.73043  0.73043  1.0000 0.1301918283
H   H11       1.0  0.73043  0.51459  0.02455  1.0000 0.1301918283
H   H12       1.0  0.02455  0.73043  0.73043  1.0000 0.1301918283
H   H13       1.0  0.48541  0.26957  0.26957  1.0000 0.1301918283
H   H14       1.0  0.26957  0.48541  0.97545  1.0000 0.1301918283
H   H15       1.0  0.97545  0.26957  0.26957  1.0000 0.1301918283
H   H16       1.0  0.26957  0.97545  0.48541  1.0000 0.1301918283
H   H17       1.0  0.97545  0.48541  0.26957  1.0000 0.1301918283
H   H18       1.0  0.26957  0.26957  0.97545  1.0000 0.1301918283
H   H19       1.0  0.48541  0.97545  0.26957  1.0000 0.1301918283
H   H20       1.0  0.26957  0.26957  0.48541  1.0000 0.1301918283
H   H21       1.0  0.26957  0.97545  0.26957  1.0000 0.1301918283
H   H22       1.0  0.48541  0.26957  0.97545  1.0000 0.1301918283
H   H23       1.0  0.26957  0.48541  0.26957  1.0000 0.1301918283
H   H24       1.0  0.97545  0.26957  0.48541  1.0000 0.1301918283
H   H25       1.0  0.71450  0.28550  0.95890  1.0000 0.409987791
H   H26       1.0  0.28550  0.71450  0.04110  1.0000 0.409987791
H   H27       1.0  0.95890  0.04110  0.71450  1.0000 0.409987791
H   H28       1.0  0.04110  0.95890  0.28550  1.0000 0.409987791
H   H29       1.0  0.95890  0.71450  0.28550  1.0000 0.409987791
H   H30       1.0  0.04110  0.28550  0.71450  1.0000 0.409987791
H   H31       1.0  0.71450  0.95890  0.04110  1.0000 0.409987791
H   H32       1.0  0.28550  0.04110  0.95890  1.0000 0.409987791
H   H33       1.0  0.28550  0.95890  0.71450  1.0000 0.409987791
H   H34       1.0  0.71450  0.04110  0.28550  1.0000 0.409987791
H   H35       1.0  0.04110  0.71450  0.95890  1.0000 0.409987791
H   H36       1.0  0.95890  0.28550  0.04110  1.0000 0.409987791
H   H37       1.0  0.28550  0.71450  0.95890  1.0000 0.409987791
H   H38       1.0  0.71450  0.28550  0.04110  1.0000 0.409987791
H   H39       1.0  0.04110  0.95890  0.71450  1.0000 0.409987791
H   H40       1.0  0.95890  0.04110  0.28550  1.0000 0.409987791
H   H41       1.0  0.04110  0.28550  0.95890  1.0000 0.409987791
H   H42       1.0  0.95890  0.71450  0.04110  1.0000 0.409987791
H   H43       1.0  0.28550  0.04110  0.71450  1.0000 0.409987791
H   H44       1.0  0.71450  0.95890  0.28550  1.0000 0.409987791
H   H45       1.0  0.71450  0.04110  0.95890  1.0000 0.409987791
H   H46       1.0  0.28550  0.95890  0.04110  1.0000 0.409987791
H   H47       1.0  0.95890  0.28550  0.71450  1.0000 0.409987791
H   H48       1.0  0.04110  0.71450  0.28550  1.0000 0.409987791
C   C1        1.0  0.57020  0.57020  0.02020  1.0000 0.5753701763
C   C2        1.0  0.61420  0.61420  0.02860  1.0000 -0.0235068295
C   C3        1.0  0.57020  0.57020  0.83940  1.0000 0.5753701763
C   C4        1.0  0.61420  0.61420  0.74300  1.0000 -0.0235068295
C   C5        1.0  0.02020  0.83940  0.57020  1.0000 0.5753701763
C   C6        1.0  0.02860  0.74300  0.61420  1.0000 -0.0235068295
C   C7        1.0  0.83940  0.02020  0.57020  1.0000 0.5753701763
C   C8        1.0  0.74300  0.02860  0.61420  1.0000 -0.0235068295
C   C9        1.0  0.02020  0.57020  0.57020  1.0000 0.5753701763
C   C10       1.0  0.02860  0.61420  0.61420  1.0000 -0.0235068295
C   C11       1.0  0.83940  0.57020  0.57020  1.0000 0.5747467713
C   C12       1.0  0.74300  0.61420  0.61420  1.0000 -0.0235068295
C   C13       1.0  0.57020  0.02020  0.83940  1.0000 0.5753701763
C   C14       1.0  0.61420  0.02860  0.74300  1.0000 -0.0235068295
C   C15       1.0  0.57020  0.83940  0.02020  1.0000 0.5753701763
C   C16       1.0  0.61420  0.74300  0.02860  1.0000 -0.0235068295
C   C17       1.0  0.57020  0.02020  0.57020  1.0000 0.5753701763
C   C18       1.0  0.61420  0.02860  0.61420  1.0000 -0.0235068295
C   C19       1.0  0.57020  0.83940  0.57020  1.0000 0.5753701763
C   C20       1.0  0.61420  0.74300  0.61420  1.0000 -0.0235068295
C   C21       1.0  0.83940  0.57020  0.02020  1.0000 0.5747467713
C   C22       1.0  0.74300  0.61420  0.02860  1.0000 -0.0235068295
C   C23       1.0  0.02020  0.57020  0.83940  1.0000 0.5753701763
C   C24       1.0  0.02860  0.61420  0.74300  1.0000 -0.0235068295
C   C25       1.0  0.42980  0.42980  0.16060  1.0000 0.5753701763
C   C26       1.0  0.38580  0.38580  0.25700  1.0000 -0.0235068295
C   C27       1.0  0.42980  0.42980  0.97980  1.0000 0.5753701763
C   C28       1.0  0.38580  0.38580  0.97140  1.0000 -0.0235068295
C   C29       1.0  0.97980  0.16060  0.42980  1.0000 0.5753701763
C   C30       1.0  0.97140  0.25700  0.38580  1.0000 -0.0235068295
C   C31       1.0  0.16060  0.97980  0.42980  1.0000 0.5753701763
C   C32       1.0  0.25700  0.97140  0.38580  1.0000 -0.0235068295
C   C33       1.0  0.97980  0.42980  0.16060  1.0000 0.5753701763
C   C34       1.0  0.97140  0.38580  0.25700  1.0000 -0.0235068295
C   C35       1.0  0.16060  0.42980  0.97980  1.0000 0.5747467713
C   C36       1.0  0.25700  0.38580  0.97140  1.0000 -0.0235068295
C   C37       1.0  0.42980  0.97980  0.42980  1.0000 0.5753701763
C   C38       1.0  0.38580  0.97140  0.38580  1.0000 -0.0235068295
C   C39       1.0  0.42980  0.16060  0.42980  1.0000 0.5753701763
C   C40       1.0  0.38580  0.25700  0.38580  1.0000 -0.0235068295
C   C41       1.0  0.42980  0.97980  0.16060  1.0000 0.5753701763
C   C42       1.0  0.38580  0.97140  0.25700  1.0000 -0.0235068295
C   C43       1.0  0.42980  0.16060  0.97980  1.0000 0.5753701763
C   C44       1.0  0.38580  0.25700  0.97140  1.0000 -0.0235068295
C   C45       1.0  0.16060  0.42980  0.42980  1.0000 0.5753701763
C   C46       1.0  0.25700  0.38580  0.38580  1.0000 -0.0235068295
C   C47       1.0  0.97980  0.42980  0.42980  1.0000 0.5753701763
C   C48       1.0  0.97140  0.38580  0.38580  1.0000 -0.0235068295
C   C49       1.0  0.57160  0.70080  0.02680  1.0000 -0.0987352574
C   C50       1.0  0.70080  0.57160  0.70080  1.0000 -0.0987352574
C   C51       1.0  0.02680  0.70080  0.57160  1.0000 -0.0987352574
C   C52       1.0  0.70080  0.02680  0.70080  1.0000 -0.0987352574
C   C53       1.0  0.02680  0.57160  0.70080  1.0000 -0.0987352574
C   C54       1.0  0.70080  0.70080  0.57160  1.0000 -0.0987352574
C   C55       1.0  0.57160  0.02680  0.70080  1.0000 -0.0987352574
C   C56       1.0  0.70080  0.70080  0.02680  1.0000 -0.0987352574
C   C57       1.0  0.70080  0.02680  0.57160  1.0000 -0.0987352574
C   C58       1.0  0.57160  0.70080  0.70080  1.0000 -0.0987352574
C   C59       1.0  0.70080  0.57160  0.02680  1.0000 -0.0987352574
C   C60       1.0  0.02680  0.70080  0.70080  1.0000 -0.0987352574
C   C61       1.0  0.42840  0.29920  0.29920  1.0000 -0.0987352574
C   C62       1.0  0.29920  0.42840  0.97320  1.0000 -0.0987352574
C   C63       1.0  0.97320  0.29920  0.29920  1.0000 -0.0987352574
C   C64       1.0  0.29920  0.97320  0.42840  1.0000 -0.0987352574
C   C65       1.0  0.97320  0.42840  0.29920  1.0000 -0.0987352574
C   C66       1.0  0.29920  0.29920  0.97320  1.0000 -0.0987352574
C   C67       1.0  0.42840  0.97320  0.29920  1.0000 -0.0987352574
C   C68       1.0  0.29920  0.29920  0.42840  1.0000 -0.0987352574
C   C69       1.0  0.29920  0.97320  0.29920  1.0000 -0.0987352574
C   C70       1.0  0.42840  0.29920  0.97320  1.0000 -0.0987352574
C   C71       1.0  0.29920  0.42840  0.29920  1.0000 -0.0987352574
C   C72       1.0  0.97320  0.29920  0.42840  1.0000 -0.0987352574
O   O1        1.0  0.61320  0.49040  0.02140  1.0000 -0.5358997733
O   O2        1.0  0.49040  0.61320  0.87500  1.0000 -0.5358997733
O   O3        1.0  0.02140  0.87500  0.61320  1.0000 -0.5358997733
O   O4        1.0  0.87500  0.02140  0.49040  1.0000 -0.5358997733
O   O5        1.0  0.02140  0.61320  0.49040  1.0000 -0.5358997733
O   O6        1.0  0.87500  0.49040  0.61320  1.0000 -0.5358997733
O   O7        1.0  0.61320  0.02140  0.87500  1.0000 -0.5358997733
O   O8        1.0  0.49040  0.87500  0.02140  1.0000 -0.5358997733
O   O9        1.0  0.49040  0.02140  0.61320  1.0000 -0.5358997733
O   O10       1.0  0.61320  0.87500  0.49040  1.0000 -0.5358997733
O   O11       1.0  0.87500  0.61320  0.02140  1.0000 -0.5358997733
O   O12       1.0  0.02140  0.49040  0.87500  1.0000 -0.5358997733
O   O13       1.0  0.38680  0.50960  0.12500  1.0000 -0.5358997733
O   O14       1.0  0.50960  0.38680  0.97860  1.0000 -0.5358997733
O   O15       1.0  0.97860  0.12500  0.50960  1.0000 -0.5358997733
O   O16       1.0  0.12500  0.97860  0.38680  1.0000 -0.5358997733
O   O17       1.0  0.97860  0.38680  0.12500  1.0000 -0.5358997733
O   O18       1.0  0.12500  0.50960  0.97860  1.0000 -0.5358997733
O   O19       1.0  0.38680  0.97860  0.50960  1.0000 -0.5358997733
O   O20       1.0  0.50960  0.12500  0.38680  1.0000 -0.5358997733
O   O21       1.0  0.50960  0.97860  0.12500  1.0000 -0.5358997733
O   O22       1.0  0.38680  0.12500  0.97860  1.0000 -0.5358997733
O   O23       1.0  0.12500  0.38680  0.50960  1.0000 -0.5358997733
O   O24       1.0  0.97860  0.50960  0.38680  1.0000 -0.5358997733
O   O25       1.0  0.38680  0.50960  0.97860  1.0000 -0.5358997733
O   O26       1.0  0.50960  0.38680  0.12500  1.0000 -0.5358997733
O   O27       1.0  0.97860  0.12500  0.38680  1.0000 -0.5358997733
O   O28       1.0  0.12500  0.97860  0.50960  1.0000 -0.5358997733
O   O29       1.0  0.97860  0.38680  0.50960  1.0000 -0.5358997733
O   O30       1.0  0.12500  0.50960  0.38680  1.0000 -0.5358997733
O   O31       1.0  0.38680  0.97860  0.12500  1.0000 -0.5358997733
O   O32       1.0  0.50960  0.12500  0.97860  1.0000 -0.5358997733
O   O33       1.0  0.50960  0.97860  0.38680  1.0000 -0.5358997733
O   O34       1.0  0.38680  0.12500  0.50960  1.0000 -0.5358997733
O   O35       1.0  0.12500  0.38680  0.97860  1.0000 -0.5358997733
O   O36       1.0  0.97860  0.50960  0.12500  1.0000 -0.5358997733
O   O37       1.0  0.61320  0.49040  0.87500  1.0000 -0.5358997733
O   O38       1.0  0.49040  0.61320  0.02140  1.0000 -0.5358997733
O   O39       1.0  0.02140  0.87500  0.49040  1.0000 -0.5358997733
O   O40       1.0  0.87500  0.02140  0.61320  1.0000 -0.5358997733
O   O41       1.0  0.02140  0.61320  0.87500  1.0000 -0.5358997733
O   O42       1.0  0.87500  0.49040  0.02140  1.0000 -0.5358997733
O   O43       1.0  0.61320  0.02140  0.49040  1.0000 -0.5358997733
O   O44       1.0  0.49040  0.87500  0.61320  1.0000 -0.5358997733
O   O45       1.0  0.49040  0.02140  0.87500  1.0000 -0.5358997733
O   O46       1.0  0.61320  0.87500  0.02140  1.0000 -0.5358997733
O   O47       1.0  0.87500  0.61320  0.49040  1.0000 -0.5358997733
O   O48       1.0  0.02140  0.49040  0.61320  1.0000 -0.5358997733
O   O49       1.0  0.68680  0.31320  0.00000  1.0000 -0.7185078326
O   O50       1.0  0.31320  0.68680  0.00000  1.0000 -0.7185078326
O   O51       1.0  0.00000  0.00000  0.68680  1.0000 -0.7185078326
O   O52       1.0  0.00000  0.00000  0.31320  1.0000 -0.7185078326
O   O53       1.0  0.00000  0.68680  0.31320  1.0000 -0.7185078326
O   O54       1.0  0.00000  0.31320  0.68680  1.0000 -0.7185078326
O   O55       1.0  0.68680  0.00000  0.00000  1.0000 -0.7185078326
O   O56       1.0  0.31320  0.00000  0.00000  1.0000 -0.7185078326
O   O57       1.0  0.31320  0.00000  0.68680  1.0000 -0.7185078326
O   O58       1.0  0.68680  0.00000  0.31320  1.0000 -0.7185078326
O   O59       1.0  0.00000  0.68680  0.00000  1.0000 -0.7185078326
O   O60       1.0  0.00000  0.31320  0.00000  1.0000 -0.7185078326
