# DDEC6 charges by PACMAN v1.1 (https://github.com/mtap-research/PACMAN-charge/)
data_2022[Zn][nan]3[FSR]23
_chemical_formula_sum              "Zn12 H48 C78 N24 O36"
_cell_length_a       21.0015
_cell_length_b       21.0015
_cell_length_c       21.0015
_cell_angle_alpha    116.148
_cell_angle_beta     116.148
_cell_angle_gamma    116.148

_symmetry_space_group_name_H-M    "P 1"
_symmetry_Int_Tables_number       1

loop_
  _symmetry_equiv_pos_as_xyz
  'x, y, z'

loop_
  _atom_site_type_symbol
  _atom_site_label
  _atom_site_symmetry_multiplicity
  _atom_site_fract_x
  _atom_site_fract_y
  _atom_site_fract_z
  _atom_site_occupancy
  _atom_site_charge
Zn  Zn1       1.0  0.46063  0.54848  0.98933  1.0000 0.8196488433
Zn  Zn2       1.0  0.35388  0.55288  0.81073  1.0000 0.7842987093
Zn  Zn3       1.0  0.54848  0.98933  0.46063  1.0000 0.8196488433
Zn  Zn4       1.0  0.55288  0.81073  0.35388  1.0000 0.7842987093
Zn  Zn5       1.0  0.98933  0.46063  0.54848  1.0000 0.8196488433
Zn  Zn6       1.0  0.81073  0.35388  0.55288  1.0000 0.7842987093
Zn  Zn7       1.0  0.53937  0.45152  0.01067  1.0000 0.8196488433
Zn  Zn8       1.0  0.64612  0.44712  0.18927  1.0000 0.7842987093
Zn  Zn9       1.0  0.45152  0.01067  0.53937  1.0000 0.8196488433
Zn  Zn10      1.0  0.44712  0.18927  0.64612  1.0000 0.7842987093
Zn  Zn11      1.0  0.01067  0.53937  0.45152  1.0000 0.8196488433
Zn  Zn12      1.0  0.18927  0.64612  0.44712  1.0000 0.7842987093
H   H1        1.0  0.13460  0.28010  0.80350  1.0000 0.1113545765
H   H2        1.0  0.94480  0.12150  0.68570  1.0000 0.1246705416
H   H3        1.0  0.04810  0.38450  0.70670  1.0000 0.1113545765
H   H4        1.0  0.86460  0.23850  0.60690  1.0000 0.1113545765
H   H5        1.0  0.66400  0.59920  0.35750  1.0000 0.1246705416
H   H6        1.0  0.48390  0.67700  0.15320  1.0000 0.1113545765
H   H7        1.0  0.63800  0.63100  0.05800  1.0000 0.2993783368
H   H8        1.0  0.67210  0.67020  0.14670  1.0000 0.2993783368
H   H9        1.0  0.28010  0.80350  0.13460  1.0000 0.1113545765
H   H10       1.0  0.12150  0.68570  0.94480  1.0000 0.1246705416
H   H11       1.0  0.38450  0.70670  0.04810  1.0000 0.1113545765
H   H12       1.0  0.23850  0.60690  0.86460  1.0000 0.1113545765
H   H13       1.0  0.59920  0.35750  0.66400  1.0000 0.1246705416
H   H14       1.0  0.67700  0.15320  0.48390  1.0000 0.1113545765
H   H15       1.0  0.63100  0.05800  0.63800  1.0000 0.2993783368
H   H16       1.0  0.67020  0.14670  0.67210  1.0000 0.2993783368
H   H17       1.0  0.80350  0.13460  0.28010  1.0000 0.1113545765
H   H18       1.0  0.68570  0.94480  0.12150  1.0000 0.1246705416
H   H19       1.0  0.70670  0.04810  0.38450  1.0000 0.1113545765
H   H20       1.0  0.60690  0.86460  0.23850  1.0000 0.1113545765
H   H21       1.0  0.35750  0.66400  0.59920  1.0000 0.1246705416
H   H22       1.0  0.15320  0.48390  0.67700  1.0000 0.1113545765
H   H23       1.0  0.05800  0.63800  0.63100  1.0000 0.2993783368
H   H24       1.0  0.14670  0.67210  0.67020  1.0000 0.2993783368
H   H25       1.0  0.86540  0.71990  0.19650  1.0000 0.1113545765
H   H26       1.0  0.05520  0.87850  0.31430  1.0000 0.1246705416
H   H27       1.0  0.95190  0.61550  0.29330  1.0000 0.1113545765
H   H28       1.0  0.13540  0.76150  0.39310  1.0000 0.1113545765
H   H29       1.0  0.33600  0.40080  0.64250  1.0000 0.1246705416
H   H30       1.0  0.51610  0.32300  0.84680  1.0000 0.1113545765
H   H31       1.0  0.36200  0.36900  0.94200  1.0000 0.2993783368
H   H32       1.0  0.32790  0.32980  0.85330  1.0000 0.2993783368
H   H33       1.0  0.71990  0.19650  0.86540  1.0000 0.1113545765
H   H34       1.0  0.87850  0.31430  0.05520  1.0000 0.1246705416
H   H35       1.0  0.61550  0.29330  0.95190  1.0000 0.1113545765
H   H36       1.0  0.76150  0.39310  0.13540  1.0000 0.1113545765
H   H37       1.0  0.40080  0.64250  0.33600  1.0000 0.1246705416
H   H38       1.0  0.32300  0.84680  0.51610  1.0000 0.1113545765
H   H39       1.0  0.36900  0.94200  0.36200  1.0000 0.2993783368
H   H40       1.0  0.32980  0.85330  0.32790  1.0000 0.2993783368
H   H41       1.0  0.19650  0.86540  0.71990  1.0000 0.1113545765
H   H42       1.0  0.31430  0.05520  0.87850  1.0000 0.1246705416
H   H43       1.0  0.29330  0.95190  0.61550  1.0000 0.1113545765
H   H44       1.0  0.39310  0.13540  0.76150  1.0000 0.1113545765
H   H45       1.0  0.64250  0.33600  0.40080  1.0000 0.1246705416
H   H46       1.0  0.84680  0.51610  0.32300  1.0000 0.1113545765
H   H47       1.0  0.94200  0.36200  0.36900  1.0000 0.2993783368
H   H48       1.0  0.85330  0.32790  0.32980  1.0000 0.2993783368
C   C1        1.0  0.22746  0.43866  0.82778  1.0000 0.5928835187
C   C2        1.0  0.10886  0.34518  0.76326  1.0000 -0.0176229237
C   C3        1.0  0.07842  0.26876  0.75942  1.0000 -0.1095802907
C   C4        1.0  0.96640  0.17613  0.69167  1.0000 -0.0999622897
C   C5        1.0  0.02800  0.33250  0.70440  1.0000 -0.0999622897
C   C6        1.0  0.76141  0.05886  0.55043  1.0000 0.5928835187
C   C7        1.0  0.88559  0.16295  0.63236  1.0000 -0.0176229237
C   C8        1.0  0.91808  0.24388  0.64254  1.0000 -0.1095802907
C   C9        1.0  0.63353  0.58598  0.29739  1.0000 0.0367837611
C   C10       1.0  0.59479  0.69307  0.33284  1.0000 0.5041959199
C   C11       1.0  0.51474  0.66362  0.18554  1.0000 0.2758205397
C   C12       1.0  0.56066  0.58463  0.18171  1.0000 0.2866198632
C   C13       1.0  0.59822  0.62568  0.27890  1.0000 -0.1801158648
C   C14       1.0  0.43866  0.82778  0.22746  1.0000 0.5928835187
C   C15       1.0  0.34518  0.76326  0.10886  1.0000 -0.0176229237
C   C16       1.0  0.26876  0.75942  0.07842  1.0000 -0.1095802907
C   C17       1.0  0.17613  0.69167  0.96640  1.0000 -0.0999622897
C   C18       1.0  0.33250  0.70440  0.02800  1.0000 -0.0999622897
C   C19       1.0  0.05886  0.55043  0.76141  1.0000 0.5928835187
C   C20       1.0  0.16295  0.63236  0.88559  1.0000 -0.0176229237
C   C21       1.0  0.24388  0.64254  0.91808  1.0000 -0.1095802907
C   C22       1.0  0.58598  0.29739  0.63353  1.0000 0.0367837611
C   C23       1.0  0.69307  0.33284  0.59479  1.0000 0.5041959199
C   C24       1.0  0.66362  0.18554  0.51474  1.0000 0.2758205397
C   C25       1.0  0.58463  0.18171  0.56066  1.0000 0.2866198632
C   C26       1.0  0.62568  0.27890  0.59822  1.0000 -0.1801158648
C   C27       1.0  0.82778  0.22746  0.43866  1.0000 0.5928835187
C   C28       1.0  0.76326  0.10886  0.34518  1.0000 -0.0176229237
C   C29       1.0  0.75942  0.07842  0.26876  1.0000 -0.1095802907
C   C30       1.0  0.69167  0.96640  0.17613  1.0000 -0.0999622897
C   C31       1.0  0.70440  0.02800  0.33250  1.0000 -0.0999622897
C   C32       1.0  0.55043  0.76141  0.05886  1.0000 0.5928835187
C   C33       1.0  0.63236  0.88559  0.16295  1.0000 -0.0176229237
C   C34       1.0  0.64254  0.91808  0.24388  1.0000 -0.1095802907
C   C35       1.0  0.29739  0.63353  0.58598  1.0000 0.0367837611
C   C36       1.0  0.33284  0.59479  0.69307  1.0000 0.5041959199
C   C37       1.0  0.18554  0.51474  0.66362  1.0000 0.2758205397
C   C38       1.0  0.18171  0.56066  0.58463  1.0000 0.2866198632
C   C39       1.0  0.27890  0.59822  0.62568  1.0000 -0.1801158648
C   C40       1.0  0.77254  0.56134  0.17222  1.0000 0.5928835187
C   C41       1.0  0.89114  0.65482  0.23674  1.0000 -0.0176229237
C   C42       1.0  0.92158  0.73124  0.24058  1.0000 -0.1095802907
C   C43       1.0  0.03360  0.82387  0.30833  1.0000 -0.0999622897
C   C44       1.0  0.97200  0.66750  0.29560  1.0000 -0.0999622897
C   C45       1.0  0.23859  0.94114  0.44957  1.0000 0.5928835187
C   C46       1.0  0.11441  0.83705  0.36764  1.0000 -0.0176229237
C   C47       1.0  0.08192  0.75612  0.35746  1.0000 -0.1095802907
C   C48       1.0  0.36647  0.41402  0.70261  1.0000 0.0367837611
C   C49       1.0  0.40521  0.30693  0.66716  1.0000 0.5041959199
C   C50       1.0  0.48526  0.33638  0.81446  1.0000 0.2758205397
C   C51       1.0  0.43934  0.41537  0.81829  1.0000 0.2866198632
C   C52       1.0  0.40178  0.37432  0.72110  1.0000 -0.1801158648
C   C53       1.0  0.56134  0.17222  0.77254  1.0000 0.5928835187
C   C54       1.0  0.65482  0.23674  0.89114  1.0000 -0.0176229237
C   C55       1.0  0.73124  0.24058  0.92158  1.0000 -0.1095802907
C   C56       1.0  0.82387  0.30833  0.03360  1.0000 -0.0999622897
C   C57       1.0  0.66750  0.29560  0.97200  1.0000 -0.0999622897
C   C58       1.0  0.94114  0.44957  0.23859  1.0000 0.5928835187
C   C59       1.0  0.83705  0.36764  0.11441  1.0000 -0.0176229237
C   C60       1.0  0.75612  0.35746  0.08192  1.0000 -0.1095802907
C   C61       1.0  0.41402  0.70261  0.36647  1.0000 0.0367837611
C   C62       1.0  0.30693  0.66716  0.40521  1.0000 0.5041959199
C   C63       1.0  0.33638  0.81446  0.48526  1.0000 0.2758205397
C   C64       1.0  0.41537  0.81829  0.43934  1.0000 0.2866198632
C   C65       1.0  0.37432  0.72110  0.40178  1.0000 -0.1801158648
C   C66       1.0  0.17222  0.77254  0.56134  1.0000 0.5928835187
C   C67       1.0  0.23674  0.89114  0.65482  1.0000 -0.0176229237
C   C68       1.0  0.24058  0.92158  0.73124  1.0000 -0.1095802907
C   C69       1.0  0.30833  0.03360  0.82387  1.0000 -0.0999622897
C   C70       1.0  0.29560  0.97200  0.66750  1.0000 -0.0999622897
C   C71       1.0  0.44957  0.23859  0.94114  1.0000 0.5928835187
C   C72       1.0  0.36764  0.11441  0.83705  1.0000 -0.0176229237
C   C73       1.0  0.35746  0.08192  0.75612  1.0000 -0.1095802907
C   C74       1.0  0.70261  0.36647  0.41402  1.0000 0.0367837611
C   C75       1.0  0.66716  0.40521  0.30693  1.0000 0.5041959199
C   C76       1.0  0.81446  0.48526  0.33638  1.0000 0.2758205397
C   C77       1.0  0.81829  0.43934  0.41537  1.0000 0.2866198632
C   C78       1.0  0.72110  0.40178  0.37432  1.0000 -0.1801158648
N   N1        1.0  0.57261  0.52556  0.14453  1.0000 -0.3480997966
N   N2        1.0  0.61737  0.52700  0.21743  1.0000 -0.1801158648
N   N3        1.0  0.55088  0.70908  0.28004  1.0000 -0.4263606605
N   N4        1.0  0.51685  0.60261  0.13194  1.0000 -0.396730819
N   N5        1.0  0.52556  0.14453  0.57261  1.0000 -0.3480997966
N   N6        1.0  0.52700  0.21743  0.61737  1.0000 -0.1801158648
N   N7        1.0  0.70908  0.28004  0.55088  1.0000 -0.4263606605
N   N8        1.0  0.60261  0.13194  0.51685  1.0000 -0.396730819
N   N9        1.0  0.14453  0.57261  0.52556  1.0000 -0.3480997966
N   N10       1.0  0.21743  0.61737  0.52700  1.0000 -0.1801158648
N   N11       1.0  0.28004  0.55088  0.70908  1.0000 -0.4263606605
N   N12       1.0  0.13194  0.51685  0.60261  1.0000 -0.396730819
N   N13       1.0  0.42739  0.47444  0.85547  1.0000 -0.3480997966
N   N14       1.0  0.38263  0.47300  0.78257  1.0000 -0.1801158648
N   N15       1.0  0.44912  0.29092  0.71996  1.0000 -0.4263606605
N   N16       1.0  0.48315  0.39739  0.86806  1.0000 -0.396730819
N   N17       1.0  0.47444  0.85547  0.42739  1.0000 -0.3480997966
N   N18       1.0  0.47300  0.78257  0.38263  1.0000 -0.1801158648
N   N19       1.0  0.29092  0.71996  0.44912  1.0000 -0.4263606605
N   N20       1.0  0.39739  0.86806  0.48315  1.0000 -0.396730819
N   N21       1.0  0.85547  0.42739  0.47444  1.0000 -0.3480997966
N   N22       1.0  0.78257  0.38263  0.47300  1.0000 -0.1801158648
N   N23       1.0  0.71996  0.44912  0.29092  1.0000 -0.4263606605
N   N24       1.0  0.86806  0.48315  0.39739  1.0000 -0.396730819
O   O1        1.0  0.23789  0.47364  0.79317  1.0000 -0.5412519213
O   O2        1.0  0.30609  0.47367  0.91034  1.0000 -0.5482182589
O   O3        1.0  0.71970  0.96325  0.49185  1.0000 -0.5313030568
O   O4        1.0  0.70588  0.07030  0.54052  1.0000 -0.5599167731
O   O5        1.0  0.62618  0.73609  0.42013  1.0000 -0.4789547908
O   O6        1.0  0.62335  0.61792  0.08153  1.0000 -0.5412519213
O   O7        1.0  0.47364  0.79317  0.23789  1.0000 -0.5412519213
O   O8        1.0  0.47367  0.91034  0.30609  1.0000 -0.5482182589
O   O9        1.0  0.96325  0.49185  0.71970  1.0000 -0.5313030568
O   O10       1.0  0.07030  0.54052  0.70588  1.0000 -0.5599167731
O   O11       1.0  0.73609  0.42013  0.62618  1.0000 -0.4789547908
O   O12       1.0  0.61792  0.08153  0.62335  1.0000 -0.5412519213
O   O13       1.0  0.79317  0.23789  0.47364  1.0000 -0.5412519213
O   O14       1.0  0.91034  0.30609  0.47367  1.0000 -0.5482182589
O   O15       1.0  0.49185  0.71970  0.96325  1.0000 -0.5313030568
O   O16       1.0  0.54052  0.70588  0.07030  1.0000 -0.5599167731
O   O17       1.0  0.42013  0.62618  0.73609  1.0000 -0.4789547908
O   O18       1.0  0.08153  0.62335  0.61792  1.0000 -0.5412519213
O   O19       1.0  0.76211  0.52636  0.20683  1.0000 -0.5412519213
O   O20       1.0  0.69391  0.52633  0.08966  1.0000 -0.5482182589
O   O21       1.0  0.28030  0.03675  0.50815  1.0000 -0.5313030568
O   O22       1.0  0.29412  0.92970  0.45948  1.0000 -0.5599167731
O   O23       1.0  0.37382  0.26391  0.57987  1.0000 -0.4789547908
O   O24       1.0  0.37665  0.38208  0.91847  1.0000 -0.5412519213
O   O25       1.0  0.52636  0.20683  0.76211  1.0000 -0.5412519213
O   O26       1.0  0.52633  0.08966  0.69391  1.0000 -0.5482182589
O   O27       1.0  0.03675  0.50815  0.28030  1.0000 -0.5313030568
O   O28       1.0  0.92970  0.45948  0.29412  1.0000 -0.5599167731
O   O29       1.0  0.26391  0.57987  0.37382  1.0000 -0.4789547908
O   O30       1.0  0.38208  0.91847  0.37665  1.0000 -0.5412519213
O   O31       1.0  0.20683  0.76211  0.52636  1.0000 -0.5412519213
O   O32       1.0  0.08966  0.69391  0.52633  1.0000 -0.5482182589
O   O33       1.0  0.50815  0.28030  0.03675  1.0000 -0.5313030568
O   O34       1.0  0.45948  0.29412  0.92970  1.0000 -0.5599167731
O   O35       1.0  0.57987  0.37382  0.26391  1.0000 -0.4789547908
O   O36       1.0  0.91847  0.37665  0.38208  1.0000 -0.5412519213
