# DDEC6 charges by PACMAN v1.1 (https://github.com/mtap-research/PACMAN-charge/)
data_2022[Mn][sql]2[FSR]1
_chemical_formula_sum              "Mn3 H12 C24 O22"
_cell_length_a       9.4283
_cell_length_b       10.1566
_cell_length_c       12.4545
_cell_angle_alpha    83.976
_cell_angle_beta     87.27
_cell_angle_gamma    85.452

_symmetry_space_group_name_H-M    "P 1"
_symmetry_Int_Tables_number       1

loop_
  _symmetry_equiv_pos_as_xyz
  'x, y, z'

loop_
  _atom_site_type_symbol
  _atom_site_label
  _atom_site_symmetry_multiplicity
  _atom_site_fract_x
  _atom_site_fract_y
  _atom_site_fract_z
  _atom_site_occupancy
  _atom_site_charge
Mn  Mn1       1.0  0.45533  0.98706  0.28600  1.0000 1.0394257693
Mn  Mn2       1.0  0.54467  0.01294  0.71400  1.0000 1.0394257693
Mn  Mn3       1.0  0.50000  0.00000  0.00000  1.0000 1.0945040374
H   H1        1.0  0.43500  0.83590  0.46560  1.0000 0.3859795271
H   H2        1.0  0.31790  0.92600  0.46650  1.0000 0.4039891599
H   H3        1.0  0.36650  0.31490  0.12804  1.0000 0.1553414254
H   H4        1.0  0.35960  0.55230  0.03593  1.0000 0.1508508661
H   H5        1.0  0.05570  0.20340  0.96338  1.0000 0.1508508661
H   H6        1.0  0.78740  0.18830  0.99166  1.0000 0.1508508661
H   H7        1.0  0.56500  0.16410  0.53440  1.0000 0.3859795271
H   H8        1.0  0.68210  0.07400  0.53350  1.0000 0.4039891599
H   H9        1.0  0.63350  0.68510  0.87196  1.0000 0.1553414254
H   H10       1.0  0.64040  0.44770  0.96407  1.0000 0.1508508661
H   H11       1.0  0.94430  0.79660  0.03662  1.0000 0.1508508661
H   H12       1.0  0.21260  0.81170  0.00834  1.0000 0.1508508661
C   C1        1.0  0.48440  0.28900  0.34350  1.0000 0.5322446017
C   C2        1.0  0.45330  0.39440  0.25440  1.0000 0.1005091532
C   C3        1.0  0.39710  0.39060  0.15663  1.0000 -0.1676242313
C   C4        1.0  0.39320  0.52250  0.10569  1.0000 -0.1676242313
C   C5        1.0  0.44640  0.59780  0.17513  1.0000 0.1005091532
C   C6        1.0  0.46600  0.74230  0.16986  1.0000 0.5523673086
C   C7        1.0  0.21910  0.06210  0.13814  1.0000 0.5523673086
C   C8        1.0  0.06810  0.09550  0.11335  1.0000 0.0935691683
C   C9        1.0  0.00760  0.16050  0.02438  1.0000 -0.1633994641
C   C10       1.0  0.85880  0.15200  0.03993  1.0000 -0.1633994641
C   C11       1.0  0.83830  0.08160  0.13772  1.0000 0.1005091532
C   C12       1.0  0.70880  0.04040  0.19705  1.0000 0.5388195305
C   C13       1.0  0.51560  0.71100  0.65650  1.0000 0.5322446017
C   C14       1.0  0.54670  0.60560  0.74560  1.0000 0.1005091532
C   C15       1.0  0.60290  0.60940  0.84337  1.0000 -0.1633994641
C   C16       1.0  0.60680  0.47750  0.89431  1.0000 -0.1676242313
C   C17       1.0  0.55360  0.40220  0.82487  1.0000 0.1005091532
C   C18       1.0  0.53400  0.25770  0.83014  1.0000 0.5523673086
C   C19       1.0  0.78090  0.93790  0.86186  1.0000 0.5523673086
C   C20       1.0  0.93190  0.90450  0.88665  1.0000 0.0935691683
C   C21       1.0  0.99240  0.83950  0.97562  1.0000 -0.1633994641
C   C22       1.0  0.14120  0.84800  0.96007  1.0000 -0.1633994641
C   C23       1.0  0.16170  0.91840  0.86228  1.0000 0.1005091532
C   C24       1.0  0.29120  0.95960  0.80295  1.0000 0.5388195305
O   O1        1.0  0.43551  0.17993  0.33569  1.0000 -0.5289265127
O   O2        1.0  0.55360  0.31547  0.42229  1.0000 -0.4609956951
O   O3        1.0  0.48444  0.52108  0.26795  1.0000 -0.0658758493
O   O4        1.0  0.44630  0.80773  0.08000  1.0000 -0.5289265127
O   O5        1.0  0.49801  0.78540  0.25592  1.0000 -0.5289265127
O   O6        1.0  0.24639  0.00216  0.22982  1.0000 -0.5384484739
O   O7        1.0  0.30722  0.09724  0.06373  1.0000 -0.5384484739
O   O8        1.0  0.96521  0.04705  0.18568  1.0000 -0.064448698
O   O9        1.0  0.59425  0.05189  0.14540  1.0000 -0.5491556139
O   O10       1.0  0.70914  0.00024  0.29548  1.0000 -0.4700992764
O   O11       1.0  0.40957  0.92028  0.45373  1.0000 -0.6212492497
O   O12       1.0  0.56449  0.82007  0.66431  1.0000 -0.5289265127
O   O13       1.0  0.44640  0.68453  0.57771  1.0000 -0.4609956951
O   O14       1.0  0.51556  0.47892  0.73205  1.0000 -0.0658758493
O   O15       1.0  0.55370  0.19227  0.92000  1.0000 -0.5289265127
O   O16       1.0  0.50199  0.21460  0.74408  1.0000 -0.5289265127
O   O17       1.0  0.75361  0.99784  0.77018  1.0000 -0.5384484739
O   O18       1.0  0.69278  0.90276  0.93627  1.0000 -0.5384484739
O   O19       1.0  0.03479  0.95295  0.81432  1.0000 -0.064448698
O   O20       1.0  0.40575  0.94811  0.85460  1.0000 -0.5491556139
O   O21       1.0  0.29086  0.99976  0.70452  1.0000 -0.4700992764
O   O22       1.0  0.59043  0.07972  0.54627  1.0000 -0.6212492497
