# DDEC6 charges by PACMAN v1.1 (https://github.com/mtap-research/PACMAN-charge/)
data_2022[Eu][pcu]3[FSR]1
_chemical_formula_sum              "Eu8 B12 H100 C104 O88"
_cell_length_a       17.4824
_cell_length_b       14.6916
_cell_length_c       19.157
_cell_angle_alpha    90
_cell_angle_beta     106.671
_cell_angle_gamma    90

_symmetry_space_group_name_H-M    "P 1"
_symmetry_Int_Tables_number       1

loop_
  _symmetry_equiv_pos_as_xyz
  'x, y, z'

loop_
  _atom_site_type_symbol
  _atom_site_label
  _atom_site_symmetry_multiplicity
  _atom_site_fract_x
  _atom_site_fract_y
  _atom_site_fract_z
  _atom_site_occupancy
  _atom_site_charge
Eu  Eu1       1.0  0.29836  0.34857  0.80933  1.0000 2.0500154485
Eu  Eu2       1.0  0.19646  0.36192  0.17875  1.0000 2.0410078158
Eu  Eu3       1.0  0.70164  0.84857  0.69067  1.0000 2.0500154485
Eu  Eu4       1.0  0.80354  0.86192  0.32125  1.0000 2.0410078158
Eu  Eu5       1.0  0.70164  0.65143  0.19067  1.0000 2.0500154485
Eu  Eu6       1.0  0.80354  0.63808  0.82125  1.0000 2.0410078158
Eu  Eu7       1.0  0.29836  0.15143  0.30933  1.0000 2.0500154485
Eu  Eu8       1.0  0.19646  0.13808  0.67875  1.0000 2.0410078158
B   B1        1.0  0.87160  0.36680  0.26180  1.0000 0.762370034
B   B2        1.0  0.17570  0.64190  0.49020  1.0000 0.7362378826
B   B3        1.0  0.63350  0.34150  0.79160  1.0000 0.7843027701
B   B4        1.0  0.12840  0.86680  0.23820  1.0000 0.762370034
B   B5        1.0  0.82430  0.14190  0.00980  1.0000 0.7362378826
B   B6        1.0  0.36650  0.84150  0.70840  1.0000 0.7843027701
B   B7        1.0  0.12840  0.63320  0.73820  1.0000 0.762370034
B   B8        1.0  0.82430  0.35810  0.50980  1.0000 0.7349910726
B   B9        1.0  0.36650  0.65850  0.20840  1.0000 0.7843027701
B   B10       1.0  0.87160  0.13320  0.76180  1.0000 0.762370034
B   B11       1.0  0.17570  0.85810  0.99020  1.0000 0.7362378826
B   B12       1.0  0.63350  0.15850  0.29160  1.0000 0.7843027701
H   H1        1.0  0.78594  0.42070  0.27984  1.0000 0.3687113722
H   H2        1.0  0.85961  0.47406  0.21356  1.0000 0.3687113722
H   H3        1.0  0.12796  0.72937  0.42725  1.0000 0.3687113722
H   H4        1.0  0.17767  0.65520  0.58516  1.0000 0.3613393573
H   H5        1.0  0.63513  0.45511  0.82855  1.0000 0.3613393573
H   H6        1.0  0.20600  0.48110  0.05010  1.0000 0.3687113722
H   H7        1.0  0.33076  0.40872  0.95474  1.0000 0.3211435591
H   H8        1.0  0.30602  0.48469  0.91475  1.0000 0.3539398302
H   H9        1.0  0.05600  0.26040  0.06350  1.0000 0.3613393573
H   H10       1.0  0.40387  0.26444  0.93251  1.0000 0.342253915
H   H11       1.0  0.43917  0.34521  0.92795  1.0000 0.342253915
H   H12       1.0  0.72494  0.39242  0.78501  1.0000 0.3687113722
H   H13       1.0  0.83849  0.20123  0.30464  1.0000 0.1202524079
H   H14       1.0  0.02558  0.05146  0.29199  1.0000 0.1272598301
H   H15       1.0  0.47425  0.03421  0.70963  1.0000 0.1272598301
H   H16       1.0  0.47639  0.29244  0.78065  1.0000 0.1272598301
H   H17       1.0  0.21886  0.51512  0.59925  1.0000 0.1202524079
H   H18       1.0  0.25704  0.29300  0.49262  1.0000 0.1202524079
H   H19       1.0  0.19834  0.52948  0.38553  1.0000 0.1272598301
H   H20       1.0  0.01857  0.31888  0.24688  1.0000 0.1272598301
H   H21       1.0  0.67606  0.17974  0.75606  1.0000 0.1202524079
H   H22       1.0  0.16190  0.34553  0.97330  1.0000 0.1202524079
H   H23       1.0  0.12089  0.44119  0.95815  1.0000 0.1202524079
H   H24       1.0  0.02904  0.40569  0.99980  1.0000 0.1202524079
H   H25       1.0  0.04549  0.31293  0.96690  1.0000 0.1144598265
H   H26       1.0  0.21406  0.92070  0.22016  1.0000 0.3687113722
H   H27       1.0  0.14039  0.97406  0.28644  1.0000 0.3687113722
H   H28       1.0  0.87204  0.22937  0.07275  1.0000 0.3687113722
H   H29       1.0  0.82233  0.15520  0.91484  1.0000 0.3613393573
H   H30       1.0  0.36487  0.95511  0.67145  1.0000 0.3613393573
H   H31       1.0  0.79400  0.98110  0.44990  1.0000 0.3687113722
H   H32       1.0  0.66924  0.90872  0.54526  1.0000 0.3211435591
H   H33       1.0  0.69398  0.98469  0.58525  1.0000 0.3613393573
H   H34       1.0  0.94400  0.76040  0.43650  1.0000 0.3613393573
H   H35       1.0  0.59613  0.76444  0.56749  1.0000 0.342253915
H   H36       1.0  0.56083  0.84521  0.57205  1.0000 0.342253915
H   H37       1.0  0.27506  0.89242  0.71499  1.0000 0.3687113722
H   H38       1.0  0.16151  0.70123  0.19536  1.0000 0.1202524079
H   H39       1.0  0.97442  0.55146  0.20801  1.0000 0.1272598301
H   H40       1.0  0.52575  0.53421  0.79037  1.0000 0.1272598301
H   H41       1.0  0.52361  0.79244  0.71935  1.0000 0.1272598301
H   H42       1.0  0.78114  0.01512  0.90075  1.0000 0.1202524079
H   H43       1.0  0.74296  0.79300  0.00738  1.0000 0.1202524079
H   H44       1.0  0.80166  0.02948  0.11447  1.0000 0.1272598301
H   H45       1.0  0.98143  0.81888  0.25312  1.0000 0.1272598301
H   H46       1.0  0.32394  0.67974  0.74394  1.0000 0.1202524079
H   H47       1.0  0.83810  0.84553  0.52670  1.0000 0.1202524079
H   H48       1.0  0.87911  0.94119  0.54185  1.0000 0.1202524079
H   H49       1.0  0.97096  0.90569  0.50020  1.0000 0.1202524079
H   H50       1.0  0.95451  0.81293  0.53310  1.0000 0.1144598265
H   H51       1.0  0.21406  0.57930  0.72016  1.0000 0.3687113722
H   H52       1.0  0.14039  0.52594  0.78644  1.0000 0.3687113722
H   H53       1.0  0.87204  0.27063  0.57275  1.0000 0.3687113722
H   H54       1.0  0.82233  0.34480  0.41484  1.0000 0.3613393573
H   H55       1.0  0.36487  0.54489  0.17145  1.0000 0.3613393573
H   H56       1.0  0.79400  0.51890  0.94990  1.0000 0.3687113722
H   H57       1.0  0.66924  0.59128  0.04526  1.0000 0.3211435591
H   H58       1.0  0.69398  0.51531  0.08525  1.0000 0.3613393573
H   H59       1.0  0.94400  0.73960  0.93650  1.0000 0.3613393573
H   H60       1.0  0.59613  0.73556  0.06749  1.0000 0.342253915
H   H61       1.0  0.56083  0.65479  0.07205  1.0000 0.342253915
H   H62       1.0  0.27506  0.60758  0.21499  1.0000 0.3687113722
H   H63       1.0  0.16151  0.79877  0.69536  1.0000 0.1202524079
H   H64       1.0  0.97442  0.94854  0.70801  1.0000 0.1272598301
H   H65       1.0  0.52575  0.96579  0.29037  1.0000 0.1272598301
H   H66       1.0  0.52361  0.70756  0.21935  1.0000 0.1272598301
H   H67       1.0  0.78114  0.48488  0.40075  1.0000 0.1202524079
H   H68       1.0  0.74296  0.70700  0.50738  1.0000 0.1202524079
H   H69       1.0  0.80166  0.47052  0.61447  1.0000 0.1272598301
H   H70       1.0  0.98143  0.68112  0.75312  1.0000 0.1272598301
H   H71       1.0  0.32394  0.82026  0.24394  1.0000 0.1202524079
H   H72       1.0  0.83810  0.65447  0.02670  1.0000 0.1202524079
H   H73       1.0  0.87911  0.55881  0.04185  1.0000 0.1202524079
H   H74       1.0  0.97096  0.59431  0.00020  1.0000 0.1202524079
H   H75       1.0  0.95451  0.68707  0.03310  1.0000 0.1144598265
H   H76       1.0  0.78594  0.07930  0.77984  1.0000 0.3687113722
H   H77       1.0  0.85961  0.02594  0.71356  1.0000 0.3687113722
H   H78       1.0  0.12796  0.77063  0.92725  1.0000 0.3687113722
H   H79       1.0  0.17767  0.84480  0.08516  1.0000 0.3613393573
H   H80       1.0  0.63513  0.04489  0.32855  1.0000 0.3613393573
H   H81       1.0  0.20600  0.01890  0.55010  1.0000 0.3687113722
H   H82       1.0  0.33076  0.09128  0.45474  1.0000 0.3211435591
H   H83       1.0  0.30602  0.01531  0.41475  1.0000 0.3539398302
H   H84       1.0  0.05600  0.23960  0.56350  1.0000 0.3613393573
H   H85       1.0  0.40387  0.23556  0.43251  1.0000 0.342253915
H   H86       1.0  0.43917  0.15479  0.42795  1.0000 0.342253915
H   H87       1.0  0.72494  0.10758  0.28501  1.0000 0.3687113722
H   H88       1.0  0.83849  0.29877  0.80464  1.0000 0.1202524079
H   H89       1.0  0.02558  0.44854  0.79199  1.0000 0.1272598301
H   H90       1.0  0.47425  0.46579  0.20963  1.0000 0.1272598301
H   H91       1.0  0.47639  0.20756  0.28065  1.0000 0.1272598301
H   H92       1.0  0.21886  0.98488  0.09925  1.0000 0.1202524079
H   H93       1.0  0.25704  0.20700  0.99262  1.0000 0.1202524079
H   H94       1.0  0.19834  0.97052  0.88553  1.0000 0.1272598301
H   H95       1.0  0.01857  0.18112  0.74688  1.0000 0.1272598301
H   H96       1.0  0.67606  0.32026  0.25606  1.0000 0.1202524079
H   H97       1.0  0.16190  0.15447  0.47330  1.0000 0.1202524079
H   H98       1.0  0.12089  0.05881  0.45815  1.0000 0.1202524079
H   H99       1.0  0.02904  0.09431  0.49980  1.0000 0.1202524079
H   H100      1.0  0.04549  0.18707  0.46690  1.0000 0.1144598265
C   C1        1.0  0.92110  0.27600  0.27460  1.0000 -0.1621728103
C   C2        1.0  0.88720  0.19710  0.29420  1.0000 -0.0817057696
C   C3        1.0  0.99930  0.10720  0.28730  1.0000 -0.1111592922
C   C4        1.0  0.11670  0.17740  0.25910  1.0000 0.6386228194
C   C5        1.0  0.88420  0.02780  0.31300  1.0000 0.5744736185
C   C6        1.0  0.23810  0.39490  0.55600  1.0000 -0.0301031693
C   C7        1.0  0.03480  0.18420  0.26910  1.0000 -0.038126385
C   C8        1.0  0.62530  0.01270  0.71310  1.0000 0.577399372
C   C9        1.0  0.58250  0.09410  0.73140  1.0000 -0.0301031693
C   C10       1.0  0.37350  0.15600  0.73210  1.0000 0.6386228194
C   C11       1.0  0.50160  0.08820  0.72540  1.0000 -0.0983341998
C   C12       1.0  0.92430  0.11290  0.29850  1.0000 -0.0301031693
C   C13       1.0  0.50290  0.24350  0.76730  1.0000 -0.0817057696
C   C14       1.0  0.23000  0.40470  0.42870  1.0000 -0.038126385
C   C15       1.0  0.22020  0.48750  0.55590  1.0000 -0.0983341998
C   C16       1.0  0.24380  0.35430  0.49260  1.0000 -0.1111592922
C   C17       1.0  0.24850  0.33890  0.62340  1.0000 0.6386228194
C   C18       1.0  0.20920  0.49640  0.42870  1.0000 -0.0728402046
C   C19       1.0  0.58390  0.25130  0.77180  1.0000 -0.1695529605
C   C20       1.0  0.46120  0.16260  0.74280  1.0000 -0.038126385
C   C21       1.0  0.20420  0.53970  0.49250  1.0000 -0.1931667487
C   C22       1.0  0.23670  0.35700  0.36110  1.0000 0.6386228194
C   C23       1.0  0.99520  0.26800  0.26120  1.0000 -0.0882783673
C   C24       1.0  0.62220  0.17550  0.75340  1.0000 -0.0728402046
C   C25       1.0  0.13580  0.39250  0.99370  1.0000 -0.038126385
C   C26       1.0  0.06770  0.35690  0.00510  1.0000 -0.0589151998
C   C27       1.0  0.07890  0.77600  0.22540  1.0000 -0.1621728103
C   C28       1.0  0.11280  0.69710  0.20580  1.0000 -0.0817057696
C   C29       1.0  0.00070  0.60720  0.21270  1.0000 -0.1111592922
C   C30       1.0  0.88330  0.67740  0.24090  1.0000 0.6386228194
C   C31       1.0  0.11580  0.52780  0.18700  1.0000 0.5744736185
C   C32       1.0  0.76190  0.89490  0.94400  1.0000 -0.0301031693
C   C33       1.0  0.96520  0.68420  0.23090  1.0000 -0.038126385
C   C34       1.0  0.37470  0.51270  0.78690  1.0000 0.577399372
C   C35       1.0  0.41750  0.59410  0.76860  1.0000 -0.0301031693
C   C36       1.0  0.62650  0.65600  0.76790  1.0000 0.6386228194
C   C37       1.0  0.49840  0.58820  0.77460  1.0000 -0.0983341998
C   C38       1.0  0.07570  0.61290  0.20150  1.0000 -0.0301031693
C   C39       1.0  0.49710  0.74350  0.73270  1.0000 -0.0817057696
C   C40       1.0  0.77000  0.90470  0.07130  1.0000 -0.038126385
C   C41       1.0  0.77980  0.98750  0.94410  1.0000 -0.0983341998
C   C42       1.0  0.75620  0.85430  0.00740  1.0000 -0.1111592922
C   C43       1.0  0.75150  0.83890  0.87660  1.0000 0.6386228194
C   C44       1.0  0.79080  0.99640  0.07130  1.0000 -0.0728402046
C   C45       1.0  0.41610  0.75130  0.72820  1.0000 -0.1695529605
C   C46       1.0  0.53880  0.66260  0.75720  1.0000 -0.038126385
C   C47       1.0  0.79580  0.03970  0.00750  1.0000 -0.1951481561
C   C48       1.0  0.76330  0.85700  0.13890  1.0000 0.6386228194
C   C49       1.0  0.00480  0.76800  0.23880  1.0000 -0.0882783673
C   C50       1.0  0.37780  0.67550  0.74660  1.0000 -0.0728402046
C   C51       1.0  0.86420  0.89250  0.50630  1.0000 -0.0459410037
C   C52       1.0  0.93230  0.85690  0.49490  1.0000 -0.0589151998
C   C53       1.0  0.07890  0.72400  0.72540  1.0000 -0.1621728103
C   C54       1.0  0.11280  0.80290  0.70580  1.0000 -0.0817057696
C   C55       1.0  0.00070  0.89280  0.71270  1.0000 -0.1111592922
C   C56       1.0  0.88330  0.82260  0.74090  1.0000 0.6386228194
C   C57       1.0  0.11580  0.97220  0.68700  1.0000 0.5744736185
C   C58       1.0  0.76190  0.60510  0.44400  1.0000 -0.0301031693
C   C59       1.0  0.96520  0.81580  0.73090  1.0000 -0.038126385
C   C60       1.0  0.37470  0.98730  0.28690  1.0000 0.577399372
C   C61       1.0  0.41750  0.90590  0.26860  1.0000 -0.0301031693
C   C62       1.0  0.62650  0.84400  0.26790  1.0000 0.6386228194
C   C63       1.0  0.49840  0.91180  0.27460  1.0000 -0.0983341998
C   C64       1.0  0.07570  0.88710  0.70150  1.0000 -0.0301031693
C   C65       1.0  0.49710  0.75650  0.23270  1.0000 -0.0817057696
C   C66       1.0  0.77000  0.59530  0.57130  1.0000 -0.038126385
C   C67       1.0  0.77980  0.51250  0.44410  1.0000 -0.0983341998
C   C68       1.0  0.75620  0.64570  0.50740  1.0000 -0.1111592922
C   C69       1.0  0.75150  0.66110  0.37660  1.0000 0.6386228194
C   C70       1.0  0.79080  0.50360  0.57130  1.0000 -0.0728402046
C   C71       1.0  0.41610  0.74870  0.22820  1.0000 -0.1695529605
C   C72       1.0  0.53880  0.83740  0.25720  1.0000 -0.038126385
C   C73       1.0  0.79580  0.46030  0.50750  1.0000 -0.1931667487
C   C74       1.0  0.76330  0.64300  0.63890  1.0000 0.6386228194
C   C75       1.0  0.00480  0.73200  0.73880  1.0000 -0.0882783673
C   C76       1.0  0.37780  0.82450  0.24660  1.0000 -0.0728402046
C   C77       1.0  0.86420  0.60750  0.00630  1.0000 -0.038126385
C   C78       1.0  0.93230  0.64310  0.99490  1.0000 -0.0589151998
C   C79       1.0  0.92110  0.22400  0.77460  1.0000 -0.1621728103
C   C80       1.0  0.88720  0.30290  0.79420  1.0000 -0.0817057696
C   C81       1.0  0.99930  0.39280  0.78730  1.0000 -0.1111592922
C   C82       1.0  0.11670  0.32260  0.75910  1.0000 0.6386228194
C   C83       1.0  0.88420  0.47220  0.81300  1.0000 0.5744736185
C   C84       1.0  0.23810  0.10510  0.05600  1.0000 -0.0301031693
C   C85       1.0  0.03480  0.31580  0.76910  1.0000 -0.038126385
C   C86       1.0  0.62530  0.48730  0.21310  1.0000 0.577399372
C   C87       1.0  0.58250  0.40590  0.23140  1.0000 -0.0301031693
C   C88       1.0  0.37350  0.34400  0.23210  1.0000 0.6386228194
C   C89       1.0  0.50160  0.41180  0.22540  1.0000 -0.0983341998
C   C90       1.0  0.92430  0.38710  0.79850  1.0000 -0.0301031693
C   C91       1.0  0.50290  0.25650  0.26730  1.0000 -0.0817057696
C   C92       1.0  0.23000  0.09530  0.92870  1.0000 -0.038126385
C   C93       1.0  0.22020  0.01250  0.05590  1.0000 -0.0983341998
C   C94       1.0  0.24380  0.14570  0.99260  1.0000 -0.1111592922
C   C95       1.0  0.24850  0.16110  0.12340  1.0000 0.6386228194
C   C96       1.0  0.20920  0.00360  0.92870  1.0000 -0.0728402046
C   C97       1.0  0.58390  0.24870  0.27180  1.0000 -0.1695529605
C   C98       1.0  0.46120  0.33740  0.24280  1.0000 -0.038126385
C   C99       1.0  0.20420  0.96030  0.99250  1.0000 -0.1931667487
C   C100      1.0  0.23670  0.14300  0.86110  1.0000 0.6386228194
C   C101      1.0  0.99520  0.23200  0.76120  1.0000 -0.0882783673
C   C102      1.0  0.62220  0.32450  0.25340  1.0000 -0.0728402046
C   C103      1.0  0.13580  0.10750  0.49370  1.0000 -0.0459410037
C   C104      1.0  0.06770  0.14310  0.50510  1.0000 -0.0589151998
O   O1        1.0  0.69760  0.01839  0.71420  1.0000 -0.6411505429
O   O2        1.0  0.33743  0.21758  0.75591  1.0000 -0.7194459151
O   O3        1.0  0.33479  0.08928  0.69666  1.0000 -0.6411505429
O   O4        1.0  0.81726  0.38057  0.29968  1.0000 -0.6716234024
O   O5        1.0  0.88377  0.42667  0.21180  1.0000 -0.6624519041
O   O6        1.0  0.14233  0.24156  0.22755  1.0000 -0.7368670712
O   O7        1.0  0.15950  0.10937  0.28538  1.0000 -0.6411505429
O   O8        1.0  0.81343  0.03049  0.31721  1.0000 -0.6295717965
O   O9        1.0  0.15350  0.68330  0.42471  1.0000 -0.6082206379
O   O10       1.0  0.26321  0.37904  0.68305  1.0000 -0.6411505429
O   O11       1.0  0.22297  0.40219  0.30299  1.0000 -0.6411505429
O   O12       1.0  0.25508  0.27358  0.36780  1.0000 -0.7066838752
O   O13       1.0  0.92110  0.95336  0.32082  1.0000 -0.6168621193
O   O14       1.0  0.17070  0.68990  0.55035  1.0000 -0.6624519041
O   O15       1.0  0.61140  0.40780  0.83170  1.0000 -0.6624519041
O   O16       1.0  0.19140  0.42750  0.05852  1.0000 -0.5146924863
O   O17       1.0  0.58791  0.93853  0.69782  1.0000 -0.6295717965
O   O18       1.0  0.29400  0.42870  0.91797  1.0000 -0.7600002001
O   O19       1.0  0.24057  0.25362  0.61421  1.0000 -0.6716234024
O   O20       1.0  0.07600  0.31380  0.07325  1.0000 -0.4879190038
O   O21       1.0  0.41738  0.29940  0.90228  1.0000 -0.7270198475
O   O22       1.0  0.69750  0.34900  0.76560  1.0000 -0.6411505429
O   O23       1.0  0.30240  0.51839  0.78580  1.0000 -0.6411505429
O   O24       1.0  0.66257  0.71758  0.74409  1.0000 -0.7194459151
O   O25       1.0  0.66521  0.58928  0.80334  1.0000 -0.6411505429
O   O26       1.0  0.18274  0.88057  0.20032  1.0000 -0.6716234024
O   O27       1.0  0.11623  0.92667  0.28820  1.0000 -0.6624519041
O   O28       1.0  0.85767  0.74156  0.27245  1.0000 -0.7368670712
O   O29       1.0  0.84050  0.60937  0.21462  1.0000 -0.6411505429
O   O30       1.0  0.18657  0.53049  0.18279  1.0000 -0.6295717965
O   O31       1.0  0.84650  0.18330  0.07529  1.0000 -0.6082206379
O   O32       1.0  0.73679  0.87904  0.81695  1.0000 -0.6411505429
O   O33       1.0  0.77703  0.90219  0.19701  1.0000 -0.6411505429
O   O34       1.0  0.74492  0.77358  0.13220  1.0000 -0.7066838752
O   O35       1.0  0.07890  0.45336  0.17918  1.0000 -0.6168621193
O   O36       1.0  0.82930  0.18990  0.94965  1.0000 -0.6624519041
O   O37       1.0  0.38860  0.90780  0.66830  1.0000 -0.6624519041
O   O38       1.0  0.80860  0.92750  0.44148  1.0000 -0.5154800425
O   O39       1.0  0.41209  0.43853  0.80218  1.0000 -0.6295717965
O   O40       1.0  0.70600  0.92870  0.58203  1.0000 -0.7600002001
O   O41       1.0  0.75943  0.75362  0.88579  1.0000 -0.6716234024
O   O42       1.0  0.92400  0.81380  0.42675  1.0000 -0.4879190038
O   O43       1.0  0.58262  0.79940  0.59772  1.0000 -0.7270198475
O   O44       1.0  0.30250  0.84900  0.73440  1.0000 -0.6461154829
O   O45       1.0  0.30240  0.98161  0.28580  1.0000 -0.6411505429
O   O46       1.0  0.66257  0.78242  0.24409  1.0000 -0.7194459151
O   O47       1.0  0.66521  0.91072  0.30334  1.0000 -0.6411505429
O   O48       1.0  0.18274  0.61943  0.70032  1.0000 -0.6716234024
O   O49       1.0  0.11623  0.57333  0.78820  1.0000 -0.6624519041
O   O50       1.0  0.85767  0.75844  0.77245  1.0000 -0.7368670712
O   O51       1.0  0.84050  0.89063  0.71462  1.0000 -0.6411505429
O   O52       1.0  0.18657  0.96951  0.68279  1.0000 -0.6295717965
O   O53       1.0  0.84650  0.31670  0.57529  1.0000 -0.6082206379
O   O54       1.0  0.73679  0.62096  0.31695  1.0000 -0.6411505429
O   O55       1.0  0.77703  0.59781  0.69701  1.0000 -0.6411505429
O   O56       1.0  0.74492  0.72642  0.63220  1.0000 -0.7066838752
O   O57       1.0  0.07890  0.04664  0.67918  1.0000 -0.6168621193
O   O58       1.0  0.82930  0.31010  0.44965  1.0000 -0.6624519041
O   O59       1.0  0.38860  0.59220  0.16830  1.0000 -0.6624519041
O   O60       1.0  0.80860  0.57250  0.94148  1.0000 -0.5146924863
O   O61       1.0  0.41209  0.06147  0.30218  1.0000 -0.6295717965
O   O62       1.0  0.70600  0.57130  0.08203  1.0000 -0.7600002001
O   O63       1.0  0.75943  0.74638  0.38579  1.0000 -0.6716234024
O   O64       1.0  0.92400  0.68620  0.92675  1.0000 -0.4879190038
O   O65       1.0  0.58262  0.70060  0.09772  1.0000 -0.7270198475
O   O66       1.0  0.30250  0.65100  0.23440  1.0000 -0.6411505429
O   O67       1.0  0.69760  0.48161  0.21420  1.0000 -0.6411505429
O   O68       1.0  0.33743  0.28242  0.25591  1.0000 -0.7194459151
O   O69       1.0  0.33479  0.41072  0.19666  1.0000 -0.6411505429
O   O70       1.0  0.81726  0.11943  0.79968  1.0000 -0.6716234024
O   O71       1.0  0.88377  0.07333  0.71180  1.0000 -0.6624519041
O   O72       1.0  0.14233  0.25844  0.72755  1.0000 -0.7368670712
O   O73       1.0  0.15950  0.39063  0.78538  1.0000 -0.6411505429
O   O74       1.0  0.81343  0.46951  0.81721  1.0000 -0.6295717965
O   O75       1.0  0.15350  0.81670  0.92471  1.0000 -0.6082206379
O   O76       1.0  0.26321  0.12096  0.18305  1.0000 -0.6411505429
O   O77       1.0  0.22297  0.09781  0.80299  1.0000 -0.6411505429
O   O78       1.0  0.25508  0.22642  0.86780  1.0000 -0.7066838752
O   O79       1.0  0.92110  0.54664  0.82082  1.0000 -0.6168621193
O   O80       1.0  0.17070  0.81010  0.05035  1.0000 -0.6624519041
O   O81       1.0  0.61140  0.09220  0.33170  1.0000 -0.6624519041
O   O82       1.0  0.19140  0.07250  0.55852  1.0000 -0.5154800425
O   O83       1.0  0.58791  0.56147  0.19782  1.0000 -0.6295717965
O   O84       1.0  0.29400  0.07130  0.41797  1.0000 -0.7600002001
O   O85       1.0  0.24057  0.24638  0.11421  1.0000 -0.6716234024
O   O86       1.0  0.07600  0.18620  0.57325  1.0000 -0.4879190038
O   O87       1.0  0.41738  0.20060  0.40228  1.0000 -0.7270198475
O   O88       1.0  0.69750  0.15100  0.26560  1.0000 -0.6411505429
