# DDEC6 charges by PACMAN v1.1 (https://github.com/mtap-research/PACMAN-charge/)
data_2022[Zn][rtl]3[FSR]2
_chemical_formula_sum              "Zn4 H44 C68 N12 O16"
_cell_length_a       12.8616
_cell_length_b       19.2675
_cell_length_c       16.9831
_cell_angle_alpha    90
_cell_angle_beta     129.479
_cell_angle_gamma    90

_symmetry_space_group_name_H-M    "P 1"
_symmetry_Int_Tables_number       1

loop_
  _symmetry_equiv_pos_as_xyz
  'x, y, z'

loop_
  _atom_site_type_symbol
  _atom_site_label
  _atom_site_symmetry_multiplicity
  _atom_site_fract_x
  _atom_site_fract_y
  _atom_site_fract_z
  _atom_site_occupancy
  _atom_site_charge
Zn  Zn1       1.0  0.07503  0.04940  0.48733  1.0000 0.8467783629
Zn  Zn2       1.0  0.92497  0.54940  0.01267  1.0000 0.8467783629
Zn  Zn3       1.0  0.92497  0.95060  0.51267  1.0000 0.8467783629
Zn  Zn4       1.0  0.07503  0.45060  0.98733  1.0000 0.8467783629
H   H1        1.0  0.33870  0.09620  0.51130  1.0000 0.1272719762
H   H2        1.0  0.09600  0.21020  0.51490  1.0000 0.1363323776
H   H3        1.0  0.20810  0.32490  0.55850  1.0000 0.0989230423
H   H4        1.0  0.34260  0.38490  0.70370  1.0000 0.118345846
H   H5        1.0  0.54600  0.43450  0.83420  1.0000 0.1272719762
H   H6        1.0  0.72050  0.34490  0.73520  1.0000 0.1272719762
H   H7        1.0  0.51330  0.30140  0.59480  1.0000 0.118345846
H   H8        1.0  0.11110  0.41820  0.45390  1.0000 0.118345846
H   H9        1.0  0.02560  0.47440  0.30200  1.0000 0.1272719762
H   H10       1.0  0.21990  0.34160  0.25740  1.0000 0.118345846
H   H11       1.0  0.30570  0.28600  0.41010  1.0000 0.118345846
H   H12       1.0  0.66130  0.59620  0.98870  1.0000 0.1272719762
H   H13       1.0  0.90400  0.71020  0.98510  1.0000 0.1363323776
H   H14       1.0  0.79190  0.82490  0.94150  1.0000 0.0989230423
H   H15       1.0  0.65740  0.88490  0.79630  1.0000 0.118345846
H   H16       1.0  0.45400  0.93450  0.66580  1.0000 0.1272719762
H   H17       1.0  0.27950  0.84490  0.76480  1.0000 0.1272719762
H   H18       1.0  0.48670  0.80140  0.90520  1.0000 0.118345846
H   H19       1.0  0.88890  0.91820  0.04610  1.0000 0.118345846
H   H20       1.0  0.97440  0.97440  0.19800  1.0000 0.1272719762
H   H21       1.0  0.78010  0.84160  0.24260  1.0000 0.118345846
H   H22       1.0  0.69430  0.78600  0.08990  1.0000 0.118345846
H   H23       1.0  0.66130  0.90380  0.48870  1.0000 0.1272719762
H   H24       1.0  0.90400  0.78980  0.48510  1.0000 0.1363323776
H   H25       1.0  0.79190  0.67510  0.44150  1.0000 0.0989230423
H   H26       1.0  0.65740  0.61510  0.29630  1.0000 0.118345846
H   H27       1.0  0.45400  0.56550  0.16580  1.0000 0.1272719762
H   H28       1.0  0.27950  0.65510  0.26480  1.0000 0.1272719762
H   H29       1.0  0.48670  0.69860  0.40520  1.0000 0.118345846
H   H30       1.0  0.88890  0.58180  0.54610  1.0000 0.118345846
H   H31       1.0  0.97440  0.52560  0.69800  1.0000 0.1272719762
H   H32       1.0  0.78010  0.65840  0.74260  1.0000 0.118345846
H   H33       1.0  0.69430  0.71400  0.58990  1.0000 0.118345846
H   H34       1.0  0.33870  0.40380  0.01130  1.0000 0.1272719762
H   H35       1.0  0.09600  0.28980  0.01490  1.0000 0.1363323776
H   H36       1.0  0.20810  0.17510  0.05850  1.0000 0.0989230423
H   H37       1.0  0.34260  0.11510  0.20370  1.0000 0.118345846
H   H38       1.0  0.54600  0.06550  0.33420  1.0000 0.1272719762
H   H39       1.0  0.72050  0.15510  0.23520  1.0000 0.1272719762
H   H40       1.0  0.51330  0.19860  0.09480  1.0000 0.118345846
H   H41       1.0  0.11110  0.08180  0.95390  1.0000 0.118345846
H   H42       1.0  0.02560  0.02560  0.80200  1.0000 0.1272719762
H   H43       1.0  0.21990  0.15840  0.75740  1.0000 0.118345846
H   H44       1.0  0.30570  0.21400  0.91010  1.0000 0.118345846
C   C1        1.0  0.30050  0.13470  0.51720  1.0000 0.1507527082
C   C2        1.0  0.16740  0.19490  0.51850  1.0000 0.0858511476
C   C3        1.0  0.26970  0.31220  0.54540  1.0000 -0.0329412575
C   C4        1.0  0.40930  0.33790  0.63650  1.0000 0.0519451223
C   C5        1.0  0.41810  0.37760  0.70870  1.0000 -0.1640983412
C   C6        1.0  0.54030  0.40580  0.78760  1.0000 -0.0987134019
C   C7        1.0  0.65420  0.39270  0.79930  1.0000 -0.0357720481
C   C8        1.0  0.64390  0.35380  0.72820  1.0000 -0.0908601584
C   C9        1.0  0.52000  0.32670  0.64450  1.0000 -0.1442747937
C   C10       1.0  0.78510  0.42690  0.88330  1.0000 0.598123744
C   C11       1.0  0.21620  0.34660  0.44520  1.0000 0.0519451223
C   C12       1.0  0.13340  0.40250  0.41450  1.0000 -0.1640983412
C   C13       1.0  0.08230  0.43640  0.32280  1.0000 -0.0908601584
C   C14       1.0  0.11320  0.41500  0.26410  1.0000 -0.0329412575
C   C15       1.0  0.19740  0.35770  0.29650  1.0000 -0.0987134019
C   C16       1.0  0.24890  0.32400  0.38850  1.0000 -0.1517176779
C   C17       1.0  0.05940  0.45110  0.16620  1.0000 0.5873707829
C   C18       1.0  0.69950  0.63470  0.98280  1.0000 0.1507527082
C   C19       1.0  0.83260  0.69490  0.98150  1.0000 0.0858511476
C   C20       1.0  0.73030  0.81220  0.95460  1.0000 -0.0329412575
C   C21       1.0  0.59070  0.83790  0.86350  1.0000 0.0519451223
C   C22       1.0  0.58190  0.87760  0.79130  1.0000 -0.1640983412
C   C23       1.0  0.45970  0.90580  0.71240  1.0000 -0.0987134019
C   C24       1.0  0.34580  0.89270  0.70070  1.0000 -0.0357720481
C   C25       1.0  0.35610  0.85380  0.77180  1.0000 -0.0908601584
C   C26       1.0  0.48000  0.82670  0.85550  1.0000 -0.1442747937
C   C27       1.0  0.21490  0.92690  0.61670  1.0000 0.598123744
C   C28       1.0  0.78380  0.84660  0.05480  1.0000 0.0519451223
C   C29       1.0  0.86660  0.90250  0.08550  1.0000 -0.1640983412
C   C30       1.0  0.91770  0.93640  0.17720  1.0000 -0.0908601584
C   C31       1.0  0.88680  0.91500  0.23590  1.0000 -0.0329412575
C   C32       1.0  0.80260  0.85770  0.20350  1.0000 -0.0987134019
C   C33       1.0  0.75110  0.82400  0.11150  1.0000 -0.1517176779
C   C34       1.0  0.94060  0.95110  0.33380  1.0000 0.5873707829
C   C35       1.0  0.69950  0.86530  0.48280  1.0000 0.1507527082
C   C36       1.0  0.83260  0.80510  0.48150  1.0000 0.0858511476
C   C37       1.0  0.73030  0.68780  0.45460  1.0000 -0.0329412575
C   C38       1.0  0.59070  0.66210  0.36350  1.0000 0.0519451223
C   C39       1.0  0.58190  0.62240  0.29130  1.0000 -0.1640983412
C   C40       1.0  0.45970  0.59420  0.21240  1.0000 -0.0987134019
C   C41       1.0  0.34580  0.60730  0.20070  1.0000 -0.0357720481
C   C42       1.0  0.35610  0.64620  0.27180  1.0000 -0.0908601584
C   C43       1.0  0.48000  0.67330  0.35550  1.0000 -0.1442747937
C   C44       1.0  0.21490  0.57310  0.11670  1.0000 0.598123744
C   C45       1.0  0.78380  0.65340  0.55480  1.0000 0.0519451223
C   C46       1.0  0.86660  0.59750  0.58550  1.0000 -0.1640983412
C   C47       1.0  0.91770  0.56360  0.67720  1.0000 -0.0908601584
C   C48       1.0  0.88680  0.58500  0.73590  1.0000 -0.0329412575
C   C49       1.0  0.80260  0.64230  0.70350  1.0000 -0.0987134019
C   C50       1.0  0.75110  0.67600  0.61150  1.0000 -0.1517176779
C   C51       1.0  0.94060  0.54890  0.83380  1.0000 0.5873707829
C   C52       1.0  0.30050  0.36530  0.01720  1.0000 0.1507527082
C   C53       1.0  0.16740  0.30510  0.01850  1.0000 0.0858511476
C   C54       1.0  0.26970  0.18780  0.04540  1.0000 -0.0329412575
C   C55       1.0  0.40930  0.16210  0.13650  1.0000 0.0519451223
C   C56       1.0  0.41810  0.12240  0.20870  1.0000 -0.1640983412
C   C57       1.0  0.54030  0.09420  0.28760  1.0000 -0.0987134019
C   C58       1.0  0.65420  0.10730  0.29930  1.0000 -0.0357720481
C   C59       1.0  0.64390  0.14620  0.22820  1.0000 -0.0908601584
C   C60       1.0  0.52000  0.17330  0.14450  1.0000 -0.1442747937
C   C61       1.0  0.78510  0.07310  0.38330  1.0000 0.598123744
C   C62       1.0  0.21620  0.15340  0.94520  1.0000 0.0519451223
C   C63       1.0  0.13340  0.09750  0.91450  1.0000 -0.1640983412
C   C64       1.0  0.08230  0.06360  0.82280  1.0000 -0.0908601584
C   C65       1.0  0.11320  0.08500  0.76410  1.0000 -0.0329412575
C   C66       1.0  0.19740  0.14230  0.79650  1.0000 -0.0987134019
C   C67       1.0  0.24890  0.17600  0.88850  1.0000 -0.1517176779
C   C68       1.0  0.05940  0.04890  0.66620  1.0000 0.5873707829
N   N1        1.0  0.26440  0.23470  0.53550  1.0000 0.118345846
N   N2        1.0  0.35200  0.19720  0.53550  1.0000 -0.2428061368
N   N3        1.0  0.18960  0.13050  0.50780  1.0000 -0.2832727582
N   N4        1.0  0.73560  0.73470  0.96450  1.0000 0.118345846
N   N5        1.0  0.64800  0.69720  0.96450  1.0000 -0.2428061368
N   N6        1.0  0.81040  0.63050  0.99220  1.0000 -0.2832727582
N   N7        1.0  0.73560  0.76530  0.46450  1.0000 0.118345846
N   N8        1.0  0.64800  0.80280  0.46450  1.0000 -0.2428061368
N   N9        1.0  0.81040  0.86950  0.49220  1.0000 -0.2832727582
N   N10       1.0  0.26440  0.26530  0.03550  1.0000 0.118345846
N   N11       1.0  0.35200  0.30280  0.03550  1.0000 -0.2428061368
N   N12       1.0  0.18960  0.36950  0.00780  1.0000 -0.2832727582
O   O1        1.0  0.98260  0.50260  0.14220  1.0000 -0.5353957118
O   O2        1.0  0.09210  0.42960  0.11530  1.0000 -0.5649433435
O   O3        1.0  0.77960  0.47810  0.92810  1.0000 -0.5478267745
O   O4        1.0  0.89120  0.40480  0.90200  1.0000 -0.5478267745
O   O5        1.0  0.01740  0.00260  0.35780  1.0000 -0.5345583858
O   O6        1.0  0.90790  0.92960  0.38470  1.0000 -0.5656081141
O   O7        1.0  0.22040  0.97810  0.57190  1.0000 -0.5478267745
O   O8        1.0  0.10880  0.90480  0.59800  1.0000 -0.5478267745
O   O9        1.0  0.01740  0.49740  0.85780  1.0000 -0.5353957118
O   O10       1.0  0.90790  0.57040  0.88470  1.0000 -0.5656081141
O   O11       1.0  0.22040  0.52190  0.07190  1.0000 -0.5478267745
O   O12       1.0  0.10880  0.59520  0.09800  1.0000 -0.5478267745
O   O13       1.0  0.98260  0.99740  0.64220  1.0000 -0.5353957118
O   O14       1.0  0.09210  0.07040  0.61530  1.0000 -0.5649433435
O   O15       1.0  0.77960  0.02190  0.42810  1.0000 -0.5478267745
O   O16       1.0  0.89120  0.09520  0.40200  1.0000 -0.5478267745
