# DDEC6 charges by PACMAN v1.1 (https://github.com/mtap-research/PACMAN-charge/)
data_2022[Cu][tbo]3[FSR]3
_chemical_formula_sum              "Cu12 H48 C72 O60"
_cell_length_a       18.5842
_cell_length_b       18.5842
_cell_length_c       18.5842
_cell_angle_alpha    60
_cell_angle_beta     60
_cell_angle_gamma    60

_symmetry_space_group_name_H-M    "P 1"
_symmetry_Int_Tables_number       1

loop_
  _symmetry_equiv_pos_as_xyz
  'x, y, z'

loop_
  _atom_site_type_symbol
  _atom_site_label
  _atom_site_symmetry_multiplicity
  _atom_site_fract_x
  _atom_site_fract_y
  _atom_site_fract_z
  _atom_site_occupancy
  _atom_site_charge
Cu  Cu1       1.0  0.42992  0.00000  0.57008  1.0000 0.8530932444
Cu  Cu2       1.0  0.57008  0.00000  0.42992  1.0000 0.8530932444
Cu  Cu3       1.0  0.00000  0.42992  0.00000  1.0000 0.8530932444
Cu  Cu4       1.0  0.00000  0.57008  0.00000  1.0000 0.8530932444
Cu  Cu5       1.0  0.00000  0.57008  0.42992  1.0000 0.8530932444
Cu  Cu6       1.0  0.00000  0.42992  0.57008  1.0000 0.8530932444
Cu  Cu7       1.0  0.42992  0.00000  0.00000  1.0000 0.8530932444
Cu  Cu8       1.0  0.57008  0.00000  0.00000  1.0000 0.8530932444
Cu  Cu9       1.0  0.57008  0.42992  0.00000  1.0000 0.8530932444
Cu  Cu10      1.0  0.42992  0.57008  0.00000  1.0000 0.8530932444
Cu  Cu11      1.0  0.00000  0.00000  0.42992  1.0000 0.8530932444
Cu  Cu12      1.0  0.00000  0.00000  0.57008  1.0000 0.8530932444
H   H1        1.0  0.48611  0.97035  0.27177  1.0000 0.130765565
H   H2        1.0  0.27177  0.27177  0.48611  1.0000 0.130765565
H   H3        1.0  0.97035  0.48611  0.27177  1.0000 0.130765565
H   H4        1.0  0.27177  0.27177  0.97035  1.0000 0.130765565
H   H5        1.0  0.97035  0.27177  0.48611  1.0000 0.130765565
H   H6        1.0  0.27177  0.48611  0.27177  1.0000 0.130765565
H   H7        1.0  0.48611  0.27177  0.97035  1.0000 0.130765565
H   H8        1.0  0.27177  0.97035  0.27177  1.0000 0.130765565
H   H9        1.0  0.27177  0.48611  0.97035  1.0000 0.130765565
H   H10       1.0  0.48611  0.27177  0.27177  1.0000 0.130765565
H   H11       1.0  0.27177  0.97035  0.48611  1.0000 0.130765565
H   H12       1.0  0.97035  0.27177  0.27177  1.0000 0.130765565
H   H13       1.0  0.51389  0.72823  0.72823  1.0000 0.130765565
H   H14       1.0  0.72823  0.02965  0.51389  1.0000 0.130765565
H   H15       1.0  0.02965  0.72823  0.72823  1.0000 0.130765565
H   H16       1.0  0.72823  0.51389  0.02965  1.0000 0.130765565
H   H17       1.0  0.02965  0.72823  0.51389  1.0000 0.130765565
H   H18       1.0  0.72823  0.02965  0.72823  1.0000 0.130765565
H   H19       1.0  0.51389  0.72823  0.02965  1.0000 0.130765565
H   H20       1.0  0.72823  0.51389  0.72823  1.0000 0.130765565
H   H21       1.0  0.72823  0.72823  0.02965  1.0000 0.130765565
H   H22       1.0  0.51389  0.02965  0.72823  1.0000 0.130765565
H   H23       1.0  0.72823  0.72823  0.51389  1.0000 0.130765565
H   H24       1.0  0.02965  0.51389  0.72823  1.0000 0.130765565
H   H25       1.0  0.28500  0.04120  0.71500  1.0000 0.4070360403
H   H26       1.0  0.71500  0.95880  0.28500  1.0000 0.4070360403
H   H27       1.0  0.04120  0.28500  0.95880  1.0000 0.4070360403
H   H28       1.0  0.95880  0.71500  0.04120  1.0000 0.4070360403
H   H29       1.0  0.04120  0.71500  0.28500  1.0000 0.4070360403
H   H30       1.0  0.95880  0.28500  0.71500  1.0000 0.4070360403
H   H31       1.0  0.28500  0.95880  0.04120  1.0000 0.4070360403
H   H32       1.0  0.71500  0.04120  0.95880  1.0000 0.4070360403
H   H33       1.0  0.71500  0.28500  0.04120  1.0000 0.4070360403
H   H34       1.0  0.28500  0.71500  0.95880  1.0000 0.4070360403
H   H35       1.0  0.95880  0.04120  0.28500  1.0000 0.4070360403
H   H36       1.0  0.04120  0.95880  0.71500  1.0000 0.4070360403
H   H37       1.0  0.71500  0.04120  0.28500  1.0000 0.4070360403
H   H38       1.0  0.28500  0.95880  0.71500  1.0000 0.4070360403
H   H39       1.0  0.95880  0.28500  0.04120  1.0000 0.4070360403
H   H40       1.0  0.04120  0.71500  0.95880  1.0000 0.4070360403
H   H41       1.0  0.95880  0.04120  0.71500  1.0000 0.4070360403
H   H42       1.0  0.04120  0.95880  0.28500  1.0000 0.4070360403
H   H43       1.0  0.71500  0.28500  0.95880  1.0000 0.4070360403
H   H44       1.0  0.28500  0.71500  0.04120  1.0000 0.4070360403
H   H45       1.0  0.28500  0.04120  0.95880  1.0000 0.4070360403
H   H46       1.0  0.71500  0.95880  0.04120  1.0000 0.4070360403
H   H47       1.0  0.04120  0.28500  0.71500  1.0000 0.4070360403
H   H48       1.0  0.95880  0.71500  0.28500  1.0000 0.4070360403
C   C1        1.0  0.43110  0.97664  0.43110  1.0000 0.5743370034
C   C2        1.0  0.38540  0.97192  0.38540  1.0000 -0.0193108027
C   C3        1.0  0.43110  0.16116  0.43110  1.0000 0.5743370034
C   C4        1.0  0.38540  0.25728  0.38540  1.0000 -0.0193108027
C   C5        1.0  0.97664  0.43110  0.16116  1.0000 0.5743370034
C   C6        1.0  0.97192  0.38540  0.25728  1.0000 -0.0193108027
C   C7        1.0  0.16116  0.43110  0.97664  1.0000 0.5743370034
C   C8        1.0  0.25728  0.38540  0.97192  1.0000 -0.0193108027
C   C9        1.0  0.97664  0.43110  0.43110  1.0000 0.5743370034
C   C10       1.0  0.97192  0.38540  0.38540  1.0000 -0.0193108027
C   C11       1.0  0.16116  0.43110  0.43110  1.0000 0.5743370034
C   C12       1.0  0.25728  0.38540  0.38540  1.0000 -0.0193108027
C   C13       1.0  0.43110  0.16116  0.97664  1.0000 0.5743370034
C   C14       1.0  0.38540  0.25728  0.97192  1.0000 -0.0193108027
C   C15       1.0  0.43110  0.97664  0.16116  1.0000 0.5743370034
C   C16       1.0  0.38540  0.97192  0.25728  1.0000 -0.0193108027
C   C17       1.0  0.43110  0.43110  0.97664  1.0000 0.5743370034
C   C18       1.0  0.38540  0.38540  0.97192  1.0000 -0.0193108027
C   C19       1.0  0.43110  0.43110  0.16116  1.0000 0.5743370034
C   C20       1.0  0.38540  0.38540  0.25728  1.0000 -0.0193108027
C   C21       1.0  0.16116  0.97664  0.43110  1.0000 0.5743370034
C   C22       1.0  0.25728  0.97192  0.38540  1.0000 -0.0193108027
C   C23       1.0  0.97664  0.16116  0.43110  1.0000 0.5743370034
C   C24       1.0  0.97192  0.25728  0.38540  1.0000 -0.0193108027
C   C25       1.0  0.56890  0.83884  0.56890  1.0000 0.5743370034
C   C26       1.0  0.61460  0.74272  0.61460  1.0000 -0.0193108027
C   C27       1.0  0.56890  0.02336  0.56890  1.0000 0.5743370034
C   C28       1.0  0.61460  0.02808  0.61460  1.0000 -0.0193108027
C   C29       1.0  0.02336  0.56890  0.83884  1.0000 0.5743370034
C   C30       1.0  0.02808  0.61460  0.74272  1.0000 -0.0193108027
C   C31       1.0  0.83884  0.56890  0.02336  1.0000 0.5743370034
C   C32       1.0  0.74272  0.61460  0.02808  1.0000 -0.0193108027
C   C33       1.0  0.02336  0.83884  0.56890  1.0000 0.5743370034
C   C34       1.0  0.02808  0.74272  0.61460  1.0000 -0.0193108027
C   C35       1.0  0.83884  0.02336  0.56890  1.0000 0.5743370034
C   C36       1.0  0.74272  0.02808  0.61460  1.0000 -0.0193108027
C   C37       1.0  0.56890  0.56890  0.02336  1.0000 0.5743370034
C   C38       1.0  0.61460  0.61460  0.02808  1.0000 -0.0193108027
C   C39       1.0  0.56890  0.56890  0.83884  1.0000 0.5743370034
C   C40       1.0  0.61460  0.61460  0.74272  1.0000 -0.0193108027
C   C41       1.0  0.56890  0.83884  0.02336  1.0000 0.5743370034
C   C42       1.0  0.61460  0.74272  0.02808  1.0000 -0.0193108027
C   C43       1.0  0.56890  0.02336  0.83884  1.0000 0.5743370034
C   C44       1.0  0.61460  0.02808  0.74272  1.0000 -0.0193108027
C   C45       1.0  0.83884  0.56890  0.56890  1.0000 0.5743370034
C   C46       1.0  0.74272  0.61460  0.61460  1.0000 -0.0193108027
C   C47       1.0  0.02336  0.56890  0.56890  1.0000 0.5743370034
C   C48       1.0  0.02808  0.61460  0.61460  1.0000 -0.0193108027
C   C49       1.0  0.42800  0.97120  0.30040  1.0000 -0.1007868151
C   C50       1.0  0.30040  0.30040  0.42800  1.0000 -0.1007868151
C   C51       1.0  0.97120  0.42800  0.30040  1.0000 -0.1007868151
C   C52       1.0  0.30040  0.30040  0.97120  1.0000 -0.1007868151
C   C53       1.0  0.97120  0.30040  0.42800  1.0000 -0.1007868151
C   C54       1.0  0.30040  0.42800  0.30040  1.0000 -0.1007868151
C   C55       1.0  0.42800  0.30040  0.97120  1.0000 -0.1007868151
C   C56       1.0  0.30040  0.97120  0.30040  1.0000 -0.1007868151
C   C57       1.0  0.30040  0.42800  0.97120  1.0000 -0.1007868151
C   C58       1.0  0.42800  0.30040  0.30040  1.0000 -0.1007868151
C   C59       1.0  0.30040  0.97120  0.42800  1.0000 -0.1007868151
C   C60       1.0  0.97120  0.30040  0.30040  1.0000 -0.1007868151
C   C61       1.0  0.57200  0.69960  0.69960  1.0000 -0.1007868151
C   C62       1.0  0.69960  0.02880  0.57200  1.0000 -0.1007868151
C   C63       1.0  0.02880  0.69960  0.69960  1.0000 -0.1007868151
C   C64       1.0  0.69960  0.57200  0.02880  1.0000 -0.1007868151
C   C65       1.0  0.02880  0.69960  0.57200  1.0000 -0.1007868151
C   C66       1.0  0.69960  0.02880  0.69960  1.0000 -0.1007868151
C   C67       1.0  0.57200  0.69960  0.02880  1.0000 -0.1007868151
C   C68       1.0  0.69960  0.57200  0.69960  1.0000 -0.1007868151
C   C69       1.0  0.69960  0.69960  0.02880  1.0000 -0.1007868151
C   C70       1.0  0.57200  0.02880  0.69960  1.0000 -0.1007868151
C   C71       1.0  0.69960  0.69960  0.57200  1.0000 -0.1007868151
C   C72       1.0  0.02880  0.57200  0.69960  1.0000 -0.1007868151
O   O1        1.0  0.38728  0.97858  0.50806  1.0000 -0.526350139
O   O2        1.0  0.50806  0.12608  0.38728  1.0000 -0.526350139
O   O3        1.0  0.97858  0.38728  0.12608  1.0000 -0.526350139
O   O4        1.0  0.12608  0.50806  0.97858  1.0000 -0.526350139
O   O5        1.0  0.97858  0.50806  0.38728  1.0000 -0.526350139
O   O6        1.0  0.12608  0.38728  0.50806  1.0000 -0.526350139
O   O7        1.0  0.38728  0.12608  0.97858  1.0000 -0.526350139
O   O8        1.0  0.50806  0.97858  0.12608  1.0000 -0.526350139
O   O9        1.0  0.50806  0.38728  0.97858  1.0000 -0.526350139
O   O10       1.0  0.38728  0.50806  0.12608  1.0000 -0.526350139
O   O11       1.0  0.12608  0.97858  0.38728  1.0000 -0.526350139
O   O12       1.0  0.97858  0.12608  0.50806  1.0000 -0.526350139
O   O13       1.0  0.61272  0.87392  0.49194  1.0000 -0.526350139
O   O14       1.0  0.49194  0.02142  0.61272  1.0000 -0.526350139
O   O15       1.0  0.02142  0.49194  0.87392  1.0000 -0.526350139
O   O16       1.0  0.87392  0.61272  0.02142  1.0000 -0.526350139
O   O17       1.0  0.02142  0.87392  0.61272  1.0000 -0.526350139
O   O18       1.0  0.87392  0.02142  0.49194  1.0000 -0.526350139
O   O19       1.0  0.61272  0.49194  0.02142  1.0000 -0.526350139
O   O20       1.0  0.49194  0.61272  0.87392  1.0000 -0.526350139
O   O21       1.0  0.49194  0.87392  0.02142  1.0000 -0.526350139
O   O22       1.0  0.61272  0.02142  0.87392  1.0000 -0.526350139
O   O23       1.0  0.87392  0.49194  0.61272  1.0000 -0.526350139
O   O24       1.0  0.02142  0.61272  0.49194  1.0000 -0.526350139
O   O25       1.0  0.61272  0.02142  0.49194  1.0000 -0.526350139
O   O26       1.0  0.49194  0.87392  0.61272  1.0000 -0.526350139
O   O27       1.0  0.02142  0.61272  0.87392  1.0000 -0.526350139
O   O28       1.0  0.87392  0.49194  0.02142  1.0000 -0.526350139
O   O29       1.0  0.02142  0.49194  0.61272  1.0000 -0.526350139
O   O30       1.0  0.87392  0.61272  0.49194  1.0000 -0.526350139
O   O31       1.0  0.61272  0.87392  0.02142  1.0000 -0.526350139
O   O32       1.0  0.49194  0.02142  0.87392  1.0000 -0.526350139
O   O33       1.0  0.49194  0.61272  0.02142  1.0000 -0.526350139
O   O34       1.0  0.61272  0.49194  0.87392  1.0000 -0.526350139
O   O35       1.0  0.87392  0.02142  0.61272  1.0000 -0.526350139
O   O36       1.0  0.02142  0.87392  0.49194  1.0000 -0.526350139
O   O37       1.0  0.38728  0.12608  0.50806  1.0000 -0.526350139
O   O38       1.0  0.50806  0.97858  0.38728  1.0000 -0.526350139
O   O39       1.0  0.97858  0.50806  0.12608  1.0000 -0.526350139
O   O40       1.0  0.12608  0.38728  0.97858  1.0000 -0.526350139
O   O41       1.0  0.97858  0.12608  0.38728  1.0000 -0.526350139
O   O42       1.0  0.12608  0.97858  0.50806  1.0000 -0.526350139
O   O43       1.0  0.38728  0.50806  0.97858  1.0000 -0.526350139
O   O44       1.0  0.50806  0.38728  0.12608  1.0000 -0.526350139
O   O45       1.0  0.50806  0.12608  0.97858  1.0000 -0.526350139
O   O46       1.0  0.38728  0.97858  0.12608  1.0000 -0.526350139
O   O47       1.0  0.12608  0.50806  0.38728  1.0000 -0.526350139
O   O48       1.0  0.97858  0.38728  0.50806  1.0000 -0.526350139
O   O49       1.0  0.31240  0.00000  0.68760  1.0000 -0.7317746701
O   O50       1.0  0.68760  0.00000  0.31240  1.0000 -0.7317746701
O   O51       1.0  0.00000  0.31240  0.00000  1.0000 -0.7317746701
O   O52       1.0  0.00000  0.68760  0.00000  1.0000 -0.7317746701
O   O53       1.0  0.00000  0.68760  0.31240  1.0000 -0.7317746701
O   O54       1.0  0.00000  0.31240  0.68760  1.0000 -0.7317746701
O   O55       1.0  0.31240  0.00000  0.00000  1.0000 -0.7317746701
O   O56       1.0  0.68760  0.00000  0.00000  1.0000 -0.7317746701
O   O57       1.0  0.68760  0.31240  0.00000  1.0000 -0.7317746701
O   O58       1.0  0.31240  0.68760  0.00000  1.0000 -0.7317746701
O   O59       1.0  0.00000  0.00000  0.31240  1.0000 -0.7317746701
O   O60       1.0  0.00000  0.00000  0.68760  1.0000 -0.7317746701
