# DDEC6 charges by PACMAN v1.1 (https://github.com/mtap-research/PACMAN-charge/)
data_2022[Cu][tbo]3[FSR]11
_chemical_formula_sum              "Cu12 H48 C72 O60"
_cell_length_a       18.5792
_cell_length_b       18.5792
_cell_length_c       18.5792
_cell_angle_alpha    60
_cell_angle_beta     60
_cell_angle_gamma    60

_symmetry_space_group_name_H-M    "P 1"
_symmetry_Int_Tables_number       1

loop_
  _symmetry_equiv_pos_as_xyz
  'x, y, z'

loop_
  _atom_site_type_symbol
  _atom_site_label
  _atom_site_symmetry_multiplicity
  _atom_site_fract_x
  _atom_site_fract_y
  _atom_site_fract_z
  _atom_site_occupancy
  _atom_site_charge
Cu  Cu1       1.0  0.57032  0.00000  0.42968  1.0000 0.8628735674
Cu  Cu2       1.0  0.00000  0.57032  0.00000  1.0000 0.8628735674
Cu  Cu3       1.0  0.42968  0.00000  0.57032  1.0000 0.8628735674
Cu  Cu4       1.0  0.00000  0.42968  0.00000  1.0000 0.8628735674
Cu  Cu5       1.0  0.42968  0.57032  0.00000  1.0000 0.8628735674
Cu  Cu6       1.0  0.00000  0.00000  0.57032  1.0000 0.8628735674
Cu  Cu7       1.0  0.57032  0.42968  0.00000  1.0000 0.8628735674
Cu  Cu8       1.0  0.00000  0.00000  0.42968  1.0000 0.8628735674
Cu  Cu9       1.0  0.00000  0.42968  0.57032  1.0000 0.8628735674
Cu  Cu10      1.0  0.57032  0.00000  0.00000  1.0000 0.8628735674
Cu  Cu11      1.0  0.00000  0.57032  0.42968  1.0000 0.8628735674
Cu  Cu12      1.0  0.42968  0.00000  0.00000  1.0000 0.8628735674
H   H1        1.0  0.71850  0.95850  0.28150  1.0000 0.4078501136
H   H2        1.0  0.95850  0.71850  0.04150  1.0000 0.4078501136
H   H3        1.0  0.28150  0.04150  0.71850  1.0000 0.4078501136
H   H4        1.0  0.04150  0.28150  0.95850  1.0000 0.4078501136
H   H5        1.0  0.28150  0.71850  0.95850  1.0000 0.4078501136
H   H6        1.0  0.04150  0.95850  0.71850  1.0000 0.4078501136
H   H7        1.0  0.71850  0.28150  0.04150  1.0000 0.4078501136
H   H8        1.0  0.95850  0.04150  0.28150  1.0000 0.4078501136
H   H9        1.0  0.95850  0.28150  0.71850  1.0000 0.4078501136
H   H10       1.0  0.71850  0.04150  0.95850  1.0000 0.4078501136
H   H11       1.0  0.04150  0.71850  0.28150  1.0000 0.4078501136
H   H12       1.0  0.28150  0.95850  0.04150  1.0000 0.4078501136
H   H13       1.0  0.28150  0.04150  0.95850  1.0000 0.4078501136
H   H14       1.0  0.04150  0.28150  0.71850  1.0000 0.4078501136
H   H15       1.0  0.71850  0.95850  0.04150  1.0000 0.4078501136
H   H16       1.0  0.95850  0.71850  0.28150  1.0000 0.4078501136
H   H17       1.0  0.71850  0.28150  0.95850  1.0000 0.4078501136
H   H18       1.0  0.95850  0.04150  0.71850  1.0000 0.4078501136
H   H19       1.0  0.28150  0.71850  0.04150  1.0000 0.4078501136
H   H20       1.0  0.04150  0.95850  0.28150  1.0000 0.4078501136
H   H21       1.0  0.04150  0.71850  0.95850  1.0000 0.4078501136
H   H22       1.0  0.28150  0.95850  0.71850  1.0000 0.4078501136
H   H23       1.0  0.95850  0.28150  0.04150  1.0000 0.4078501136
H   H24       1.0  0.71850  0.04150  0.28150  1.0000 0.4078501136
H   H25       1.0  0.51189  0.03053  0.72879  1.0000 0.1304223868
H   H26       1.0  0.03053  0.51189  0.72879  1.0000 0.1304223868
H   H27       1.0  0.72879  0.72879  0.51189  1.0000 0.1304223868
H   H28       1.0  0.72879  0.72879  0.03053  1.0000 0.1304223868
H   H29       1.0  0.72879  0.51189  0.03053  1.0000 0.1304223868
H   H30       1.0  0.72879  0.03053  0.51189  1.0000 0.1304223868
H   H31       1.0  0.51189  0.72879  0.72879  1.0000 0.1304223868
H   H32       1.0  0.03053  0.72879  0.72879  1.0000 0.1304223868
H   H33       1.0  0.03053  0.72879  0.51189  1.0000 0.1304223868
H   H34       1.0  0.51189  0.72879  0.03053  1.0000 0.1304223868
H   H35       1.0  0.72879  0.51189  0.72879  1.0000 0.1304223868
H   H36       1.0  0.72879  0.03053  0.72879  1.0000 0.1304223868
H   H37       1.0  0.48811  0.96947  0.27121  1.0000 0.1304223868
H   H38       1.0  0.96947  0.48811  0.27121  1.0000 0.1304223868
H   H39       1.0  0.27121  0.27121  0.96947  1.0000 0.1304223868
H   H40       1.0  0.27121  0.27121  0.48811  1.0000 0.1304223868
H   H41       1.0  0.27121  0.48811  0.27121  1.0000 0.1304223868
H   H42       1.0  0.27121  0.96947  0.27121  1.0000 0.1304223868
H   H43       1.0  0.48811  0.27121  0.96947  1.0000 0.1304223868
H   H44       1.0  0.96947  0.27121  0.48811  1.0000 0.1304223868
H   H45       1.0  0.96947  0.27121  0.27121  1.0000 0.1304223868
H   H46       1.0  0.48811  0.27121  0.27121  1.0000 0.1304223868
H   H47       1.0  0.27121  0.48811  0.96947  1.0000 0.1304223868
H   H48       1.0  0.27121  0.96947  0.48811  1.0000 0.1304223868
C   C1        1.0  0.56872  0.02448  0.56872  1.0000 0.5753213349
C   C2        1.0  0.61344  0.03000  0.61344  1.0000 -0.0242960805
C   C3        1.0  0.02448  0.56872  0.83808  1.0000 0.5753213349
C   C4        1.0  0.03000  0.61344  0.74312  1.0000 -0.0242960805
C   C5        1.0  0.56872  0.83808  0.56872  1.0000 0.5753213349
C   C6        1.0  0.61344  0.74312  0.61344  1.0000 -0.0242960805
C   C7        1.0  0.83808  0.56872  0.02448  1.0000 0.5753213349
C   C8        1.0  0.74312  0.61344  0.03000  1.0000 -0.0242960805
C   C9        1.0  0.56872  0.56872  0.02448  1.0000 0.5753213349
C   C10       1.0  0.61344  0.61344  0.03000  1.0000 -0.0242960805
C   C11       1.0  0.83808  0.02448  0.56872  1.0000 0.5753213349
C   C12       1.0  0.74312  0.03000  0.61344  1.0000 -0.0242960805
C   C13       1.0  0.56872  0.56872  0.83808  1.0000 0.5753213349
C   C14       1.0  0.61344  0.61344  0.74312  1.0000 -0.0242960805
C   C15       1.0  0.02448  0.83808  0.56872  1.0000 0.5753213349
C   C16       1.0  0.03000  0.74312  0.61344  1.0000 -0.0242960805
C   C17       1.0  0.02448  0.56872  0.56872  1.0000 0.5753213349
C   C18       1.0  0.03000  0.61344  0.61344  1.0000 -0.0242960805
C   C19       1.0  0.56872  0.83808  0.02448  1.0000 0.574768025
C   C20       1.0  0.61344  0.74312  0.03000  1.0000 -0.0242960805
C   C21       1.0  0.83808  0.56872  0.56872  1.0000 0.5753213349
C   C22       1.0  0.74312  0.61344  0.61344  1.0000 -0.0242960805
C   C23       1.0  0.56872  0.02448  0.83808  1.0000 0.5753213349
C   C24       1.0  0.61344  0.03000  0.74312  1.0000 -0.0252271094
C   C25       1.0  0.43128  0.97552  0.16192  1.0000 0.5753213349
C   C26       1.0  0.38656  0.97000  0.25688  1.0000 -0.0242960805
C   C27       1.0  0.97552  0.43128  0.43128  1.0000 0.5753213349
C   C28       1.0  0.97000  0.38656  0.38656  1.0000 -0.0242960805
C   C29       1.0  0.43128  0.16192  0.97552  1.0000 0.5753213349
C   C30       1.0  0.38656  0.25688  0.97000  1.0000 -0.0242960805
C   C31       1.0  0.16192  0.43128  0.43128  1.0000 0.5753213349
C   C32       1.0  0.25688  0.38656  0.38656  1.0000 -0.0242960805
C   C33       1.0  0.43128  0.43128  0.16192  1.0000 0.5753213349
C   C34       1.0  0.38656  0.38656  0.25688  1.0000 -0.0242960805
C   C35       1.0  0.16192  0.97552  0.43128  1.0000 0.5753213349
C   C36       1.0  0.25688  0.97000  0.38656  1.0000 -0.0242960805
C   C37       1.0  0.43128  0.43128  0.97552  1.0000 0.5753213349
C   C38       1.0  0.38656  0.38656  0.97000  1.0000 -0.0242960805
C   C39       1.0  0.97552  0.16192  0.43128  1.0000 0.5753213349
C   C40       1.0  0.97000  0.25688  0.38656  1.0000 -0.0242960805
C   C41       1.0  0.97552  0.43128  0.16192  1.0000 0.5753213349
C   C42       1.0  0.97000  0.38656  0.25688  1.0000 -0.0242960805
C   C43       1.0  0.43128  0.16192  0.43128  1.0000 0.5753213349
C   C44       1.0  0.38656  0.25688  0.38656  1.0000 -0.0242960805
C   C45       1.0  0.16192  0.43128  0.97552  1.0000 0.5753213349
C   C46       1.0  0.25688  0.38656  0.97000  1.0000 -0.0242960805
C   C47       1.0  0.43128  0.97552  0.43128  1.0000 0.5753213349
C   C48       1.0  0.38656  0.97000  0.38656  1.0000 -0.0242960805
C   C49       1.0  0.57039  0.03023  0.69969  1.0000 -0.0988479708
C   C50       1.0  0.03023  0.57039  0.69969  1.0000 -0.0988479708
C   C51       1.0  0.69969  0.69969  0.57039  1.0000 -0.0988479708
C   C52       1.0  0.69969  0.69969  0.03023  1.0000 -0.0988479708
C   C53       1.0  0.69969  0.57039  0.03023  1.0000 -0.0988479708
C   C54       1.0  0.69969  0.03023  0.57039  1.0000 -0.0988479708
C   C55       1.0  0.57039  0.69969  0.69969  1.0000 -0.0988479708
C   C56       1.0  0.03023  0.69969  0.69969  1.0000 -0.0988479708
C   C57       1.0  0.03023  0.69969  0.57039  1.0000 -0.0988479708
C   C58       1.0  0.57039  0.69969  0.03023  1.0000 -0.0988479708
C   C59       1.0  0.69969  0.57039  0.69969  1.0000 -0.0988479708
C   C60       1.0  0.69969  0.03023  0.69969  1.0000 -0.0988479708
C   C61       1.0  0.42961  0.96977  0.30031  1.0000 -0.0988479708
C   C62       1.0  0.96977  0.42961  0.30031  1.0000 -0.0988479708
C   C63       1.0  0.30031  0.30031  0.96977  1.0000 -0.0988479708
C   C64       1.0  0.30031  0.30031  0.42961  1.0000 -0.0988479708
C   C65       1.0  0.30031  0.42961  0.30031  1.0000 -0.0988479708
C   C66       1.0  0.30031  0.96977  0.30031  1.0000 -0.0988479708
C   C67       1.0  0.42961  0.30031  0.96977  1.0000 -0.0988479708
C   C68       1.0  0.96977  0.30031  0.42961  1.0000 -0.0988479708
C   C69       1.0  0.96977  0.30031  0.30031  1.0000 -0.0988479708
C   C70       1.0  0.42961  0.30031  0.30031  1.0000 -0.0988479708
C   C71       1.0  0.30031  0.42961  0.96977  1.0000 -0.0988479708
C   C72       1.0  0.30031  0.96977  0.42961  1.0000 -0.0988479708
O   O1        1.0  0.61282  0.02114  0.49206  1.0000 -0.5221266105
O   O2        1.0  0.02114  0.61282  0.87398  1.0000 -0.5221266105
O   O3        1.0  0.49206  0.87398  0.61282  1.0000 -0.5221266105
O   O4        1.0  0.87398  0.49206  0.02114  1.0000 -0.5221266105
O   O5        1.0  0.49206  0.61282  0.02114  1.0000 -0.5221266105
O   O6        1.0  0.87398  0.02114  0.61282  1.0000 -0.5221266105
O   O7        1.0  0.61282  0.49206  0.87398  1.0000 -0.5221266105
O   O8        1.0  0.02114  0.87398  0.49206  1.0000 -0.5221266105
O   O9        1.0  0.02114  0.49206  0.61282  1.0000 -0.5221266105
O   O10       1.0  0.61282  0.87398  0.02114  1.0000 -0.5221266105
O   O11       1.0  0.87398  0.61282  0.49206  1.0000 -0.5221266105
O   O12       1.0  0.49206  0.02114  0.87398  1.0000 -0.5221266105
O   O13       1.0  0.38718  0.97886  0.12602  1.0000 -0.5221266105
O   O14       1.0  0.97886  0.38718  0.50794  1.0000 -0.5221266105
O   O15       1.0  0.50794  0.12602  0.97886  1.0000 -0.5221266105
O   O16       1.0  0.12602  0.50794  0.38718  1.0000 -0.5221266105
O   O17       1.0  0.50794  0.38718  0.12602  1.0000 -0.5221266105
O   O18       1.0  0.12602  0.97886  0.50794  1.0000 -0.5221266105
O   O19       1.0  0.38718  0.50794  0.97886  1.0000 -0.5221266105
O   O20       1.0  0.97886  0.12602  0.38718  1.0000 -0.5221266105
O   O21       1.0  0.97886  0.50794  0.12602  1.0000 -0.5221266105
O   O22       1.0  0.38718  0.12602  0.50794  1.0000 -0.5221266105
O   O23       1.0  0.12602  0.38718  0.97886  1.0000 -0.5221266105
O   O24       1.0  0.50794  0.97886  0.38718  1.0000 -0.5221266105
O   O25       1.0  0.38718  0.97886  0.50794  1.0000 -0.5221266105
O   O26       1.0  0.97886  0.38718  0.12602  1.0000 -0.5221266105
O   O27       1.0  0.50794  0.12602  0.38718  1.0000 -0.5221266105
O   O28       1.0  0.12602  0.50794  0.97886  1.0000 -0.5221266105
O   O29       1.0  0.50794  0.38718  0.97886  1.0000 -0.5221266105
O   O30       1.0  0.12602  0.97886  0.38718  1.0000 -0.5221266105
O   O31       1.0  0.38718  0.50794  0.12602  1.0000 -0.5221266105
O   O32       1.0  0.97886  0.12602  0.50794  1.0000 -0.5221266105
O   O33       1.0  0.97886  0.50794  0.38718  1.0000 -0.5221266105
O   O34       1.0  0.38718  0.12602  0.97886  1.0000 -0.5221266105
O   O35       1.0  0.12602  0.38718  0.50794  1.0000 -0.5221266105
O   O36       1.0  0.50794  0.97886  0.12602  1.0000 -0.5221266105
O   O37       1.0  0.61282  0.02114  0.87398  1.0000 -0.5221266105
O   O38       1.0  0.02114  0.61282  0.49206  1.0000 -0.5221266105
O   O39       1.0  0.49206  0.87398  0.02114  1.0000 -0.5221266105
O   O40       1.0  0.87398  0.49206  0.61282  1.0000 -0.5221266105
O   O41       1.0  0.49206  0.61282  0.87398  1.0000 -0.5221266105
O   O42       1.0  0.87398  0.02114  0.49206  1.0000 -0.5221266105
O   O43       1.0  0.61282  0.49206  0.02114  1.0000 -0.5221266105
O   O44       1.0  0.02114  0.87398  0.61282  1.0000 -0.5221266105
O   O45       1.0  0.02114  0.49206  0.87398  1.0000 -0.5221266105
O   O46       1.0  0.61282  0.87398  0.49206  1.0000 -0.5221266105
O   O47       1.0  0.87398  0.61282  0.02114  1.0000 -0.5221266105
O   O48       1.0  0.49206  0.02114  0.61282  1.0000 -0.5221266105
O   O49       1.0  0.68868  0.00000  0.31132  1.0000 -0.754886609
O   O50       1.0  0.00000  0.68868  0.00000  1.0000 -0.7553261337
O   O51       1.0  0.31132  0.00000  0.68868  1.0000 -0.754886609
O   O52       1.0  0.00000  0.31132  0.00000  1.0000 -0.7553261337
O   O53       1.0  0.31132  0.68868  0.00000  1.0000 -0.7553261337
O   O54       1.0  0.00000  0.00000  0.68868  1.0000 -0.754886609
O   O55       1.0  0.68868  0.31132  0.00000  1.0000 -0.7553261337
O   O56       1.0  0.00000  0.00000  0.31132  1.0000 -0.7553261337
O   O57       1.0  0.00000  0.31132  0.68868  1.0000 -0.754886609
O   O58       1.0  0.68868  0.00000  0.00000  1.0000 -0.754886609
O   O59       1.0  0.00000  0.68868  0.31132  1.0000 -0.7553261337
O   O60       1.0  0.31132  0.00000  0.00000  1.0000 -0.7553261337
