# DDEC6 charges by PACMAN v1.1 (https://github.com/mtap-research/PACMAN-charge/)
data_2022[Zn][lon]3[FSR]4
_chemical_formula_sum              "Zn2 H24 C18 N8 O6"
_cell_length_a       9.3008
_cell_length_b       8.7747
_cell_length_c       9.7001
_cell_angle_alpha    90
_cell_angle_beta     112.461
_cell_angle_gamma    90

_symmetry_space_group_name_H-M    "P 1"
_symmetry_Int_Tables_number       1

loop_
  _symmetry_equiv_pos_as_xyz
  'x, y, z'

loop_
  _atom_site_type_symbol
  _atom_site_label
  _atom_site_symmetry_multiplicity
  _atom_site_fract_x
  _atom_site_fract_y
  _atom_site_fract_z
  _atom_site_occupancy
  _atom_site_charge
Zn  Zn1       1.0  0.90821  0.41019  0.78668  1.0000 0.7157733428
Zn  Zn2       1.0  0.09179  0.91019  0.21332  1.0000 0.7157733428
H   H1        1.0  0.68001  0.49138  0.57003  1.0000 0.2842437612
H   H2        1.0  0.65116  0.53150  0.70054  1.0000 0.2603593158
H   H3        1.0  0.12279  0.36707  0.41509  1.0000 0.273540436
H   H4        1.0  0.58484  0.26149  0.55425  1.0000 0.0979856526
H   H5        1.0  0.59884  0.26891  0.72054  1.0000 0.0979856526
H   H6        1.0  0.38046  0.43848  0.48491  1.0000 0.141299485
H   H7        1.0  0.39662  0.45231  0.65137  1.0000 0.141299485
H   H8        1.0  0.05658  0.07575  0.46045  1.0000 0.0903127181
H   H9        1.0  0.82563  0.30057  0.32881  1.0000 0.1266961979
H   H10       1.0  0.80189  0.12427  0.30884  1.0000 0.1266961979
H   H11       1.0  0.80105  0.41148  0.07514  1.0000 0.1266961979
H   H12       1.0  0.03003  0.10860  0.94583  1.0000 0.0979856526
H   H13       1.0  0.31999  0.99138  0.42997  1.0000 0.2842437612
H   H14       1.0  0.34884  0.03150  0.29946  1.0000 0.2603593158
H   H15       1.0  0.87721  0.86707  0.58491  1.0000 0.273540436
H   H16       1.0  0.41516  0.76149  0.44575  1.0000 0.0979856526
H   H17       1.0  0.40116  0.76891  0.27946  1.0000 0.0979856526
H   H18       1.0  0.61954  0.93848  0.51509  1.0000 0.141299485
H   H19       1.0  0.60338  0.95231  0.34863  1.0000 0.141299485
H   H20       1.0  0.94342  0.57575  0.53955  1.0000 0.0903127181
H   H21       1.0  0.17437  0.80057  0.67119  1.0000 0.1266961979
H   H22       1.0  0.19811  0.62427  0.69116  1.0000 0.1266961979
H   H23       1.0  0.19895  0.91148  0.92486  1.0000 0.1266961979
H   H24       1.0  0.96997  0.60860  0.05417  1.0000 0.0979856526
C   C1        1.0  0.57370  0.32770  0.62960  1.0000 0.0022934491
C   C2        1.0  0.40640  0.38280  0.57770  1.0000 -0.36150998
C   C3        1.0  0.29230  0.25260  0.55410  1.0000 0.5189097511
C   C4        1.0  0.02030  0.18060  0.46060  1.0000 0.0022934491
C   C5        1.0  0.97340  0.20130  0.59530  1.0000 0.5589144813
C   C6        1.0  0.87480  0.20640  0.31780  1.0000 -0.2883789254
C   C7        1.0  0.90330  0.21450  0.17660  1.0000 0.177219777
C   C8        1.0  0.85710  0.32490  0.07140  1.0000 -0.142035724
C   C9        1.0  0.98160  0.15880  0.00080  1.0000 0.1547661858
C   C10       1.0  0.42630  0.82770  0.37040  1.0000 0.0022934491
C   C11       1.0  0.59360  0.88280  0.42230  1.0000 -0.36150998
C   C12       1.0  0.70770  0.75260  0.44590  1.0000 0.5189097511
C   C13       1.0  0.97970  0.68060  0.53940  1.0000 0.0022934491
C   C14       1.0  0.02660  0.70130  0.40470  1.0000 0.5589144813
C   C15       1.0  0.12520  0.70640  0.68220  1.0000 -0.2883789254
C   C16       1.0  0.09670  0.71450  0.82340  1.0000 0.177219777
C   C17       1.0  0.14290  0.82490  0.92860  1.0000 -0.142035724
C   C18       1.0  0.01840  0.65880  0.99920  1.0000 0.1547661858
N   N1        1.0  0.68370  0.45680  0.65760  1.0000 -0.5242670489
N   N2        1.0  0.14440  0.28470  0.46710  1.0000 -0.3712916684
N   N3        1.0  0.98250  0.10500  0.13020  1.0000 -0.3712916684
N   N4        1.0  0.90620  0.28910  0.95720  1.0000 -0.3080220831
N   N5        1.0  0.31630  0.95680  0.34240  1.0000 -0.5242670489
N   N6        1.0  0.85560  0.78470  0.53290  1.0000 -0.3712916684
N   N7        1.0  0.01750  0.60500  0.86980  1.0000 -0.3712916684
N   N8        1.0  0.09380  0.78910  0.04280  1.0000 -0.3080220831
O   O1        1.0  0.33490  0.12610  0.61190  1.0000 -0.5337948812
O   O2        1.0  0.01350  0.32840  0.66450  1.0000 -0.5391812933
O   O3        1.0  0.89560  0.10140  0.62350  1.0000 -0.5554979158
O   O4        1.0  0.66510  0.62610  0.38810  1.0000 -0.5337948812
O   O5        1.0  0.98650  0.82840  0.33550  1.0000 -0.5391812933
O   O6        1.0  0.10440  0.60140  0.37650  1.0000 -0.5554979158
