# DDEC6 charges by PACMAN v1.1 (https://github.com/mtap-research/PACMAN-charge/)
data_2022[CuSi][mmo]2[FSR]2
_chemical_formula_sum              "Cu3 Si3 H60 C72 N24 F30"
_cell_length_a       13.3012
_cell_length_b       13.3012
_cell_length_c       13.3012
_cell_angle_alpha    89.1408
_cell_angle_beta     89.1408
_cell_angle_gamma    89.1408

_symmetry_space_group_name_H-M    "P 1"
_symmetry_Int_Tables_number       1

loop_
  _symmetry_equiv_pos_as_xyz
  'x, y, z'

loop_
  _atom_site_type_symbol
  _atom_site_label
  _atom_site_symmetry_multiplicity
  _atom_site_fract_x
  _atom_site_fract_y
  _atom_site_fract_z
  _atom_site_occupancy
  _atom_site_charge
Cu  Cu1       1.0  0.00000  0.62756  0.37244  1.0000 0.4340193198
Cu  Cu2       1.0  0.62756  0.37244  0.00000  1.0000 0.4359468595
Cu  Cu3       1.0  0.37244  0.00000  0.62756  1.0000 0.4340193198
Si  Si1       1.0  0.23890  0.76110  0.50000  1.0000 1.1174150185
Si  Si2       1.0  0.76110  0.50000  0.23890  1.0000 1.1282364205
Si  Si3       1.0  0.50000  0.23890  0.76110  1.0000 1.1174150185
H   H1        1.0  0.05654  0.84564  0.37642  1.0000 0.0733656959
H   H2        1.0  0.78625  0.75174  0.33520  1.0000 0.0992790147
H   H3        1.0  0.77860  0.93613  0.32824  1.0000 0.0992790147
H   H4        1.0  0.10923  0.99378  0.38894  1.0000 0.0992790147
H   H5        1.0  0.82941  0.09690  0.34277  1.0000 0.1104815677
H   H6        1.0  0.20566  0.49961  0.42619  1.0000 0.0992790147
H   H7        1.0  0.21624  0.31691  0.41888  1.0000 0.0992790147
H   H8        1.0  0.94397  0.40609  0.34861  1.0000 0.0733656959
H   H9        1.0  0.88929  0.25720  0.34988  1.0000 0.0992790147
H   H10       1.0  0.16585  0.15835  0.39663  1.0000 0.1104815677
H   H11       1.0  0.84564  0.37642  0.05654  1.0000 0.0733656959
H   H12       1.0  0.75174  0.33520  0.78625  1.0000 0.0992790147
H   H13       1.0  0.93613  0.32824  0.77860  1.0000 0.0992790147
H   H14       1.0  0.99378  0.38894  0.10923  1.0000 0.0992790147
H   H15       1.0  0.09690  0.34277  0.82941  1.0000 0.1104815677
H   H16       1.0  0.49961  0.42619  0.20566  1.0000 0.0992790147
H   H17       1.0  0.31691  0.41888  0.21624  1.0000 0.0992790147
H   H18       1.0  0.40609  0.34861  0.94397  1.0000 0.0733656959
H   H19       1.0  0.25720  0.34988  0.88929  1.0000 0.0992790147
H   H20       1.0  0.15835  0.39663  0.16585  1.0000 0.1104815677
H   H21       1.0  0.37642  0.05654  0.84564  1.0000 0.0733656959
H   H22       1.0  0.33520  0.78625  0.75174  1.0000 0.0992790147
H   H23       1.0  0.32824  0.77860  0.93613  1.0000 0.0992790147
H   H24       1.0  0.38894  0.10923  0.99378  1.0000 0.0992790147
H   H25       1.0  0.34277  0.82941  0.09690  1.0000 0.1104815677
H   H26       1.0  0.42619  0.20566  0.49961  1.0000 0.0992790147
H   H27       1.0  0.41888  0.21624  0.31691  1.0000 0.0992790147
H   H28       1.0  0.34861  0.94397  0.40609  1.0000 0.0733656959
H   H29       1.0  0.34988  0.88929  0.25720  1.0000 0.0992790147
H   H30       1.0  0.39663  0.16585  0.15835  1.0000 0.1104815677
H   H31       1.0  0.94346  0.62358  0.15436  1.0000 0.0733656959
H   H32       1.0  0.21375  0.66480  0.24826  1.0000 0.0992790147
H   H33       1.0  0.22140  0.67176  0.06387  1.0000 0.0992790147
H   H34       1.0  0.89077  0.61106  0.00622  1.0000 0.0992790147
H   H35       1.0  0.17059  0.65723  0.90310  1.0000 0.1104815677
H   H36       1.0  0.79434  0.57381  0.50039  1.0000 0.0992790147
H   H37       1.0  0.78376  0.58112  0.68309  1.0000 0.0992790147
H   H38       1.0  0.05603  0.65139  0.59391  1.0000 0.0733656959
H   H39       1.0  0.11071  0.65012  0.74280  1.0000 0.0992790147
H   H40       1.0  0.83415  0.60337  0.84165  1.0000 0.1104815677
H   H41       1.0  0.15436  0.94346  0.62358  1.0000 0.0733656959
H   H42       1.0  0.24826  0.21375  0.66480  1.0000 0.0992790147
H   H43       1.0  0.06387  0.22140  0.67176  1.0000 0.0992790147
H   H44       1.0  0.00622  0.89077  0.61106  1.0000 0.0992790147
H   H45       1.0  0.90310  0.17059  0.65723  1.0000 0.1104815677
H   H46       1.0  0.50039  0.79434  0.57381  1.0000 0.0992790147
H   H47       1.0  0.68309  0.78376  0.58112  1.0000 0.0992790147
H   H48       1.0  0.59391  0.05603  0.65139  1.0000 0.0733656959
H   H49       1.0  0.74280  0.11071  0.65012  1.0000 0.0992790147
H   H50       1.0  0.84165  0.83415  0.60337  1.0000 0.1104815677
H   H51       1.0  0.62358  0.15436  0.94346  1.0000 0.0733656959
H   H52       1.0  0.66480  0.24826  0.21375  1.0000 0.0992790147
H   H53       1.0  0.67176  0.06387  0.22140  1.0000 0.0992790147
H   H54       1.0  0.61106  0.00622  0.89077  1.0000 0.0992790147
H   H55       1.0  0.65723  0.90310  0.17059  1.0000 0.1104815677
H   H56       1.0  0.57381  0.50039  0.79434  1.0000 0.0992790147
H   H57       1.0  0.58112  0.68309  0.78376  1.0000 0.0992790147
H   H58       1.0  0.65139  0.59391  0.05603  1.0000 0.0733656959
H   H59       1.0  0.65012  0.74280  0.11071  1.0000 0.0992790147
H   H60       1.0  0.60337  0.84165  0.83415  1.0000 0.1104815677
C   C1        1.0  0.98790  0.84540  0.36390  1.0000 0.0887577323
C   C2        1.0  0.84050  0.79430  0.34160  1.0000 -0.0479386898
C   C3        1.0  0.83550  0.89590  0.33830  1.0000 -0.1581321433
C   C4        1.0  0.06450  0.04720  0.37890  1.0000 -0.1909382312
C   C5        1.0  0.96700  0.02910  0.35860  1.0000 0.1420164481
C   C6        1.0  0.89750  0.10830  0.35130  1.0000 -0.1794298564
C   C7        1.0  0.15340  0.45770  0.40960  1.0000 -0.0479386898
C   C8        1.0  0.15990  0.35710  0.40680  1.0000 -0.1400698336
C   C9        1.0  0.01090  0.40720  0.36830  1.0000 0.0887577323
C   C10       1.0  0.93430  0.20330  0.35720  1.0000 -0.1909382312
C   C11       1.0  0.03260  0.22380  0.37340  1.0000 0.1320129907
C   C12       1.0  0.09850  0.14610  0.38490  1.0000 -0.1909382312
C   C13       1.0  0.84540  0.36390  0.98790  1.0000 0.0887577323
C   C14       1.0  0.79430  0.34160  0.84050  1.0000 -0.0479386898
C   C15       1.0  0.89590  0.33830  0.83550  1.0000 -0.1581321433
C   C16       1.0  0.04720  0.37890  0.06450  1.0000 -0.1909382312
C   C17       1.0  0.02910  0.35860  0.96700  1.0000 0.1420164481
C   C18       1.0  0.10830  0.35130  0.89750  1.0000 -0.1794298564
C   C19       1.0  0.45770  0.40960  0.15340  1.0000 -0.0479386898
C   C20       1.0  0.35710  0.40680  0.15990  1.0000 -0.1400698336
C   C21       1.0  0.40720  0.36830  0.01090  1.0000 0.0887577323
C   C22       1.0  0.20330  0.35720  0.93430  1.0000 -0.1909382312
C   C23       1.0  0.22380  0.37340  0.03260  1.0000 0.1320129907
C   C24       1.0  0.14610  0.38490  0.09850  1.0000 -0.1909382312
C   C25       1.0  0.36390  0.98790  0.84540  1.0000 0.0887577323
C   C26       1.0  0.34160  0.84050  0.79430  1.0000 -0.0479386898
C   C27       1.0  0.33830  0.83550  0.89590  1.0000 -0.1581321433
C   C28       1.0  0.37890  0.06450  0.04720  1.0000 -0.1909382312
C   C29       1.0  0.35860  0.96700  0.02910  1.0000 0.1420164481
C   C30       1.0  0.35130  0.89750  0.10830  1.0000 -0.1794298564
C   C31       1.0  0.40960  0.15340  0.45770  1.0000 -0.0479386898
C   C32       1.0  0.40680  0.15990  0.35710  1.0000 -0.1400698336
C   C33       1.0  0.36830  0.01090  0.40720  1.0000 0.0887577323
C   C34       1.0  0.35720  0.93430  0.20330  1.0000 -0.1909382312
C   C35       1.0  0.37340  0.03260  0.22380  1.0000 0.1320129907
C   C36       1.0  0.38490  0.09850  0.14610  1.0000 -0.1950171217
C   C37       1.0  0.01210  0.63610  0.15460  1.0000 0.0887577323
C   C38       1.0  0.15950  0.65840  0.20570  1.0000 -0.0479386898
C   C39       1.0  0.16450  0.66170  0.10410  1.0000 -0.1581321433
C   C40       1.0  0.93550  0.62110  0.95280  1.0000 -0.1909382312
C   C41       1.0  0.03300  0.64140  0.97090  1.0000 0.1420164481
C   C42       1.0  0.10250  0.64870  0.89170  1.0000 -0.1794298564
C   C43       1.0  0.84660  0.59040  0.54230  1.0000 -0.0479386898
C   C44       1.0  0.84010  0.59320  0.64290  1.0000 -0.1400698336
C   C45       1.0  0.98910  0.63170  0.59280  1.0000 0.0887577323
C   C46       1.0  0.06570  0.64280  0.79670  1.0000 -0.1909382312
C   C47       1.0  0.96740  0.62660  0.77620  1.0000 0.1320129907
C   C48       1.0  0.90150  0.61510  0.85390  1.0000 -0.1909382312
C   C49       1.0  0.15460  0.01210  0.63610  1.0000 0.0887577323
C   C50       1.0  0.20570  0.15950  0.65840  1.0000 -0.0479386898
C   C51       1.0  0.10410  0.16450  0.66170  1.0000 -0.1581321433
C   C52       1.0  0.95280  0.93550  0.62110  1.0000 -0.1909382312
C   C53       1.0  0.97090  0.03300  0.64140  1.0000 0.1420164481
C   C54       1.0  0.89170  0.10250  0.64870  1.0000 -0.1794298564
C   C55       1.0  0.54230  0.84660  0.59040  1.0000 -0.0479386898
C   C56       1.0  0.64290  0.84010  0.59320  1.0000 -0.1400698336
C   C57       1.0  0.59280  0.98910  0.63170  1.0000 0.0887577323
C   C58       1.0  0.79670  0.06570  0.64280  1.0000 -0.1909382312
C   C59       1.0  0.77620  0.96740  0.62660  1.0000 0.1320129907
C   C60       1.0  0.85390  0.90150  0.61510  1.0000 -0.1909382312
C   C61       1.0  0.63610  0.15460  0.01210  1.0000 0.0887577323
C   C62       1.0  0.65840  0.20570  0.15950  1.0000 -0.0479386898
C   C63       1.0  0.66170  0.10410  0.16450  1.0000 -0.1581321433
C   C64       1.0  0.62110  0.95280  0.93550  1.0000 -0.1909382312
C   C65       1.0  0.64140  0.97090  0.03300  1.0000 0.1420164481
C   C66       1.0  0.64870  0.89170  0.10250  1.0000 -0.1794298564
C   C67       1.0  0.59040  0.54230  0.84660  1.0000 -0.0479386898
C   C68       1.0  0.59320  0.64290  0.84010  1.0000 -0.1400698336
C   C69       1.0  0.63170  0.59280  0.98910  1.0000 0.0887577323
C   C70       1.0  0.64280  0.79670  0.06570  1.0000 -0.1909382312
C   C71       1.0  0.62660  0.77620  0.96740  1.0000 0.1320129907
C   C72       1.0  0.61510  0.85390  0.90150  1.0000 -0.1909382312
N   N1        1.0  0.93690  0.76420  0.35570  1.0000 -0.264725618
N   N2        1.0  0.93310  0.92730  0.35300  1.0000 -0.0053396555
N   N3        1.0  0.05960  0.48960  0.38450  1.0000 -0.2682090267
N   N4        1.0  0.06640  0.32610  0.38250  1.0000 -0.0026437378
N   N5        1.0  0.76420  0.35570  0.93690  1.0000 -0.2682090267
N   N6        1.0  0.92730  0.35300  0.93310  1.0000 -0.0053396555
N   N7        1.0  0.48960  0.38450  0.05960  1.0000 -0.2682090267
N   N8        1.0  0.32610  0.38250  0.06640  1.0000 -0.0026437378
N   N9        1.0  0.35570  0.93690  0.76420  1.0000 -0.2682090267
N   N10       1.0  0.35300  0.93310  0.92730  1.0000 -0.0053396555
N   N11       1.0  0.38450  0.05960  0.48960  1.0000 -0.2682090267
N   N12       1.0  0.38250  0.06640  0.32610  1.0000 -0.0026437378
N   N13       1.0  0.06310  0.64430  0.23580  1.0000 -0.2682090267
N   N14       1.0  0.06690  0.64700  0.07270  1.0000 -0.0053396555
N   N15       1.0  0.94040  0.61550  0.51040  1.0000 -0.2682090267
N   N16       1.0  0.93360  0.61750  0.67390  1.0000 -0.0026437378
N   N17       1.0  0.23580  0.06310  0.64430  1.0000 -0.264725618
N   N18       1.0  0.07270  0.06690  0.64700  1.0000 -0.0053396555
N   N19       1.0  0.51040  0.94040  0.61550  1.0000 -0.2682090267
N   N20       1.0  0.67390  0.93360  0.61750  1.0000 -0.0026437378
N   N21       1.0  0.64430  0.23580  0.06310  1.0000 -0.2682090267
N   N22       1.0  0.64700  0.07270  0.06690  1.0000 -0.0053396555
N   N23       1.0  0.61550  0.51040  0.94040  1.0000 -0.2682090267
N   N24       1.0  0.61750  0.67390  0.93360  1.0000 -0.0026437378
F   F1        1.0  0.15921  0.68471  0.44121  1.0000 -0.454338096
F   F2        1.0  0.28160  0.65610  0.55500  1.0000 -0.0393507616
F   F3        1.0  0.31230  0.75290  0.40350  1.0000 0.0204856726
F   F4        1.0  0.16050  0.77320  0.60460  1.0000 -0.0393507616
F   F5        1.0  0.18730  0.86830  0.45480  1.0000 0.0103645214
F   F6        1.0  0.68471  0.44121  0.15921  1.0000 -0.4553042575
F   F7        1.0  0.65610  0.55500  0.28160  1.0000 -0.0393507616
F   F8        1.0  0.75290  0.40350  0.31230  1.0000 0.0204856726
F   F9        1.0  0.77320  0.60460  0.16050  1.0000 -0.0393507616
F   F10       1.0  0.86830  0.45480  0.18730  1.0000 0.0103645214
F   F11       1.0  0.44121  0.15921  0.68471  1.0000 -0.454338096
F   F12       1.0  0.55500  0.28160  0.65610  1.0000 -0.0393507616
F   F13       1.0  0.40350  0.31230  0.75290  1.0000 0.0204856726
F   F14       1.0  0.60460  0.16050  0.77320  1.0000 -0.0393507616
F   F15       1.0  0.45480  0.18730  0.86830  1.0000 0.0103645214
F   F16       1.0  0.84079  0.55879  0.31529  1.0000 -0.4553042575
F   F17       1.0  0.71840  0.44500  0.34390  1.0000 -0.0393507616
F   F18       1.0  0.68770  0.59650  0.24710  1.0000 0.0204856726
F   F19       1.0  0.83950  0.39540  0.22680  1.0000 -0.0393507616
F   F20       1.0  0.81270  0.54520  0.13170  1.0000 0.0103645214
F   F21       1.0  0.31529  0.84079  0.55879  1.0000 -0.454338096
F   F22       1.0  0.34390  0.71840  0.44500  1.0000 -0.0393507616
F   F23       1.0  0.24710  0.68770  0.59650  1.0000 0.0204856726
F   F24       1.0  0.22680  0.83950  0.39540  1.0000 -0.0393507616
F   F25       1.0  0.13170  0.81270  0.54520  1.0000 0.0103645214
F   F26       1.0  0.55879  0.31529  0.84079  1.0000 -0.454338096
F   F27       1.0  0.44500  0.34390  0.71840  1.0000 -0.0393507616
F   F28       1.0  0.59650  0.24710  0.68770  1.0000 0.0204856726
F   F29       1.0  0.39540  0.22680  0.83950  1.0000 -0.0393507616
F   F30       1.0  0.54520  0.13170  0.81270  1.0000 0.0103645214
