# DDEC6 charges by PACMAN v1.1 (https://github.com/mtap-research/PACMAN-charge/)
data_2022[Tb][ant]3[FSR]1
_chemical_formula_sum              "Tb2 H28 C44 N26 O14"
_cell_length_a       12.5262
_cell_length_b       12.5262
_cell_length_c       10.8022
_cell_angle_alpha    64.4579
_cell_angle_beta     115.542
_cell_angle_gamma    113.941

_symmetry_space_group_name_H-M    "P 1"
_symmetry_Int_Tables_number       1

loop_
  _symmetry_equiv_pos_as_xyz
  'x, y, z'

loop_
  _atom_site_type_symbol
  _atom_site_label
  _atom_site_symmetry_multiplicity
  _atom_site_fract_x
  _atom_site_fract_y
  _atom_site_fract_z
  _atom_site_occupancy
  _atom_site_charge
Tb  Tb1       1.0  0.03915  0.03915  0.75000  1.0000 1.9746867871
Tb  Tb2       1.0  0.96085  0.96085  0.25000  1.0000 1.9746867871
H   H1        1.0  0.64280  0.08320  0.90200  1.0000 0.1305347264
H   H2        1.0  0.44560  0.18860  0.48280  1.0000 0.1387788609
H   H3        1.0  0.76440  0.11240  0.59590  1.0000 0.1387788609
H   H4        1.0  0.34750  0.17890  0.92480  1.0000 0.1124792024
H   H5        1.0  0.27630  0.08330  0.59540  1.0000 0.1305347264
H   H6        1.0  0.49080  0.30760  0.25600  1.0000 0.1201821534
H   H7        1.0  0.62180  0.15980  0.12610  1.0000 0.0998085519
H   H8        1.0  0.08320  0.64280  0.59800  1.0000 0.1305347264
H   H9        1.0  0.18860  0.44560  0.01720  1.0000 0.1387788609
H   H10       1.0  0.11240  0.76440  0.90410  1.0000 0.1387788609
H   H11       1.0  0.17890  0.34750  0.57520  1.0000 0.1124792024
H   H12       1.0  0.08330  0.27630  0.90460  1.0000 0.1305347264
H   H13       1.0  0.30760  0.49080  0.24400  1.0000 0.1201821534
H   H14       1.0  0.15980  0.62180  0.37390  1.0000 0.0998085519
H   H15       1.0  0.35720  0.91680  0.09800  1.0000 0.1305347264
H   H16       1.0  0.55440  0.81140  0.51720  1.0000 0.1387788609
H   H17       1.0  0.23560  0.88760  0.40410  1.0000 0.1387788609
H   H18       1.0  0.65250  0.82110  0.07520  1.0000 0.1124792024
H   H19       1.0  0.72370  0.91670  0.40460  1.0000 0.1305347264
H   H20       1.0  0.50920  0.69240  0.74400  1.0000 0.1201821534
H   H21       1.0  0.37820  0.84020  0.87390  1.0000 0.0998085519
H   H22       1.0  0.91680  0.35720  0.40200  1.0000 0.1305347264
H   H23       1.0  0.81140  0.55440  0.98280  1.0000 0.1387788609
H   H24       1.0  0.88760  0.23560  0.09590  1.0000 0.1387788609
H   H25       1.0  0.82110  0.65250  0.42480  1.0000 0.1124792024
H   H26       1.0  0.91670  0.72370  0.09540  1.0000 0.1305347264
H   H27       1.0  0.69240  0.50920  0.75600  1.0000 0.1201821534
H   H28       1.0  0.84020  0.37820  0.62610  1.0000 0.0998085519
C   C1        1.0  0.72199  0.09241  0.76670  1.0000 0.0010337844
C   C2        1.0  0.63355  0.10125  0.80550  1.0000 -0.192052144
C   C3        1.0  0.53245  0.13715  0.69840  1.0000 0.1547751134
C   C4        1.0  0.51457  0.16443  0.55360  1.0000 -0.2568436483
C   C5        1.0  0.60351  0.15449  0.51770  1.0000 0.1612451622
C   C6        1.0  0.70607  0.11873  0.62220  1.0000 -0.2012847805
C   C7        1.0  0.83631  0.05789  0.88070  1.0000 0.6626697039
C   C8        1.0  0.35820  0.16140  0.85620  1.0000 0.1612451622
C   C9        1.0  0.31669  0.10951  0.67660  1.0000 0.1305347264
C   C10       1.0  0.53040  0.26000  0.25370  1.0000 0.1124792024
C   C11       1.0  0.60220  0.17920  0.18620  1.0000 0.1387788609
C   C12       1.0  0.09241  0.72199  0.73330  1.0000 0.0010337844
C   C13       1.0  0.10125  0.63355  0.69450  1.0000 -0.192052144
C   C14       1.0  0.13715  0.53245  0.80160  1.0000 0.1547751134
C   C15       1.0  0.16443  0.51457  0.94640  1.0000 -0.2568436483
C   C16       1.0  0.15449  0.60351  0.98230  1.0000 0.1612451622
C   C17       1.0  0.11873  0.70607  0.87780  1.0000 -0.2012847805
C   C18       1.0  0.05789  0.83631  0.61930  1.0000 0.6626697039
C   C19       1.0  0.16140  0.35820  0.64380  1.0000 0.1612451622
C   C20       1.0  0.10951  0.31669  0.82340  1.0000 0.1305347264
C   C21       1.0  0.26000  0.53040  0.24630  1.0000 0.1124792024
C   C22       1.0  0.17920  0.60220  0.31380  1.0000 0.1387788609
C   C23       1.0  0.27801  0.90759  0.23330  1.0000 0.0010337844
C   C24       1.0  0.36645  0.89875  0.19450  1.0000 -0.192052144
C   C25       1.0  0.46755  0.86285  0.30160  1.0000 0.1547751134
C   C26       1.0  0.48543  0.83557  0.44640  1.0000 -0.2568436483
C   C27       1.0  0.39649  0.84551  0.48230  1.0000 0.1612451622
C   C28       1.0  0.29393  0.88127  0.37780  1.0000 -0.2012847805
C   C29       1.0  0.16369  0.94211  0.11930  1.0000 0.6626697039
C   C30       1.0  0.64180  0.83860  0.14380  1.0000 0.1612451622
C   C31       1.0  0.68331  0.89049  0.32340  1.0000 0.1305347264
C   C32       1.0  0.46960  0.74000  0.74630  1.0000 0.1124792024
C   C33       1.0  0.39780  0.82080  0.81380  1.0000 0.1387788609
C   C34       1.0  0.90759  0.27801  0.26670  1.0000 0.0010337844
C   C35       1.0  0.89875  0.36645  0.30550  1.0000 -0.192052144
C   C36       1.0  0.86285  0.46755  0.19840  1.0000 0.1547751134
C   C37       1.0  0.83557  0.48543  0.05360  1.0000 -0.2568436483
C   C38       1.0  0.84551  0.39649  0.01770  1.0000 0.1612451622
C   C39       1.0  0.88127  0.29393  0.12220  1.0000 -0.2012847805
C   C40       1.0  0.94211  0.16369  0.38070  1.0000 0.6626697039
C   C41       1.0  0.83860  0.64180  0.35620  1.0000 0.1612451622
C   C42       1.0  0.89049  0.68331  0.17660  1.0000 0.1305347264
C   C43       1.0  0.74000  0.46960  0.75370  1.0000 0.1124792024
C   C44       1.0  0.82080  0.39780  0.68620  1.0000 0.1387788609
N   N1        1.0  0.43859  0.14061  0.73750  1.0000 0.1201821534
N   N2        1.0  0.46656  0.17344  0.85580  1.0000 -0.2568436483
N   N3        1.0  0.26200  0.12142  0.74870  1.0000 -0.434585243
N   N4        1.0  0.58799  0.18341  0.36900  1.0000 0.1124792024
N   N5        1.0  0.53660  0.25980  0.13490  1.0000 -0.3413097853
N   N6        1.0  0.63680  0.12980  0.32700  1.0000 -0.2541158566
N   N7        1.0  0.14061  0.43859  0.76250  1.0000 0.1201821534
N   N8        1.0  0.17344  0.46656  0.64420  1.0000 -0.2568436483
N   N9        1.0  0.12142  0.26200  0.75130  1.0000 -0.434585243
N   N10       1.0  0.18341  0.58799  0.13100  1.0000 0.1124792024
N   N11       1.0  0.25980  0.53660  0.36510  1.0000 -0.3413097853
N   N12       1.0  0.12980  0.63680  0.17300  1.0000 -0.2541158566
N   N13       1.0  0.56141  0.85939  0.26250  1.0000 0.1201821534
N   N14       1.0  0.53344  0.82656  0.14420  1.0000 -0.2568436483
N   N15       1.0  0.73800  0.87858  0.25130  1.0000 -0.434585243
N   N16       1.0  0.41201  0.81659  0.63100  1.0000 0.1124792024
N   N17       1.0  0.46340  0.74020  0.86510  1.0000 -0.3413097853
N   N18       1.0  0.36320  0.87020  0.67300  1.0000 -0.2541158566
N   N19       1.0  0.85939  0.56141  0.23750  1.0000 0.1201821534
N   N20       1.0  0.82656  0.53344  0.35580  1.0000 -0.2568436483
N   N21       1.0  0.87858  0.73800  0.24870  1.0000 -0.434585243
N   N22       1.0  0.81659  0.41201  0.86900  1.0000 0.1124792024
N   N23       1.0  0.74020  0.46340  0.63490  1.0000 -0.3413097853
N   N24       1.0  0.87020  0.36320  0.82700  1.0000 -0.2541158566
N   N25       1.0  0.82540  0.82540  0.75000  1.0000 0.7029628014
N   N26       1.0  0.17460  0.17460  0.25000  1.0000 0.7029628014
O   O1        1.0  0.91882  0.06742  0.83790  1.0000 -0.675591811
O   O2        1.0  0.84161  0.02409  0.01040  1.0000 -0.6681802715
O   O3        1.0  0.82599  0.92051  0.64240  1.0000 -0.4790004784
O   O4        1.0  0.06742  0.91882  0.66210  1.0000 -0.675591811
O   O5        1.0  0.02409  0.84161  0.48960  1.0000 -0.6681802715
O   O6        1.0  0.92051  0.82599  0.85760  1.0000 -0.4790004784
O   O7        1.0  0.08118  0.93258  0.16210  1.0000 -0.675591811
O   O8        1.0  0.15839  0.97591  0.98960  1.0000 -0.6681802715
O   O9        1.0  0.17401  0.07949  0.35760  1.0000 -0.4790004784
O   O10       1.0  0.93258  0.08118  0.33790  1.0000 -0.675591811
O   O11       1.0  0.97591  0.15839  0.51040  1.0000 -0.6681802715
O   O12       1.0  0.07949  0.17401  0.14240  1.0000 -0.4790004784
O   O13       1.0  0.73560  0.73560  0.75000  1.0000 -0.4110745633
O   O14       1.0  0.26440  0.26440  0.25000  1.0000 -0.4110745633
