# DDEC6 charges by PACMAN v1.1 (https://github.com/mtap-research/PACMAN-charge/)
data_2022[Zn][lon]3[FSR]3
_chemical_formula_sum              "Zn2 H24 C18 N8 O6"
_cell_length_a       9.3937
_cell_length_b       9.2495
_cell_length_c       9.3999
_cell_angle_alpha    90
_cell_angle_beta     118.634
_cell_angle_gamma    90

_symmetry_space_group_name_H-M    "P 1"
_symmetry_Int_Tables_number       1

loop_
  _symmetry_equiv_pos_as_xyz
  'x, y, z'

loop_
  _atom_site_type_symbol
  _atom_site_label
  _atom_site_symmetry_multiplicity
  _atom_site_fract_x
  _atom_site_fract_y
  _atom_site_fract_z
  _atom_site_occupancy
  _atom_site_charge
Zn  Zn1       1.0  0.78022  0.74363  0.86396  1.0000 0.7062069066
Zn  Zn2       1.0  0.21978  0.24363  0.13604  1.0000 0.7062069066
H   H1        1.0  0.75367  0.83551  0.15622  1.0000 0.0913438102
H   H2        1.0  0.63141  0.94676  0.02382  1.0000 0.0913438102
H   H3        1.0  0.54694  0.91531  0.21648  1.0000 0.1374532617
H   H4        1.0  0.41317  0.84286  0.05162  1.0000 0.1374532617
H   H5        1.0  0.49812  0.46648  0.35892  1.0000 0.0913438102
H   H6        1.0  0.31112  0.61320  0.48455  1.0000 0.119669158
H   H7        1.0  0.31935  0.44198  0.46523  1.0000 0.1291614808
H   H8        1.0  0.94802  0.44411  0.90272  1.0000 0.0987770222
H   H9        1.0  0.06434  0.74015  0.24322  1.0000 0.1291614808
H   H10       1.0  0.60388  0.65095  0.97496  1.0000 0.2919462956
H   H11       1.0  0.50948  0.76006  0.85170  1.0000 0.2919462956
H   H12       1.0  0.41481  0.75550  0.31820  1.0000 0.273529727
H   H13       1.0  0.24633  0.33551  0.84378  1.0000 0.0913438102
H   H14       1.0  0.36859  0.44676  0.97618  1.0000 0.0913438102
H   H15       1.0  0.45306  0.41531  0.78352  1.0000 0.1374532617
H   H16       1.0  0.58683  0.34286  0.94838  1.0000 0.1374532617
H   H17       1.0  0.50188  0.96648  0.64108  1.0000 0.0913438102
H   H18       1.0  0.68888  0.11320  0.51545  1.0000 0.119669158
H   H19       1.0  0.68065  0.94198  0.53477  1.0000 0.1291614808
H   H20       1.0  0.05198  0.94411  0.09728  1.0000 0.0987770222
H   H21       1.0  0.93566  0.24015  0.75678  1.0000 0.1291614808
H   H22       1.0  0.39612  0.15095  0.02504  1.0000 0.2919462956
H   H23       1.0  0.49052  0.26006  0.14830  1.0000 0.2919462956
H   H24       1.0  0.58519  0.25550  0.68180  1.0000 0.273529727
C   C1        1.0  0.64080  0.84820  0.06840  1.0000 -0.0054500015
C   C2        1.0  0.52650  0.83480  0.13970  1.0000 -0.3611718081
C   C3        1.0  0.54810  0.69060  0.22830  1.0000 0.521658916
C   C4        1.0  0.47950  0.55400  0.41040  1.0000 0.0110662496
C   C5        1.0  0.61600  0.56580  0.58670  1.0000 0.5597254224
C   C6        1.0  0.31910  0.53630  0.41540  1.0000 -0.299228441
C   C7        1.0  0.17420  0.54420  0.25090  1.0000 0.1857423074
C   C8        1.0  0.00240  0.49380  0.00320  1.0000 0.1511802338
C   C9        1.0  0.06480  0.65480  0.18720  1.0000 -0.1336106621
C   C10       1.0  0.35920  0.34820  0.93160  1.0000 -0.0054500015
C   C11       1.0  0.47350  0.33480  0.86030  1.0000 -0.3611718081
C   C12       1.0  0.45190  0.19060  0.77170  1.0000 0.521658916
C   C13       1.0  0.52050  0.05400  0.58960  1.0000 0.0110662496
C   C14       1.0  0.38400  0.06580  0.41330  1.0000 0.5597254224
C   C15       1.0  0.68090  0.03630  0.58460  1.0000 -0.299228441
C   C16       1.0  0.82580  0.04420  0.74910  1.0000 0.1857423074
C   C17       1.0  0.99760  0.99380  0.99680  1.0000 0.1511802338
C   C18       1.0  0.93520  0.15480  0.81280  1.0000 -0.1336106621
N   N1        1.0  0.60810  0.74100  0.93810  1.0000 -0.5244673304
N   N2        1.0  0.47230  0.68100  0.31660  1.0000 -0.3700879626
N   N3        1.0  0.13300  0.44060  0.13160  1.0000 -0.3611718081
N   N4        1.0  0.95510  0.62230  0.02820  1.0000 -0.3053656928
N   N5        1.0  0.39190  0.24100  0.06190  1.0000 -0.5244673304
N   N6        1.0  0.52770  0.18100  0.68340  1.0000 -0.3700879626
N   N7        1.0  0.86700  0.94060  0.86840  1.0000 -0.3611718081
N   N8        1.0  0.04490  0.12230  0.97180  1.0000 -0.3053656928
O   O1        1.0  0.62930  0.59080  0.21500  1.0000 -0.539209228
O   O2        1.0  0.66580  0.69399  0.63510  1.0000 -0.5455310159
O   O3        1.0  0.66270  0.45520  0.67100  1.0000 -0.5734154992
O   O4        1.0  0.37070  0.09080  0.78500  1.0000 -0.539209228
O   O5        1.0  0.33420  0.19399  0.36490  1.0000 -0.5455310159
O   O6        1.0  0.33730  0.95520  0.32900  1.0000 -0.5734154992
