# DDEC6 charges by PACMAN v1.1 (https://github.com/mtap-research/PACMAN-charge/)
data_2022[Cd][sql]2[FSR]2
_chemical_formula_sum              "Cd2 H50 C72 N14 O14"
_cell_length_a       8.5266
_cell_length_b       13.068
_cell_length_c       17.611
_cell_angle_alpha    107.122
_cell_angle_beta     93.698
_cell_angle_gamma    90.617

_symmetry_space_group_name_H-M    "P 1"
_symmetry_Int_Tables_number       1

loop_
  _symmetry_equiv_pos_as_xyz
  'x, y, z'

loop_
  _atom_site_type_symbol
  _atom_site_label
  _atom_site_symmetry_multiplicity
  _atom_site_fract_x
  _atom_site_fract_y
  _atom_site_fract_z
  _atom_site_occupancy
  _atom_site_charge
Cd  Cd1       1.0  0.85352  0.17414  0.93097  1.0000 0.8630112377
Cd  Cd2       1.0  0.14648  0.82586  0.06903  1.0000 0.8630112377
H   H1        1.0  0.76260  0.01158  0.72301  1.0000 0.3604515312
H   H2        1.0  0.86114  0.17211  0.63754  1.0000 0.1356356559
H   H3        1.0  0.94522  0.24409  0.54154  1.0000 0.1289355574
H   H4        1.0  0.22640  0.45147  0.70733  1.0000 0.1129248531
H   H5        1.0  0.14056  0.37824  0.80171  1.0000 0.1129248531
H   H6        1.0  0.98283  0.23648  0.35104  1.0000 0.1201582329
H   H7        1.0  0.90644  0.16464  0.21816  1.0000 0.1129248531
H   H8        1.0  0.10413  0.41719  0.17301  1.0000 0.1201582329
H   H9        1.0  0.19270  0.48375  0.30438  1.0000 0.1201582329
H   H10       1.0  0.42633  0.65026  0.44701  1.0000 0.1201582329
H   H11       1.0  0.59072  0.79967  0.49113  1.0000 0.1201582329
H   H12       1.0  0.54373  0.80506  0.71579  1.0000 0.1129248531
H   H13       1.0  0.38561  0.65226  0.67177  1.0000 0.1129248531
H   H14       1.0  0.50076  0.20498  0.82639  1.0000 0.1289355574
H   H15       1.0  0.42666  0.37705  0.80456  1.0000 0.1201582329
H   H16       1.0  0.74853  0.43044  0.97742  1.0000 0.1201582329
H   H17       1.0  0.75638  0.60499  0.99037  1.0000 0.1289355574
H   H18       1.0  0.75441  0.78357  0.99332  1.0000 0.1289355574
H   H19       1.0  0.39006  0.72174  0.83099  1.0000 0.1289355574
H   H20       1.0  0.38881  0.54379  0.82835  1.0000 0.1201582329
H   H21       1.0  0.81134  0.92101  0.92690  1.0000 0.1129248531
H   H22       1.0  0.45739  0.09094  0.89633  1.0000 0.1129248531
H   H23       1.0  0.34970  0.91306  0.88601  1.0000 0.1289355574
H   H24       1.0  0.07800  0.00200  0.91500  1.0000 0.3604515312
H   H25       1.0  0.10500  0.06800  0.86700  1.0000 0.3264229563
H   H26       1.0  0.23740  0.98842  0.27699  1.0000 0.3604515312
H   H27       1.0  0.13886  0.82789  0.36246  1.0000 0.1356356559
H   H28       1.0  0.05478  0.75591  0.45846  1.0000 0.1289355574
H   H29       1.0  0.77360  0.54853  0.29267  1.0000 0.1129248531
H   H30       1.0  0.85944  0.62176  0.19829  1.0000 0.1129248531
H   H31       1.0  0.01717  0.76352  0.64896  1.0000 0.1201582329
H   H32       1.0  0.09356  0.83536  0.78184  1.0000 0.1129248531
H   H33       1.0  0.89587  0.58281  0.82699  1.0000 0.1201582329
H   H34       1.0  0.80730  0.51625  0.69562  1.0000 0.1201582329
H   H35       1.0  0.57367  0.34974  0.55299  1.0000 0.1201582329
H   H36       1.0  0.40928  0.20033  0.50887  1.0000 0.1201582329
H   H37       1.0  0.45627  0.19494  0.28421  1.0000 0.1129248531
H   H38       1.0  0.61439  0.34774  0.32823  1.0000 0.1129248531
H   H39       1.0  0.49924  0.79502  0.17361  1.0000 0.1289355574
H   H40       1.0  0.57334  0.62295  0.19544  1.0000 0.1201582329
H   H41       1.0  0.25147  0.56956  0.02258  1.0000 0.1201582329
H   H42       1.0  0.24362  0.39501  0.00963  1.0000 0.1289355574
H   H43       1.0  0.24559  0.21643  0.00668  1.0000 0.1289355574
H   H44       1.0  0.60994  0.27826  0.16901  1.0000 0.1289355574
H   H45       1.0  0.61119  0.45621  0.17165  1.0000 0.1201582329
H   H46       1.0  0.18866  0.07899  0.07310  1.0000 0.1129248531
H   H47       1.0  0.54261  0.90906  0.10367  1.0000 0.1129248531
H   H48       1.0  0.65030  0.08694  0.11399  1.0000 0.1289355574
H   H49       1.0  0.92200  0.99800  0.08500  1.0000 0.3604515312
H   H50       1.0  0.89500  0.93200  0.13300  1.0000 0.3264229563
C   C1        1.0  0.94260  0.22050  0.79340  1.0000 0.5590009359
C   C2        1.0  0.99500  0.26570  0.72910  1.0000 -0.0099155861
C   C3        1.0  0.93590  0.22810  0.65190  1.0000 -0.0921990419
C   C4        1.0  0.98540  0.27190  0.59410  1.0000 -0.0921990419
C   C5        1.0  0.09350  0.35600  0.61430  1.0000 0.0139979129
C   C6        1.0  0.15240  0.39500  0.69250  1.0000 -0.1203488715
C   C7        1.0  0.10150  0.35030  0.74900  1.0000 -0.1328244391
C   C8        1.0  0.14480  0.40650  0.55470  1.0000 0.3758260337
C   C9        1.0  0.28410  0.53820  0.52690  1.0000 0.3758260337
C   C10       1.0  0.14780  0.41280  0.42780  1.0000 0.3758260337
C   C11       1.0  0.09730  0.36730  0.34210  1.0000 0.0179847484
C   C12       1.0  0.00990  0.27230  0.31510  1.0000 -0.0966738967
C   C13       1.0  0.96230  0.22980  0.23550  1.0000 -0.1203488715
C   C14       1.0  0.99680  0.28330  0.18100  1.0000 -0.0275263904
C   C15       1.0  0.08160  0.37950  0.20850  1.0000 -0.1120174941
C   C16       1.0  0.13310  0.42010  0.28750  1.0000 -0.1120174941
C   C17       1.0  0.94310  0.23830  0.09450  1.0000 0.5337020126
C   C18       1.0  0.38720  0.63630  0.55520  1.0000 0.0179847484
C   C19       1.0  0.45020  0.68090  0.50130  1.0000 -0.1120174941
C   C20       1.0  0.54810  0.77060  0.52780  1.0000 -0.0966738967
C   C21       1.0  0.58390  0.81810  0.60840  1.0000 -0.0275263904
C   C22       1.0  0.52130  0.77370  0.66140  1.0000 -0.1120174941
C   C23       1.0  0.42510  0.68250  0.63500  1.0000 -0.1203488715
C   C24       1.0  0.68890  0.91610  0.63500  1.0000 0.5337020126
C   C25       1.0  0.54200  0.27210  0.85600  1.0000 -0.0244472525
C   C26       1.0  0.49910  0.36790  0.84370  1.0000 -0.0783482524
C   C27       1.0  0.67350  0.39390  0.93770  1.0000 0.1201582329
C   C28       1.0  0.57650  0.55440  0.90480  1.0000 0.1289355574
C   C29       1.0  0.68470  0.62770  0.95710  1.0000 -0.1718636336
C   C30       1.0  0.68320  0.73470  0.95860  1.0000 -0.1598212155
C   C31       1.0  0.57750  0.76990  0.90930  1.0000 0.1580198971
C   C32       1.0  0.46580  0.69830  0.86200  1.0000 -0.1598212155
C   C33       1.0  0.46550  0.59120  0.86020  1.0000 -0.1718636336
C   C34       1.0  0.71010  0.94210  0.91700  1.0000 0.1289355574
C   C35       1.0  0.51680  0.03310  0.90010  1.0000 -0.0275263904
C   C36       1.0  0.45480  0.93590  0.89530  1.0000 -0.0966738967
C   C37       1.0  0.05740  0.77950  0.20660  1.0000 0.5590009359
C   C38       1.0  0.00500  0.73430  0.27090  1.0000 -0.0099155861
C   C39       1.0  0.06410  0.77190  0.34810  1.0000 -0.0921990419
C   C40       1.0  0.01460  0.72810  0.40590  1.0000 -0.0921990419
C   C41       1.0  0.90650  0.64400  0.38570  1.0000 0.0139979129
C   C42       1.0  0.84760  0.60500  0.30750  1.0000 -0.1203488715
C   C43       1.0  0.89850  0.64970  0.25100  1.0000 -0.1328244391
C   C44       1.0  0.85520  0.59350  0.44530  1.0000 0.3746345607
C   C45       1.0  0.71590  0.46180  0.47310  1.0000 0.3758260337
C   C46       1.0  0.85220  0.58720  0.57220  1.0000 0.3758260337
C   C47       1.0  0.90270  0.63270  0.65790  1.0000 0.0179847484
C   C48       1.0  0.99010  0.72770  0.68490  1.0000 -0.0966738967
C   C49       1.0  0.03770  0.77020  0.76450  1.0000 -0.1203488715
C   C50       1.0  0.00320  0.71670  0.81900  1.0000 -0.0244472525
C   C51       1.0  0.91840  0.62050  0.79150  1.0000 -0.1120174941
C   C52       1.0  0.86690  0.57990  0.71250  1.0000 -0.1120174941
C   C53       1.0  0.05690  0.76170  0.90550  1.0000 0.5337020126
C   C54       1.0  0.61280  0.36370  0.44480  1.0000 0.0179847484
C   C55       1.0  0.54980  0.31910  0.49870  1.0000 -0.1120174941
C   C56       1.0  0.45190  0.22940  0.47220  1.0000 -0.0966738967
C   C57       1.0  0.41610  0.18190  0.39160  1.0000 -0.0275263904
C   C58       1.0  0.47870  0.22630  0.33860  1.0000 -0.1120174941
C   C59       1.0  0.57490  0.31750  0.36500  1.0000 -0.1203488715
C   C60       1.0  0.31110  0.08390  0.36500  1.0000 0.5337020126
C   C61       1.0  0.45800  0.72790  0.14400  1.0000 -0.0244472525
C   C62       1.0  0.50090  0.63210  0.15630  1.0000 -0.0783482524
C   C63       1.0  0.32650  0.60610  0.06230  1.0000 0.1201582329
C   C64       1.0  0.42350  0.44560  0.09520  1.0000 0.1289355574
C   C65       1.0  0.31530  0.37230  0.04290  1.0000 -0.1718636336
C   C66       1.0  0.31680  0.26530  0.04140  1.0000 -0.1598212155
C   C67       1.0  0.42250  0.23010  0.09070  1.0000 0.1580198971
C   C68       1.0  0.53420  0.30170  0.13800  1.0000 -0.1598212155
C   C69       1.0  0.53450  0.40880  0.13980  1.0000 -0.1718636336
C   C70       1.0  0.28990  0.05790  0.08300  1.0000 0.1289355574
C   C71       1.0  0.48320  0.96690  0.09990  1.0000 -0.0275263904
C   C72       1.0  0.54520  0.06410  0.10470  1.0000 -0.0966738967
N   N1        1.0  0.09460  0.36340  0.47810  1.0000 -0.4016790422
N   N2        1.0  0.23970  0.49390  0.58210  1.0000 -0.4111525746
N   N3        1.0  0.24200  0.50050  0.44910  1.0000 -0.4111525746
N   N4        1.0  0.65320  0.29020  0.91770  1.0000 -0.2965469244
N   N5        1.0  0.58110  0.44370  0.89830  1.0000 0.0043768909
N   N6        1.0  0.58300  0.87840  0.90750  1.0000 0.0043768909
N   N7        1.0  0.67870  0.03690  0.91100  1.0000 -0.2965469244
N   N8        1.0  0.90540  0.63660  0.52190  1.0000 -0.4016790422
N   N9        1.0  0.76030  0.50610  0.41790  1.0000 -0.4111525746
N   N10       1.0  0.75800  0.49950  0.55090  1.0000 -0.4111525746
N   N11       1.0  0.34680  0.70980  0.08230  1.0000 -0.2965469244
N   N12       1.0  0.41890  0.55630  0.10170  1.0000 0.0043768909
N   N13       1.0  0.41700  0.12160  0.09250  1.0000 0.0043768909
N   N14       1.0  0.32130  0.96310  0.08900  1.0000 -0.2965469244
O   O1        1.0  0.99370  0.26700  0.86370  1.0000 -0.5511037441
O   O2        1.0  0.85130  0.14120  0.77580  1.0000 -0.5617025229
O   O3        1.0  0.90470  0.14060  0.06748  1.0000 -0.5714221331
O   O4        1.0  0.93680  0.29840  0.05132  1.0000 -0.5259578856
O   O5        1.0  0.70720  0.95680  0.71190  1.0000 -0.489024851
O   O6        1.0  0.74830  0.95450  0.59050  1.0000 -0.470023382
O   O7        1.0  0.07050  0.06120  0.90800  1.0000 -0.6595900985
O   O8        1.0  0.00630  0.73300  0.13630  1.0000 -0.5511037441
O   O9        1.0  0.14870  0.85880  0.22420  1.0000 -0.5617025229
O   O10       1.0  0.09530  0.85940  0.93252  1.0000 -0.5714221331
O   O11       1.0  0.06320  0.70160  0.94868  1.0000 -0.5259578856
O   O12       1.0  0.29280  0.04320  0.28810  1.0000 -0.489024851
O   O13       1.0  0.25170  0.04550  0.40950  1.0000 -0.470023382
O   O14       1.0  0.92950  0.93880  0.09200  1.0000 -0.6595900985
