# DDEC6 charges by PACMAN v1.1 (https://github.com/mtap-research/PACMAN-charge/)
data_2022[Ni][dia]3[FSR]3
_chemical_formula_sum              "Ni4 H72 C84 S4 N8 O34"
_cell_length_a       11.5864
_cell_length_b       12.3663
_cell_length_c       19.3944
_cell_angle_alpha    97.864
_cell_angle_beta     87.81
_cell_angle_gamma    116.457

_symmetry_space_group_name_H-M    "P 1"
_symmetry_Int_Tables_number       1

loop_
  _symmetry_equiv_pos_as_xyz
  'x, y, z'

loop_
  _atom_site_type_symbol
  _atom_site_label
  _atom_site_symmetry_multiplicity
  _atom_site_fract_x
  _atom_site_fract_y
  _atom_site_fract_z
  _atom_site_occupancy
  _atom_site_charge
Ni  Ni1       1.0  0.35358  0.34548  0.76097  1.0000 0.7981956278
Ni  Ni2       1.0  0.01904  0.21247  0.72387  1.0000 0.9347504054
Ni  Ni3       1.0  0.64642  0.65452  0.23903  1.0000 0.7981956278
Ni  Ni4       1.0  0.98096  0.78753  0.27613  1.0000 0.9347504054
H   H1        1.0  0.21440  0.33270  0.66130  1.0000 0.3399720614
H   H2        1.0  0.20160  0.41300  0.71350  1.0000 0.3626466071
H   H3        1.0  0.80900  0.12730  0.75220  1.0000 0.2282942807
H   H4        1.0  0.81820  0.05140  0.78100  1.0000 0.2877028783
H   H5        1.0  0.02020  0.22850  0.59490  1.0000 0.384738711
H   H6        1.0  0.91540  0.24550  0.62350  1.0000 0.3679451322
H   H7        1.0  0.97530  0.42260  0.89830  1.0000 0.2877028783
H   H8        1.0  0.43350  0.97710  0.89940  1.0000 0.2831446802
H   H9        1.0  0.52260  0.44400  0.89440  1.0000 0.1103235118
H   H10       1.0  0.68190  0.42010  0.94810  1.0000 0.1407337611
H   H11       1.0  0.68480  0.19650  0.77830  1.0000 0.1306057086
H   H12       1.0  0.52950  0.23080  0.72830  1.0000 0.1197580465
H   H13       1.0  0.76440  0.23460  0.94150  1.0000 0.1197580465
H   H14       1.0  0.82710  0.22910  0.86890  1.0000 0.1197580465
H   H15       1.0  0.29890  0.52290  0.86850  1.0000 0.1103235118
H   H16       1.0  0.36670  0.72810  0.90230  1.0000 0.1407337611
H   H17       1.0  0.61900  0.79370  0.74790  1.0000 0.1490554288
H   H18       1.0  0.54610  0.58790  0.71930  1.0000 0.1103235118
H   H19       1.0  0.64980  0.95410  0.86190  1.0000 0.1306057086
H   H20       1.0  0.55310  0.95880  0.80960  1.0000 0.1197580465
H   H21       1.0  0.92580  0.13280  0.92830  1.0000 0.1197580465
H   H22       1.0  0.88380  0.07990  0.04030  1.0000 0.1306057086
H   H23       1.0  0.26650  0.22370  0.08080  1.0000 0.1197580465
H   H24       1.0  0.30700  0.28100  0.96950  1.0000 0.1197580465
H   H25       1.0  0.87970  0.23180  0.15990  1.0000 0.1197580465
H   H26       1.0  0.90510  0.42690  0.20100  1.0000 0.1197580465
H   H27       1.0  0.24570  0.50720  0.29030  1.0000 0.1197580465
H   H28       1.0  0.22580  0.31530  0.24480  1.0000 0.1197580465
H   H29       1.0  0.00520  0.86850  0.63230  1.0000 0.1306057086
H   H30       1.0  0.01020  0.68370  0.59640  1.0000 0.1306057086
H   H31       1.0  0.36090  0.81720  0.68660  1.0000 0.1197580465
H   H32       1.0  0.35840  0.00370  0.71810  1.0000 0.1197580465
H   H33       1.0  0.44660  0.63010  0.61300  1.0000 0.1197580465
H   H34       1.0  0.59770  0.65390  0.52710  1.0000 0.1197580465
H   H35       1.0  0.34500  0.63870  0.38550  1.0000 0.1197580465
H   H36       1.0  0.19160  0.61100  0.47110  1.0000 0.1407337611
H   H37       1.0  0.78560  0.66730  0.33870  1.0000 0.3399720614
H   H38       1.0  0.79840  0.58700  0.28650  1.0000 0.3626466071
H   H39       1.0  0.19100  0.87270  0.24780  1.0000 0.2282942807
H   H40       1.0  0.18180  0.94860  0.21900  1.0000 0.2877028783
H   H41       1.0  0.97980  0.77150  0.40510  1.0000 0.3850997661
H   H42       1.0  0.08460  0.75450  0.37650  1.0000 0.3679451322
H   H43       1.0  0.02470  0.57740  0.10170  1.0000 0.2877028783
H   H44       1.0  0.56650  0.02290  0.10060  1.0000 0.2831446802
H   H45       1.0  0.47740  0.55600  0.10560  1.0000 0.1103235118
H   H46       1.0  0.31810  0.57990  0.05190  1.0000 0.1407337611
H   H47       1.0  0.31520  0.80350  0.22170  1.0000 0.1306057086
H   H48       1.0  0.47050  0.76920  0.27170  1.0000 0.1197580465
H   H49       1.0  0.23560  0.76540  0.05850  1.0000 0.1197580465
H   H50       1.0  0.17290  0.77090  0.13110  1.0000 0.1197580465
H   H51       1.0  0.70110  0.47710  0.13150  1.0000 0.1197580465
H   H52       1.0  0.63330  0.27190  0.09770  1.0000 0.1407337611
H   H53       1.0  0.38100  0.20630  0.25210  1.0000 0.1490554288
H   H54       1.0  0.45390  0.41210  0.28070  1.0000 0.1103235118
H   H55       1.0  0.35020  0.04590  0.13810  1.0000 0.1306057086
H   H56       1.0  0.44690  0.04120  0.19040  1.0000 0.1197580465
H   H57       1.0  0.07420  0.86720  0.07170  1.0000 0.1197580465
H   H58       1.0  0.11620  0.92010  0.95970  1.0000 0.1306057086
H   H59       1.0  0.73350  0.77630  0.91920  1.0000 0.1197580465
H   H60       1.0  0.69300  0.71900  0.03050  1.0000 0.1197580465
H   H61       1.0  0.12030  0.76820  0.84010  1.0000 0.1197580465
H   H62       1.0  0.09490  0.57310  0.79900  1.0000 0.1197580465
H   H63       1.0  0.75430  0.49280  0.70970  1.0000 0.1197580465
H   H64       1.0  0.77420  0.68470  0.75520  1.0000 0.1197580465
H   H65       1.0  0.99480  0.13150  0.36770  1.0000 0.1306057086
H   H66       1.0  0.98980  0.31630  0.40360  1.0000 0.1306057086
H   H67       1.0  0.63910  0.18280  0.31340  1.0000 0.1197580465
H   H68       1.0  0.64160  0.99630  0.28190  1.0000 0.1197580465
H   H69       1.0  0.55340  0.36990  0.38700  1.0000 0.1197580465
H   H70       1.0  0.40230  0.34610  0.47290  1.0000 0.1197580465
H   H71       1.0  0.65500  0.36130  0.61450  1.0000 0.1197580465
H   H72       1.0  0.80840  0.38900  0.52890  1.0000 0.1407337611
C   C1        1.0  0.55600  0.39390  0.87084  1.0000 0.0877766864
C   C2        1.0  0.65130  0.37940  0.90370  1.0000 -0.1896265919
C   C3        1.0  0.70070  0.30330  0.86953  1.0000 0.1490554288
C   C4        1.0  0.65350  0.24750  0.80295  1.0000 -0.2185912455
C   C5        1.0  0.55940  0.26800  0.77333  1.0000 0.1103235118
C   C6        1.0  0.80190  0.27970  0.90270  1.0000 -0.1230185765
C   C7        1.0  0.93390  0.44390  0.99307  1.0000 0.3534183775
C   C8        1.0  0.36530  0.57800  0.84449  1.0000 0.102659521
C   C9        1.0  0.40540  0.70200  0.86513  1.0000 -0.1896265919
C   C10       1.0  0.50320  0.78600  0.83006  1.0000 0.1490554288
C   C11       1.0  0.55480  0.74060  0.77382  1.0000 -0.19813213
C   C12       1.0  0.51020  0.61630  0.75687  1.0000 0.0877766864
C   C13       1.0  0.55910  0.92280  0.84991  1.0000 -0.1230185765
C   C14       1.0  0.53660  0.97520  0.97310  1.0000 0.3399720614
C   C15       1.0  0.14650  0.24819  0.86535  1.0000 0.5912480032
C   C16       1.0  0.12010  0.21358  0.93832  1.0000 -0.0075176155
C   C17       1.0  0.99380  0.15220  0.95924  1.0000 -0.098145276
C   C18       1.0  0.96820  0.11950  0.02584  1.0000 -0.098145276
C   C19       1.0  0.07170  0.14746  0.07066  1.0000 -0.0898780922
C   C20       1.0  0.19860  0.20680  0.05036  1.0000 -0.098145276
C   C21       1.0  0.22260  0.24050  0.98377  1.0000 -0.0898780922
C   C22       1.0  0.05110  0.25685  0.19861  1.0000 -0.080361216
C   C23       1.0  0.95360  0.28770  0.18527  1.0000 -0.098145276
C   C24       1.0  0.96850  0.40390  0.21053  1.0000 -0.0898780922
C   C25       1.0  0.07750  0.48590  0.24985  1.0000 -0.0187198894
C   C26       1.0  0.17330  0.45250  0.26345  1.0000 -0.098145276
C   C27       1.0  0.16110  0.33750  0.23693  1.0000 -0.1092274847
C   C28       1.0  0.09180  0.61121  0.27768  1.0000 0.5544193958
C   C29       1.0  0.17960  0.07646  0.70019  1.0000 0.5912480032
C   C30       1.0  0.18210  0.95527  0.67756  1.0000 0.0035127693
C   C31       1.0  0.07780  0.85890  0.64216  1.0000 -0.0898780922
C   C32       1.0  0.07980  0.74780  0.62113  1.0000 -0.080361216
C   C33       1.0  0.18640  0.73410  0.63753  1.0000 -0.0898780922
C   C34       1.0  0.29030  0.82830  0.67467  1.0000 -0.1092274847
C   C35       1.0  0.28810  0.93940  0.69395  1.0000 -0.098145276
C   C36       1.0  0.30460  0.61580  0.54974  1.0000 -0.080361216
C   C37       1.0  0.42590  0.63020  0.56718  1.0000 -0.098145276
C   C38       1.0  0.51630  0.64480  0.51582  1.0000 -0.0898780922
C   C39       1.0  0.48510  0.64570  0.44732  1.0000 -0.0187198894
C   C40       1.0  0.36460  0.63520  0.43095  1.0000 -0.0898780922
C   C41       1.0  0.27280  0.61920  0.48207  1.0000 -0.0898780922
C   C42       1.0  0.58090  0.65610  0.39095  1.0000 0.5661475634
C   C43       1.0  0.44400  0.60610  0.12916  1.0000 0.0877766864
C   C44       1.0  0.34870  0.62060  0.09630  1.0000 -0.1896265919
C   C45       1.0  0.29930  0.69670  0.13047  1.0000 0.1490554288
C   C46       1.0  0.34650  0.75250  0.19705  1.0000 -0.2185912455
C   C47       1.0  0.44060  0.73200  0.22667  1.0000 0.1103235118
C   C48       1.0  0.19810  0.72030  0.09730  1.0000 -0.1230185765
C   C49       1.0  0.06610  0.55610  0.00693  1.0000 0.3534183775
C   C50       1.0  0.63470  0.42200  0.15551  1.0000 0.102659521
C   C51       1.0  0.59460  0.29800  0.13487  1.0000 -0.1896265919
C   C52       1.0  0.49680  0.21400  0.16994  1.0000 0.1490554288
C   C53       1.0  0.44520  0.25940  0.22618  1.0000 -0.19813213
C   C54       1.0  0.48980  0.38370  0.24313  1.0000 0.0877766864
C   C55       1.0  0.44090  0.07720  0.15009  1.0000 -0.1230185765
C   C56       1.0  0.46340  0.02480  0.02690  1.0000 0.3399720614
C   C57       1.0  0.85350  0.75181  0.13465  1.0000 0.5912480032
C   C58       1.0  0.87990  0.78642  0.06168  1.0000 -0.0075176155
C   C59       1.0  0.00620  0.84780  0.04076  1.0000 -0.098145276
C   C60       1.0  0.03180  0.88050  0.97416  1.0000 -0.0898780922
C   C61       1.0  0.92830  0.85254  0.92934  1.0000 -0.0898780922
C   C62       1.0  0.80140  0.79320  0.94964  1.0000 -0.098145276
C   C63       1.0  0.77740  0.75950  0.01623  1.0000 -0.0898780922
C   C64       1.0  0.94890  0.74315  0.80139  1.0000 -0.080361216
C   C65       1.0  0.04640  0.71230  0.81473  1.0000 -0.098145276
C   C66       1.0  0.03150  0.59610  0.78947  1.0000 -0.0898780922
C   C67       1.0  0.92250  0.51410  0.75015  1.0000 -0.0187198894
C   C68       1.0  0.82670  0.54750  0.73655  1.0000 -0.098145276
C   C69       1.0  0.83890  0.66250  0.76307  1.0000 -0.1092274847
C   C70       1.0  0.90820  0.38879  0.72232  1.0000 0.5544193958
C   C71       1.0  0.82040  0.92354  0.29981  1.0000 0.5912480032
C   C72       1.0  0.81790  0.04473  0.32244  1.0000 0.0035127693
C   C73       1.0  0.92220  0.14110  0.35784  1.0000 -0.0898780922
C   C74       1.0  0.92020  0.25220  0.37887  1.0000 -0.080361216
C   C75       1.0  0.81360  0.26590  0.36247  1.0000 -0.0898780922
C   C76       1.0  0.70970  0.17170  0.32533  1.0000 -0.1092274847
C   C77       1.0  0.71190  0.06060  0.30605  1.0000 -0.098145276
C   C78       1.0  0.69540  0.38420  0.45026  1.0000 -0.080361216
C   C79       1.0  0.57410  0.36980  0.43282  1.0000 -0.098145276
C   C80       1.0  0.48370  0.35520  0.48418  1.0000 -0.0898780922
C   C81       1.0  0.51490  0.35430  0.55268  1.0000 -0.0187198894
C   C82       1.0  0.63540  0.36480  0.56905  1.0000 -0.0898780922
C   C83       1.0  0.72720  0.38080  0.51793  1.0000 -0.0898780922
C   C84       1.0  0.41910  0.34390  0.60905  1.0000 0.5661475634
S   S1        1.0  0.04071  0.11671  0.15736  1.0000 0.9784092879
S   S2        1.0  0.18845  0.59185  0.61486  1.0000 0.9784092879
S   S3        1.0  0.95929  0.88329  0.84264  1.0000 0.9784092879
S   S4        1.0  0.81155  0.40815  0.38514  1.0000 0.9784092879
N   N1        1.0  0.50964  0.33894  0.80646  1.0000 -0.2185912455
N   N2        1.0  0.91620  0.39020  0.92748  1.0000 -0.282124939
N   N3        1.0  0.41741  0.53417  0.79189  1.0000 -0.254662695
N   N4        1.0  0.49690  0.96209  0.90767  1.0000 -0.3070062722
N   N5        1.0  0.49036  0.66106  0.19354  1.0000 -0.2185912455
N   N6        1.0  0.08380  0.60980  0.07252  1.0000 -0.282124939
N   N7        1.0  0.58259  0.46583  0.20811  1.0000 -0.254662695
N   N8        1.0  0.50310  0.03791  0.09233  1.0000 -0.3044706906
O   O1        1.0  0.85665  0.41150  0.03983  1.0000 -0.4880505602
O   O2        1.0  0.62150  0.95130  0.99071  1.0000 -0.4708098198
O   O3        1.0  0.26259  0.31145  0.85215  1.0000 -0.5613847102
O   O4        1.0  0.05031  0.21140  0.82546  1.0000 -0.5497730697
O   O5        1.0  0.14568  0.09918  0.18352  1.0000 -0.5207755292
O   O6        1.0  0.91062  0.02391  0.16094  1.0000 -0.4880505602
O   O7        1.0  0.16556  0.66881  0.32885  1.0000 -0.5392657394
O   O8        1.0  0.02443  0.64666  0.24530  1.0000 -0.5888411427
O   O9        1.0  0.28062  0.16038  0.72895  1.0000 -0.5392657394
O   O10       1.0  0.07604  0.08131  0.68777  1.0000 -0.5392657394
O   O11       1.0  0.06504  0.50475  0.58507  1.0000 -0.5039798344
O   O12       1.0  0.23840  0.56748  0.67543  1.0000 -0.5312890733
O   O13       1.0  0.69695  0.69273  0.40907  1.0000 -0.5392657394
O   O14       1.0  0.53811  0.62497  0.32919  1.0000 -0.5613847102
O   O15       1.0  0.20075  0.34338  0.70449  1.0000 -0.6913654531
O   O16       1.0  0.83632  0.07409  0.74094  1.0000 -0.6343702997
O   O17       1.0  0.95675  0.20317  0.62190  1.0000 -0.6381347204
O   O18       1.0  0.14335  0.58850  0.96017  1.0000 -0.4880505602
O   O19       1.0  0.37850  0.04870  0.00929  1.0000 -0.4708098198
O   O20       1.0  0.73741  0.68855  0.14785  1.0000 -0.5613847102
O   O21       1.0  0.94969  0.78860  0.17454  1.0000 -0.5497730697
O   O22       1.0  0.85432  0.90082  0.81648  1.0000 -0.5207755292
O   O23       1.0  0.08938  0.97609  0.83906  1.0000 -0.4880505602
O   O24       1.0  0.83444  0.33119  0.67115  1.0000 -0.5392657394
O   O25       1.0  0.97557  0.35334  0.75470  1.0000 -0.5888411427
O   O26       1.0  0.71938  0.83962  0.27105  1.0000 -0.5392657394
O   O27       1.0  0.92396  0.91869  0.31223  1.0000 -0.5392657394
O   O28       1.0  0.93496  0.49525  0.41493  1.0000 -0.5039798344
O   O29       1.0  0.76160  0.43252  0.32457  1.0000 -0.5312890733
O   O30       1.0  0.30305  0.30727  0.59093  1.0000 -0.5392657394
O   O31       1.0  0.46189  0.37503  0.67081  1.0000 -0.5613847102
O   O32       1.0  0.79925  0.65662  0.29551  1.0000 -0.6913654531
O   O33       1.0  0.16368  0.92591  0.25906  1.0000 -0.6343702997
O   O34       1.0  0.04325  0.79683  0.37810  1.0000 -0.6381347204
