# DDEC6 charges by PACMAN v1.1 (https://github.com/mtap-research/PACMAN-charge/)
data_2022[Zn][nan]3[FSR]21
_chemical_formula_sum              "Zn12 H48 C78 N24 O36"
_cell_length_a       21.0956
_cell_length_b       21.0956
_cell_length_c       21.0956
_cell_angle_alpha    116.233
_cell_angle_beta     116.233
_cell_angle_gamma    116.233

_symmetry_space_group_name_H-M    "P 1"
_symmetry_Int_Tables_number       1

loop_
  _symmetry_equiv_pos_as_xyz
  'x, y, z'

loop_
  _atom_site_type_symbol
  _atom_site_label
  _atom_site_symmetry_multiplicity
  _atom_site_fract_x
  _atom_site_fract_y
  _atom_site_fract_z
  _atom_site_occupancy
  _atom_site_charge
Zn  Zn1       1.0  0.05613  0.52505  0.96625  1.0000 0.8240078877
Zn  Zn2       1.0  0.16721  0.71209  0.97467  1.0000 0.7759731204
Zn  Zn3       1.0  0.52505  0.96625  0.05613  1.0000 0.8240078877
Zn  Zn4       1.0  0.71209  0.97467  0.16721  1.0000 0.7759731204
Zn  Zn5       1.0  0.96625  0.05613  0.52505  1.0000 0.8240078877
Zn  Zn6       1.0  0.97467  0.16721  0.71209  1.0000 0.7759731204
Zn  Zn7       1.0  0.94387  0.47495  0.03375  1.0000 0.8240078877
Zn  Zn8       1.0  0.83279  0.28791  0.02533  1.0000 0.7759731204
Zn  Zn9       1.0  0.47495  0.03375  0.94387  1.0000 0.8240078877
Zn  Zn10      1.0  0.28791  0.02533  0.83279  1.0000 0.7759731204
Zn  Zn11      1.0  0.03375  0.94387  0.47495  1.0000 0.8240078877
Zn  Zn12      1.0  0.02533  0.83279  0.28791  1.0000 0.7759731204
H   H1        1.0  0.85650  0.41650  0.59070  1.0000 0.1235409518
H   H2        1.0  0.74290  0.26500  0.40070  1.0000 0.1103549876
H   H3        1.0  0.81910  0.14310  0.47010  1.0000 0.1103549876
H   H4        1.0  0.92160  0.28650  0.65500  1.0000 0.1103549876
H   H5        1.0  0.14980  0.85040  0.09650  1.0000 0.1235409518
H   H6        1.0  0.94390  0.62050  0.14140  1.0000 0.1103549876
H   H7        1.0  0.83100  0.33700  0.81900  1.0000 0.4015307293
H   H8        1.0  0.85060  0.42940  0.85400  1.0000 0.4015307293
H   H9        1.0  0.41650  0.59070  0.85650  1.0000 0.1235409518
H   H10       1.0  0.26500  0.40070  0.74290  1.0000 0.1103549876
H   H11       1.0  0.14310  0.47010  0.81910  1.0000 0.1103549876
H   H12       1.0  0.28650  0.65500  0.92160  1.0000 0.1103549876
H   H13       1.0  0.85040  0.09650  0.14980  1.0000 0.1235409518
H   H14       1.0  0.62050  0.14140  0.94390  1.0000 0.1103549876
H   H15       1.0  0.33700  0.81900  0.83100  1.0000 0.4015307293
H   H16       1.0  0.42940  0.85400  0.85060  1.0000 0.4015307293
H   H17       1.0  0.59070  0.85650  0.41650  1.0000 0.1235409518
H   H18       1.0  0.40070  0.74290  0.26500  1.0000 0.1103549876
H   H19       1.0  0.47010  0.81910  0.14310  1.0000 0.1103549876
H   H20       1.0  0.65500  0.92160  0.28650  1.0000 0.1103549876
H   H21       1.0  0.09650  0.14980  0.85040  1.0000 0.1235409518
H   H22       1.0  0.14140  0.94390  0.62050  1.0000 0.1103549876
H   H23       1.0  0.81900  0.83100  0.33700  1.0000 0.4015307293
H   H24       1.0  0.85400  0.85060  0.42940  1.0000 0.4015307293
H   H25       1.0  0.14350  0.58350  0.40930  1.0000 0.1235409518
H   H26       1.0  0.25710  0.73500  0.59930  1.0000 0.1103549876
H   H27       1.0  0.18090  0.85690  0.52990  1.0000 0.1103549876
H   H28       1.0  0.07840  0.71350  0.34500  1.0000 0.1103549876
H   H29       1.0  0.85020  0.14960  0.90350  1.0000 0.1235409518
H   H30       1.0  0.05610  0.37950  0.85860  1.0000 0.1103549876
H   H31       1.0  0.16900  0.66300  0.18100  1.0000 0.4015307293
H   H32       1.0  0.14940  0.57060  0.14600  1.0000 0.4015307293
H   H33       1.0  0.58350  0.40930  0.14350  1.0000 0.1235409518
H   H34       1.0  0.73500  0.59930  0.25710  1.0000 0.1103549876
H   H35       1.0  0.85690  0.52990  0.18090  1.0000 0.1103549876
H   H36       1.0  0.71350  0.34500  0.07840  1.0000 0.1103549876
H   H37       1.0  0.14960  0.90350  0.85020  1.0000 0.1235409518
H   H38       1.0  0.37950  0.85860  0.05610  1.0000 0.1103549876
H   H39       1.0  0.66300  0.18100  0.16900  1.0000 0.4015307293
H   H40       1.0  0.57060  0.14600  0.14940  1.0000 0.4015307293
H   H41       1.0  0.40930  0.14350  0.58350  1.0000 0.1235409518
H   H42       1.0  0.59930  0.25710  0.73500  1.0000 0.1103549876
H   H43       1.0  0.52990  0.18090  0.85690  1.0000 0.1103549876
H   H44       1.0  0.34500  0.07840  0.71350  1.0000 0.1103549876
H   H45       1.0  0.90350  0.85020  0.14960  1.0000 0.1235409518
H   H46       1.0  0.85860  0.05610  0.37950  1.0000 0.1103549876
H   H47       1.0  0.18100  0.16900  0.66300  1.0000 0.4015307293
H   H48       1.0  0.14600  0.14940  0.57060  1.0000 0.4015307293
C   C1        1.0  0.84846  0.36084  0.56620  1.0000 -0.1082907229
C   C2        1.0  0.07331  0.76139  0.10900  1.0000 -0.1916347567
C   C3        1.0  0.78116  0.27068  0.45276  1.0000 -0.1082907229
C   C4        1.0  0.82531  0.19738  0.49391  1.0000 -0.1015554502
C   C5        1.0  0.90319  0.36864  0.64257  1.0000 -0.0201239543
C   C6        1.0  0.05678  0.80479  0.16433  1.0000 0.4967724374
C   C7        1.0  0.88848  0.28425  0.60487  1.0000 -0.1082907229
C   C8        1.0  0.12092  0.79083  0.08295  1.0000 0.0405308024
C   C9        1.0  0.77070  0.18970  0.41700  1.0000 -0.0291230828
C   C10       1.0  0.97886  0.65680  0.13344  1.0000 0.2738569767
C   C11       1.0  0.04285  0.66832  0.07203  1.0000 0.2855113239
C   C12       1.0  0.98205  0.46896  0.76669  1.0000 0.5899802834
C   C13       1.0  0.70371  0.09748  0.29751  1.0000 0.5899802834
C   C14       1.0  0.36084  0.56620  0.84846  1.0000 -0.1082907229
C   C15       1.0  0.76139  0.10900  0.07331  1.0000 -0.1916347567
C   C16       1.0  0.27068  0.45276  0.78116  1.0000 -0.1082907229
C   C17       1.0  0.19738  0.49391  0.82531  1.0000 -0.1015554502
C   C18       1.0  0.36864  0.64257  0.90319  1.0000 -0.0201239543
C   C19       1.0  0.80479  0.16433  0.05678  1.0000 0.4967724374
C   C20       1.0  0.28425  0.60487  0.88848  1.0000 -0.1082907229
C   C21       1.0  0.79083  0.08295  0.12092  1.0000 0.0405308024
C   C22       1.0  0.18970  0.41700  0.77070  1.0000 -0.0291230828
C   C23       1.0  0.65680  0.13344  0.97886  1.0000 0.2738569767
C   C24       1.0  0.66832  0.07203  0.04285  1.0000 0.2855113239
C   C25       1.0  0.46896  0.76669  0.98205  1.0000 0.5899802834
C   C26       1.0  0.09748  0.29751  0.70371  1.0000 0.5950830371
C   C27       1.0  0.56620  0.84846  0.36084  1.0000 -0.1082907229
C   C28       1.0  0.10900  0.07331  0.76139  1.0000 -0.1916347567
C   C29       1.0  0.45276  0.78116  0.27068  1.0000 -0.1082907229
C   C30       1.0  0.49391  0.82531  0.19738  1.0000 -0.1015554502
C   C31       1.0  0.64257  0.90319  0.36864  1.0000 -0.0201239543
C   C32       1.0  0.16433  0.05678  0.80479  1.0000 0.4967724374
C   C33       1.0  0.60487  0.88848  0.28425  1.0000 -0.1082907229
C   C34       1.0  0.08295  0.12092  0.79083  1.0000 0.0405308024
C   C35       1.0  0.41700  0.77070  0.18970  1.0000 -0.0291230828
C   C36       1.0  0.13344  0.97886  0.65680  1.0000 0.2738569767
C   C37       1.0  0.07203  0.04285  0.66832  1.0000 0.2855113239
C   C38       1.0  0.76669  0.98205  0.46896  1.0000 0.5899802834
C   C39       1.0  0.29751  0.70371  0.09748  1.0000 0.5899802834
C   C40       1.0  0.15154  0.63916  0.43380  1.0000 -0.1082907229
C   C41       1.0  0.92669  0.23861  0.89100  1.0000 -0.1916347567
C   C42       1.0  0.21884  0.72932  0.54724  1.0000 -0.1082907229
C   C43       1.0  0.17469  0.80262  0.50609  1.0000 -0.1015554502
C   C44       1.0  0.09681  0.63136  0.35743  1.0000 -0.0201239543
C   C45       1.0  0.94322  0.19521  0.83567  1.0000 0.4967724374
C   C46       1.0  0.11152  0.71575  0.39513  1.0000 -0.1082907229
C   C47       1.0  0.87908  0.20917  0.91705  1.0000 0.0405308024
C   C48       1.0  0.22930  0.81030  0.58300  1.0000 -0.0291230828
C   C49       1.0  0.02114  0.34320  0.86656  1.0000 0.2738569767
C   C50       1.0  0.95715  0.33168  0.92797  1.0000 0.2848601133
C   C51       1.0  0.01795  0.53104  0.23331  1.0000 0.5899802834
C   C52       1.0  0.29629  0.90252  0.70249  1.0000 0.5899802834
C   C53       1.0  0.63916  0.43380  0.15154  1.0000 -0.1082907229
C   C54       1.0  0.23861  0.89100  0.92669  1.0000 -0.1916347567
C   C55       1.0  0.72932  0.54724  0.21884  1.0000 -0.1082907229
C   C56       1.0  0.80262  0.50609  0.17469  1.0000 -0.1015554502
C   C57       1.0  0.63136  0.35743  0.09681  1.0000 -0.0201239543
C   C58       1.0  0.19521  0.83567  0.94322  1.0000 0.4967724374
C   C59       1.0  0.71575  0.39513  0.11152  1.0000 -0.1082907229
C   C60       1.0  0.20917  0.91705  0.87908  1.0000 0.0405308024
C   C61       1.0  0.81030  0.58300  0.22930  1.0000 -0.0291230828
C   C62       1.0  0.34320  0.86656  0.02114  1.0000 0.2738569767
C   C63       1.0  0.33168  0.92797  0.95715  1.0000 0.2855113239
C   C64       1.0  0.53104  0.23331  0.01795  1.0000 0.5899802834
C   C65       1.0  0.90252  0.70249  0.29629  1.0000 0.5899802834
C   C66       1.0  0.43380  0.15154  0.63916  1.0000 -0.1082907229
C   C67       1.0  0.89100  0.92669  0.23861  1.0000 -0.1916347567
C   C68       1.0  0.54724  0.21884  0.72932  1.0000 -0.1082907229
C   C69       1.0  0.50609  0.17469  0.80262  1.0000 -0.1015554502
C   C70       1.0  0.35743  0.09681  0.63136  1.0000 -0.0201239543
C   C71       1.0  0.83567  0.94322  0.19521  1.0000 0.4967724374
C   C72       1.0  0.39513  0.11152  0.71575  1.0000 -0.1082907229
C   C73       1.0  0.91705  0.87908  0.20917  1.0000 0.0405308024
C   C74       1.0  0.58300  0.22930  0.81030  1.0000 -0.0291230828
C   C75       1.0  0.86656  0.02114  0.34320  1.0000 0.2738569767
C   C76       1.0  0.92797  0.95715  0.33168  1.0000 0.2855113239
C   C77       1.0  0.23331  0.01795  0.53104  1.0000 0.5899802834
C   C78       1.0  0.70249  0.29629  0.90252  1.0000 0.5899802834
N   N1        1.0  0.11901  0.72175  0.03604  1.0000 -0.1837748437
N   N2        1.0  0.99109  0.61137  0.08144  1.0000 -0.4063341329
N   N3        1.0  0.01018  0.74893  0.17679  1.0000 -0.439920784
N   N4        1.0  0.06939  0.64342  0.02749  1.0000 -0.3401206642
N   N5        1.0  0.72175  0.03604  0.11901  1.0000 -0.1837748437
N   N6        1.0  0.61137  0.08144  0.99109  1.0000 -0.4063341329
N   N7        1.0  0.74893  0.17679  0.01018  1.0000 -0.439920784
N   N8        1.0  0.64342  0.02749  0.06939  1.0000 -0.3401206642
N   N9        1.0  0.03604  0.11901  0.72175  1.0000 -0.1837748437
N   N10       1.0  0.08144  0.99109  0.61137  1.0000 -0.4063341329
N   N11       1.0  0.17679  0.01018  0.74893  1.0000 -0.439920784
N   N12       1.0  0.02749  0.06939  0.64342  1.0000 -0.3401206642
N   N13       1.0  0.88099  0.27825  0.96396  1.0000 -0.1916347567
N   N14       1.0  0.00891  0.38863  0.91856  1.0000 -0.4063341329
N   N15       1.0  0.98982  0.25107  0.82321  1.0000 -0.439920784
N   N16       1.0  0.93061  0.35658  0.97251  1.0000 -0.3401206642
N   N17       1.0  0.27825  0.96396  0.88099  1.0000 -0.1837748437
N   N18       1.0  0.38863  0.91856  0.00891  1.0000 -0.4063341329
N   N19       1.0  0.25107  0.82321  0.98982  1.0000 -0.439920784
N   N20       1.0  0.35658  0.97251  0.93061  1.0000 -0.3401206642
N   N21       1.0  0.96396  0.88099  0.27825  1.0000 -0.1837748437
N   N22       1.0  0.91856  0.00891  0.38863  1.0000 -0.4063341329
N   N23       1.0  0.82321  0.98982  0.25107  1.0000 -0.439920784
N   N24       1.0  0.97251  0.93061  0.35658  1.0000 -0.3401206642
O   O1        1.0  0.08333  0.88928  0.20509  1.0000 -0.4982321818
O   O2        1.0  0.02806  0.56124  0.80750  1.0000 -0.5201803057
O   O3        1.0  0.63008  0.07259  0.22323  1.0000 -0.5432136863
O   O4        1.0  0.99983  0.45614  0.82173  1.0000 -0.5594048112
O   O5        1.0  0.87573  0.40857  0.86800  1.0000 -0.659875821
O   O6        1.0  0.72944  0.05297  0.28179  1.0000 -0.5492417225
O   O7        1.0  0.88928  0.20509  0.08333  1.0000 -0.4982321818
O   O8        1.0  0.56124  0.80750  0.02806  1.0000 -0.5201803057
O   O9        1.0  0.07259  0.22323  0.63008  1.0000 -0.5432136863
O   O10       1.0  0.45614  0.82173  0.99983  1.0000 -0.5594048112
O   O11       1.0  0.40857  0.86800  0.87573  1.0000 -0.659875821
O   O12       1.0  0.05297  0.28179  0.72944  1.0000 -0.5492417225
O   O13       1.0  0.20509  0.08333  0.88928  1.0000 -0.4982321818
O   O14       1.0  0.80750  0.02806  0.56124  1.0000 -0.5201803057
O   O15       1.0  0.22323  0.63008  0.07259  1.0000 -0.5432136863
O   O16       1.0  0.82173  0.99983  0.45614  1.0000 -0.5594048112
O   O17       1.0  0.86800  0.87573  0.40857  1.0000 -0.659875821
O   O18       1.0  0.28179  0.72944  0.05297  1.0000 -0.5492417225
O   O19       1.0  0.91667  0.11072  0.79491  1.0000 -0.4982321818
O   O20       1.0  0.97194  0.43876  0.19250  1.0000 -0.5201803057
O   O21       1.0  0.36992  0.92741  0.77677  1.0000 -0.5432136863
O   O22       1.0  0.00017  0.54386  0.17827  1.0000 -0.5594048112
O   O23       1.0  0.12427  0.59143  0.13200  1.0000 -0.659875821
O   O24       1.0  0.27056  0.94703  0.71821  1.0000 -0.5492417225
O   O25       1.0  0.11072  0.79491  0.91667  1.0000 -0.4982321818
O   O26       1.0  0.43876  0.19250  0.97194  1.0000 -0.5201803057
O   O27       1.0  0.92741  0.77677  0.36992  1.0000 -0.5432136863
O   O28       1.0  0.54386  0.17827  0.00017  1.0000 -0.5594048112
O   O29       1.0  0.59143  0.13200  0.12427  1.0000 -0.659875821
O   O30       1.0  0.94703  0.71821  0.27056  1.0000 -0.5492417225
O   O31       1.0  0.79491  0.91667  0.11072  1.0000 -0.4982321818
O   O32       1.0  0.19250  0.97194  0.43876  1.0000 -0.5201803057
O   O33       1.0  0.77677  0.36992  0.92741  1.0000 -0.5432136863
O   O34       1.0  0.17827  0.00017  0.54386  1.0000 -0.5594048112
O   O35       1.0  0.13200  0.12427  0.59143  1.0000 -0.659875821
O   O36       1.0  0.71821  0.27056  0.94703  1.0000 -0.5492417225
