# DDEC6 charges by PACMAN v1.1 (https://github.com/mtap-research/PACMAN-charge/)
data_2022[FePd][sql]2[FSR]1
_chemical_formula_sum              "Fe2 H40 Pd2 C52 N24"
_cell_length_a       7.2818
_cell_length_b       14.5355
_cell_length_c       15.3506
_cell_angle_alpha    104.332
_cell_angle_beta     100.229
_cell_angle_gamma    90.26

_symmetry_space_group_name_H-M    "P 1"
_symmetry_Int_Tables_number       1

loop_
  _symmetry_equiv_pos_as_xyz
  'x, y, z'

loop_
  _atom_site_type_symbol
  _atom_site_label
  _atom_site_symmetry_multiplicity
  _atom_site_fract_x
  _atom_site_fract_y
  _atom_site_fract_z
  _atom_site_occupancy
  _atom_site_charge
Fe  Fe1       1.0  0.00000  0.50000  0.00000  1.0000 0.5632092049
Fe  Fe2       1.0  0.00000  0.00000  0.00000  1.0000 0.7727393201
H   H1        1.0  0.11174  0.69572  0.15184  1.0000 0.1456133267
H   H2        1.0  0.31662  0.29551  0.84451  1.0000 0.0995857587
H   H3        1.0  0.45578  0.44847  0.88818  1.0000 0.1227974143
H   H4        1.0  0.10802  0.11356  0.21615  1.0000 0.1299114814
H   H5        1.0  0.28196  0.88102  0.46819  1.0000 0.1227974143
H   H6        1.0  0.23283  0.21761  0.69299  1.0000 0.1095910462
H   H7        1.0  0.19559  0.68200  0.43486  1.0000 0.0995857587
H   H8        1.0  0.18333  0.14666  0.54631  1.0000 0.1227974143
H   H9        1.0  0.02107  0.87602  0.28475  1.0000 0.1095910462
H   H10       1.0  0.20422  0.17307  0.36999  1.0000 0.0995857587
H   H11       1.0  0.43290  0.99133  0.87284  1.0000 0.1227974143
H   H12       1.0  0.54560  0.13189  0.69305  1.0000 0.0995857587
H   H13       1.0  0.43294  0.00155  0.57308  1.0000 0.1095910462
H   H14       1.0  0.28298  0.77532  0.59351  1.0000 0.1227974143
H   H15       1.0  0.33003  0.85862  0.75487  1.0000 0.1095910462
H   H16       1.0  0.11312  0.54560  0.33307  1.0000 0.1227974143
H   H17       1.0  0.54303  0.12629  0.84297  1.0000 0.1095910462
H   H18       1.0  0.30740  0.30581  0.50255  1.0000 0.1227974143
H   H19       1.0  0.51921  0.51967  0.77632  1.0000 0.1095910462
H   H20       1.0  0.43633  0.44230  0.62385  1.0000 0.1095910462
H   H21       1.0  0.88826  0.30428  0.84816  1.0000 0.1456133267
H   H22       1.0  0.68338  0.70449  0.15549  1.0000 0.0995857587
H   H23       1.0  0.54422  0.55153  0.11182  1.0000 0.1227974143
H   H24       1.0  0.89198  0.88644  0.78385  1.0000 0.1299114814
H   H25       1.0  0.71804  0.11898  0.53181  1.0000 0.1227974143
H   H26       1.0  0.76717  0.78239  0.30701  1.0000 0.1095910462
H   H27       1.0  0.80441  0.31800  0.56514  1.0000 0.0995857587
H   H28       1.0  0.81667  0.85334  0.45369  1.0000 0.1227974143
H   H29       1.0  0.97893  0.12398  0.71525  1.0000 0.1095910462
H   H30       1.0  0.79578  0.82693  0.63001  1.0000 0.0995857587
H   H31       1.0  0.56710  0.00867  0.12716  1.0000 0.1227974143
H   H32       1.0  0.45440  0.86811  0.30695  1.0000 0.0995857587
H   H33       1.0  0.56706  0.99845  0.42692  1.0000 0.1095910462
H   H34       1.0  0.71702  0.22468  0.40649  1.0000 0.1227974143
H   H35       1.0  0.66997  0.14138  0.24513  1.0000 0.1095910462
H   H36       1.0  0.88688  0.45440  0.66693  1.0000 0.1227974143
H   H37       1.0  0.45697  0.87371  0.15703  1.0000 0.1095910462
H   H38       1.0  0.69260  0.69419  0.49745  1.0000 0.1227974143
H   H39       1.0  0.48079  0.48033  0.22368  1.0000 0.1095910462
H   H40       1.0  0.56367  0.55770  0.37615  1.0000 0.1095910462
Pd  Pd1       1.0  0.48955  0.73355  0.96395  1.0000 0.1672841748
Pd  Pd2       1.0  0.51045  0.26645  0.03605  1.0000 0.1644716999
C   C1        1.0  0.69120  0.64010  0.97260  1.0000 0.0197123792
C   C2        1.0  0.29830  0.64040  0.97610  1.0000 0.0197123792
C   C3        1.0  0.29830  0.83190  0.96310  1.0000 0.0503250957
C   C4        1.0  0.67590  0.83020  0.95700  1.0000 0.0503250957
C   C5        1.0  0.10070  0.64550  0.17850  1.0000 0.0602653227
C   C6        1.0  0.32670  0.32120  0.64060  1.0000 0.1095910462
C   C7        1.0  0.33990  0.32510  0.80010  1.0000 -0.0871509537
C   C8        1.0  0.42450  0.41660  0.82660  1.0000 -0.0871509537
C   C9        1.0  0.08130  0.05020  0.21350  1.0000 0.0602653227
C   C10       1.0  0.26850  0.82570  0.48700  1.0000 -0.1322225342
C   C11       1.0  0.29060  0.27820  0.70940  1.0000 -0.1589990927
C   C12       1.0  0.21170  0.73830  0.41810  1.0000 0.0503250957
C   C13       1.0  0.21190  0.18210  0.50730  1.0000 -0.1367846439
C   C14       1.0  0.36840  0.91570  0.65080  1.0000 0.1095910462
C   C15       1.0  0.03370  0.91940  0.25050  1.0000 0.0602653227
C   C16       1.0  0.17810  0.13910  0.41070  1.0000 0.0602653227
C   C17       1.0  0.43450  0.99290  0.81280  1.0000 -0.0734128998
C   C18       1.0  0.50040  0.07710  0.70490  1.0000 -0.1082319515
C   C19       1.0  0.43390  0.99880  0.63310  1.0000 -0.1723502436
C   C20       1.0  0.30280  0.83110  0.57650  1.0000 -0.1520900706
C   C21       1.0  0.37110  0.91360  0.74190  1.0000 -0.1589990927
C   C22       1.0  0.10120  0.56270  0.27790  1.0000 0.0503250957
C   C23       1.0  0.49940  0.07360  0.79500  1.0000 -0.0961923124
C   C24       1.0  0.28320  0.27170  0.54350  1.0000 -0.1520900706
C   C25       1.0  0.46110  0.45920  0.75950  1.0000 -0.0871509537
C   C26       1.0  0.41210  0.41240  0.66790  1.0000 -0.1723502436
C   C27       1.0  0.30880  0.35990  0.02740  1.0000 0.0197123792
C   C28       1.0  0.70170  0.35960  0.02390  1.0000 0.0197123792
C   C29       1.0  0.70170  0.16810  0.03690  1.0000 0.0503250957
C   C30       1.0  0.32410  0.16980  0.04300  1.0000 0.0503250957
C   C31       1.0  0.89930  0.35450  0.82150  1.0000 0.0602653227
C   C32       1.0  0.67330  0.67880  0.35940  1.0000 0.1095910462
C   C33       1.0  0.66010  0.67490  0.19990  1.0000 -0.0871509537
C   C34       1.0  0.57550  0.58340  0.17340  1.0000 -0.0871509537
C   C35       1.0  0.91870  0.94980  0.78650  1.0000 0.0602653227
C   C36       1.0  0.73150  0.17430  0.51300  1.0000 -0.1322225342
C   C37       1.0  0.70940  0.72180  0.29060  1.0000 -0.1589990927
C   C38       1.0  0.78830  0.26170  0.58190  1.0000 0.0503250957
C   C39       1.0  0.78810  0.81790  0.49270  1.0000 -0.1367846439
C   C40       1.0  0.63160  0.08430  0.34920  1.0000 0.1095910462
C   C41       1.0  0.96630  0.08060  0.74950  1.0000 0.0602653227
C   C42       1.0  0.82190  0.86090  0.58930  1.0000 0.0602653227
C   C43       1.0  0.56550  0.00710  0.18720  1.0000 -0.0734128998
C   C44       1.0  0.49960  0.92290  0.29510  1.0000 -0.1082319515
C   C45       1.0  0.56610  0.00120  0.36690  1.0000 -0.1723502436
C   C46       1.0  0.69720  0.16890  0.42350  1.0000 -0.1520900706
C   C47       1.0  0.62890  0.08640  0.25810  1.0000 -0.1589990927
C   C48       1.0  0.89880  0.43730  0.72210  1.0000 0.0503250957
C   C49       1.0  0.50060  0.92640  0.20500  1.0000 -0.0961923124
C   C50       1.0  0.71680  0.72830  0.45650  1.0000 -0.1520900706
C   C51       1.0  0.53890  0.54080  0.24050  1.0000 -0.0871509537
C   C52       1.0  0.58790  0.58760  0.33210  1.0000 -0.1723502436
N   N1        1.0  0.80620  0.58980  0.98180  1.0000 -0.273271338
N   N2        1.0  0.03870  0.98200  0.13850  1.0000 -0.1589990927
N   N3        1.0  0.18730  0.58810  0.98440  1.0000 -0.2786671081
N   N4        1.0  0.13090  0.65250  0.26950  1.0000 0.0995857587
N   N5        1.0  0.05370  0.55730  0.13380  1.0000 -0.0871509537
N   N6        1.0  0.19390  0.89020  0.96770  1.0000 -0.3381962487
N   N7        1.0  0.78160  0.89010  0.95790  1.0000 -0.3465872118
N   N8        1.0  0.05370  0.50410  0.19710  1.0000 -0.1520900706
N   N9        1.0  0.08030  0.01370  0.28720  1.0000 0.1095910462
N   N10       1.0  0.18370  0.73910  0.33390  1.0000 -0.2166675488
N   N11       1.0  0.11140  0.05290  0.38150  1.0000 -0.2124392995
N   N12       1.0  0.00910  0.89760  0.16190  1.0000 -0.2018851945
N   N13       1.0  0.19380  0.41020  0.01820  1.0000 -0.273271338
N   N14       1.0  0.96130  0.01800  0.86150  1.0000 -0.1589990927
N   N15       1.0  0.81270  0.41190  0.01560  1.0000 -0.2786671081
N   N16       1.0  0.86910  0.34750  0.73050  1.0000 0.0995857587
N   N17       1.0  0.94630  0.44270  0.86620  1.0000 -0.0871509537
N   N18       1.0  0.80610  0.10980  0.03230  1.0000 -0.3381962487
N   N19       1.0  0.21840  0.10990  0.04210  1.0000 -0.3465872118
N   N20       1.0  0.94630  0.49590  0.80290  1.0000 -0.1589990927
N   N21       1.0  0.91970  0.98630  0.71280  1.0000 0.1095910462
N   N22       1.0  0.81630  0.26090  0.66610  1.0000 -0.2166675488
N   N23       1.0  0.88860  0.94710  0.61850  1.0000 -0.2124392995
N   N24       1.0  0.99090  0.10240  0.83810  1.0000 -0.2018851945
