# DDEC6 charges by PACMAN v1.1 (https://github.com/mtap-research/PACMAN-charge/)
data_2022[ZnCo][rtl]3[FSR]1
_chemical_formula_sum              "Zn8 Co4 P8 H24 C64 O56"
_cell_length_a       17.4403
_cell_length_b       17.4403
_cell_length_c       17.4403
_cell_angle_alpha    116.284
_cell_angle_beta     116.284
_cell_angle_gamma    96.5674

_symmetry_space_group_name_H-M    "P 1"
_symmetry_Int_Tables_number       1

loop_
  _symmetry_equiv_pos_as_xyz
  'x, y, z'

loop_
  _atom_site_type_symbol
  _atom_site_label
  _atom_site_symmetry_multiplicity
  _atom_site_fract_x
  _atom_site_fract_y
  _atom_site_fract_z
  _atom_site_occupancy
  _atom_site_charge
Zn  Zn1       1.0  0.19658  0.19970  0.45054  1.0000 1.0322030384
Zn  Zn2       1.0  0.74916  0.74604  0.54946  1.0000 1.0354325202
Zn  Zn3       1.0  0.25396  0.80342  0.00312  1.0000 1.0322030384
Zn  Zn4       1.0  0.80030  0.25084  0.99688  1.0000 1.0322030384
Zn  Zn5       1.0  0.00084  0.05030  0.49688  1.0000 1.0322030384
Zn  Zn6       1.0  0.55342  0.50396  0.50312  1.0000 1.0322030384
Zn  Zn7       1.0  0.94970  0.44658  0.95054  1.0000 1.0322030384
Zn  Zn8       1.0  0.49604  0.99916  0.04946  1.0000 1.0322030384
Co  Co1       1.0  0.24745  0.12500  0.62245  1.0000 1.051914933
Co  Co2       1.0  0.50255  0.62500  0.37755  1.0000 1.051914933
Co  Co3       1.0  0.37500  0.75255  0.87755  1.0000 1.051914933
Co  Co4       1.0  0.87500  0.49745  0.12245  1.0000 1.051914933
P   P1        1.0  0.13621  0.25214  0.59895  1.0000 1.3014600751
P   P2        1.0  0.65319  0.53726  0.40105  1.0000 1.3014600751
P   P3        1.0  0.46274  0.86379  0.11593  1.0000 1.3014600751
P   P4        1.0  0.74786  0.34681  0.88407  1.0000 1.3014600751
P   P5        1.0  0.09681  0.99786  0.38407  1.0000 1.3014600751
P   P6        1.0  0.61379  0.71274  0.61593  1.0000 1.3014600751
P   P7        1.0  0.00214  0.38621  0.09895  1.0000 1.3014600751
P   P8        1.0  0.28726  0.90319  0.90105  1.0000 1.3014600751
H   H1        1.0  0.03895  0.28094  0.69723  1.0000 0.1492949192
H   H2        1.0  0.11562  0.55892  0.87086  1.0000 0.1492949192
H   H3        1.0  0.22404  0.44996  0.70364  1.0000 0.1492949192
H   H4        1.0  0.58371  0.34172  0.30277  1.0000 0.1492949192
H   H5        1.0  0.68806  0.24476  0.12914  1.0000 0.1492949192
H   H6        1.0  0.74632  0.52040  0.29636  1.0000 0.1492949192
H   H7        1.0  0.65828  0.96105  0.24199  1.0000 0.1492949192
H   H8        1.0  0.75524  0.88438  0.44330  1.0000 0.1492949192
H   H9        1.0  0.47960  0.77596  0.22592  1.0000 0.1492949192
H   H10       1.0  0.71906  0.41629  0.75801  1.0000 0.1492949192
H   H11       1.0  0.44108  0.31194  0.55670  1.0000 0.1492949192
H   H12       1.0  0.55004  0.25368  0.77408  1.0000 0.1492949192
H   H13       1.0  0.16629  0.96906  0.25801  1.0000 0.1492949192
H   H14       1.0  0.06194  0.69108  0.05670  1.0000 0.1492949192
H   H15       1.0  0.00368  0.80004  0.27408  1.0000 0.1492949192
H   H16       1.0  0.71105  0.90828  0.74199  1.0000 0.1492949192
H   H17       1.0  0.63438  0.00524  0.94330  1.0000 0.1492949192
H   H18       1.0  0.52596  0.72960  0.72592  1.0000 0.1492949192
H   H19       1.0  0.03094  0.28895  0.19723  1.0000 0.1492949192
H   H20       1.0  0.30892  0.36562  0.37086  1.0000 0.1492949192
H   H21       1.0  0.19996  0.47404  0.20364  1.0000 0.1492949192
H   H22       1.0  0.09172  0.83371  0.80277  1.0000 0.1492949192
H   H23       1.0  0.99476  0.93806  0.62914  1.0000 0.1492949192
H   H24       1.0  0.27040  0.99632  0.79636  1.0000 0.1492949192
C   C1        1.0  0.01270  0.40340  0.83010  1.0000 0.5618157637
C   C2        1.0  0.13150  0.35310  0.68740  1.0000 -0.1258977923
C   C3        1.0  0.07480  0.34160  0.72180  1.0000 -0.0604684066
C   C4        1.0  0.07050  0.41750  0.79060  1.0000 0.0053436541
C   C5        1.0  0.12000  0.50670  0.82490  1.0000 -0.0804307919
C   C6        1.0  0.17690  0.51790  0.78980  1.0000 0.0015570652
C   C7        1.0  0.18320  0.44150  0.72410  1.0000 -0.0604684066
C   C8        1.0  0.23360  0.61480  0.83180  1.0000 0.6183804748
C   C9        1.0  0.57330  0.18260  0.16990  1.0000 0.5618157637
C   C10       1.0  0.66570  0.44410  0.31260  1.0000 -0.1249675128
C   C11       1.0  0.61980  0.35300  0.27820  1.0000 -0.0604684066
C   C12       1.0  0.62690  0.27990  0.20940  1.0000 0.0053436541
C   C13       1.0  0.68180  0.29510  0.17510  1.0000 -0.0804307919
C   C14       1.0  0.72810  0.38710  0.21020  1.0000 0.0015570652
C   C15       1.0  0.71740  0.45910  0.27590  1.0000 -0.0604684066
C   C16       1.0  0.78300  0.40180  0.16820  1.0000 0.6183804748
C   C17       1.0  0.81740  0.98730  0.39070  1.0000 0.5618157637
C   C18       1.0  0.55590  0.86850  0.22160  1.0000 -0.1249675128
C   C19       1.0  0.64700  0.92520  0.26680  1.0000 -0.0604684066
C   C20       1.0  0.72010  0.92950  0.34700  1.0000 0.0053436541
C   C21       1.0  0.70490  0.88000  0.38670  1.0000 -0.0804307919
C   C22       1.0  0.61290  0.82310  0.34100  1.0000 0.0015570652
C   C23       1.0  0.54090  0.81680  0.25830  1.0000 -0.0604684066
C   C24       1.0  0.59820  0.76640  0.38120  1.0000 0.6183804748
C   C25       1.0  0.59660  0.42670  0.60930  1.0000 0.5618157637
C   C26       1.0  0.64690  0.33430  0.77840  1.0000 -0.1258977923
C   C27       1.0  0.65840  0.38020  0.73320  1.0000 -0.0604684066
C   C28       1.0  0.58250  0.37310  0.65300  1.0000 0.0053436541
C   C29       1.0  0.49330  0.31820  0.61330  1.0000 -0.0804307919
C   C30       1.0  0.48210  0.27190  0.65900  1.0000 0.0015570652
C   C31       1.0  0.55850  0.28260  0.74170  1.0000 -0.0604684066
C   C32       1.0  0.38520  0.21700  0.61880  1.0000 0.6183804748
C   C33       1.0  0.17670  0.84660  0.10930  1.0000 0.5618157637
C   C34       1.0  0.08430  0.89690  0.27840  1.0000 -0.1258977923
C   C35       1.0  0.13020  0.90840  0.23320  1.0000 -0.0604684066
C   C36       1.0  0.12310  0.83250  0.15300  1.0000 0.0053436541
C   C37       1.0  0.06820  0.74330  0.11330  1.0000 -0.0804307919
C   C38       1.0  0.02190  0.73210  0.15900  1.0000 0.0015570652
C   C39       1.0  0.03260  0.80850  0.24170  1.0000 -0.0604684066
C   C40       1.0  0.96700  0.63520  0.11880  1.0000 0.6183804748
C   C41       1.0  0.73730  0.06740  0.89070  1.0000 0.5618157637
C   C42       1.0  0.61850  0.80590  0.72160  1.0000 -0.1258977923
C   C43       1.0  0.67520  0.89700  0.76680  1.0000 -0.0604684066
C   C44       1.0  0.67950  0.97010  0.84700  1.0000 0.0053436541
C   C45       1.0  0.63000  0.95490  0.88670  1.0000 -0.0804307919
C   C46       1.0  0.57310  0.86290  0.84100  1.0000 0.0015570652
C   C47       1.0  0.56680  0.79090  0.75830  1.0000 -0.0604684066
C   C48       1.0  0.51640  0.84820  0.88120  1.0000 0.6183804748
C   C49       1.0  0.15340  0.26270  0.33010  1.0000 0.5618157637
C   C50       1.0  0.10310  0.38150  0.18740  1.0000 -0.1258977923
C   C51       1.0  0.09160  0.32480  0.22180  1.0000 -0.0604684066
C   C52       1.0  0.16750  0.32050  0.29060  1.0000 0.0053436541
C   C53       1.0  0.25670  0.37000  0.32490  1.0000 -0.0804307919
C   C54       1.0  0.26790  0.42690  0.28980  1.0000 0.0015570652
C   C55       1.0  0.19150  0.43320  0.22410  1.0000 -0.0604684066
C   C56       1.0  0.36480  0.48360  0.33180  1.0000 0.6183804748
C   C57       1.0  0.93260  0.82330  0.66990  1.0000 0.5618157637
C   C58       1.0  0.19410  0.91570  0.81260  1.0000 -0.1258977923
C   C59       1.0  0.10300  0.86980  0.77820  1.0000 -0.0604684066
C   C60       1.0  0.02990  0.87690  0.70940  1.0000 0.0053436541
C   C61       1.0  0.04510  0.93180  0.67510  1.0000 -0.0804307919
C   C62       1.0  0.13710  0.97810  0.71020  1.0000 0.0015570652
C   C63       1.0  0.20910  0.96740  0.77590  1.0000 -0.0604684066
C   C64       1.0  0.15180  0.03300  0.66820  1.0000 0.6183804748
O   O1        1.0  0.22060  0.68010  0.88630  1.0000 -0.5326758
O   O2        1.0  0.29100  0.62380  0.80820  1.0000 -0.5009859401
O   O3        1.0  0.21040  0.22990  0.66370  1.0000 -0.7613900798
O   O4        1.0  0.04050  0.17480  0.53270  1.0000 -0.7104113671
O   O5        1.0  0.16000  0.27790  0.53710  1.0000 -0.7005790893
O   O6        1.0  0.00870  0.47620  0.89090  1.0000 -0.5084857318
O   O7        1.0  0.97230  0.32580  0.80490  1.0000 -0.453445145
O   O8        1.0  0.79380  0.33430  0.11370  1.0000 -0.5326758
O   O9        1.0  0.81560  0.48280  0.19180  1.0000 -0.5009859401
O   O10       1.0  0.56620  0.54670  0.33630  1.0000 -0.7613900798
O   O11       1.0  0.64210  0.50780  0.46730  1.0000 -0.7104113671
O   O12       1.0  0.74080  0.62290  0.46290  1.0000 -0.7005790893
O   O13       1.0  0.58530  0.11780  0.10910  1.0000 -0.5084857318
O   O14       1.0  0.52090  0.16740  0.19510  1.0000 -0.453445145
O   O15       1.0  0.66570  0.77940  0.45950  1.0000 -0.5326758
O   O16       1.0  0.51720  0.70900  0.33280  1.0000 -0.5009859401
O   O17       1.0  0.45330  0.78960  0.01950  1.0000 -0.7613900798
O   O18       1.0  0.49220  0.95950  0.13430  1.0000 -0.7104113671
O   O19       1.0  0.37710  0.84000  0.11790  1.0000 -0.7005790893
O   O20       1.0  0.88220  0.99130  0.46750  1.0000 -0.5084857318
O   O21       1.0  0.83260  0.02770  0.35350  1.0000 -0.453445145
O   O22       1.0  0.31990  0.20620  0.54050  1.0000 -0.5326758
O   O23       1.0  0.37620  0.18440  0.66720  1.0000 -0.5009859401
O   O24       1.0  0.77010  0.43380  0.98050  1.0000 -0.7613900798
O   O25       1.0  0.82520  0.35790  0.86570  1.0000 -0.7104113671
O   O26       1.0  0.72210  0.25920  0.88210  1.0000 -0.7005790893
O   O27       1.0  0.52380  0.41470  0.53250  1.0000 -0.5084857318
O   O28       1.0  0.67420  0.47910  0.64650  1.0000 -0.453445145
O   O29       1.0  0.95620  0.56990  0.04050  1.0000 -0.5326758
O   O30       1.0  0.93440  0.62620  0.16720  1.0000 -0.5009859401
O   O31       1.0  0.18380  0.02010  0.48050  1.0000 -0.7613900798
O   O32       1.0  0.10790  0.07520  0.36570  1.0000 -0.7104113671
O   O33       1.0  0.00920  0.97210  0.38210  1.0000 -0.7005790893
O   O34       1.0  0.16470  0.77380  0.03250  1.0000 -0.5084857318
O   O35       1.0  0.22910  0.92420  0.14650  1.0000 -0.453445145
O   O36       1.0  0.52940  0.91570  0.95950  1.0000 -0.5326758
O   O37       1.0  0.45900  0.76720  0.83280  1.0000 -0.5009859401
O   O38       1.0  0.53960  0.70330  0.51950  1.0000 -0.7613900798
O   O39       1.0  0.70950  0.74220  0.63430  1.0000 -0.7104113671
O   O40       1.0  0.59000  0.62710  0.61790  1.0000 -0.7005790893
O   O41       1.0  0.74130  0.13220  0.96750  1.0000 -0.5084857318
O   O42       1.0  0.77770  0.08260  0.85350  1.0000 -0.453445145
O   O43       1.0  0.43010  0.47060  0.38630  1.0000 -0.5326758
O   O44       1.0  0.37380  0.54100  0.30820  1.0000 -0.5009859401
O   O45       1.0  0.97990  0.46040  0.16370  1.0000 -0.7613900798
O   O46       1.0  0.92480  0.29050  0.03270  1.0000 -0.7104113671
O   O47       1.0  0.02790  0.41000  0.03710  1.0000 -0.7005790893
O   O48       1.0  0.22620  0.25870  0.39090  1.0000 -0.5084857318
O   O49       1.0  0.07580  0.22230  0.30490  1.0000 -0.453445145
O   O50       1.0  0.08430  0.04380  0.61370  1.0000 -0.5326758
O   O51       1.0  0.23280  0.06560  0.69180  1.0000 -0.5009859401
O   O52       1.0  0.29670  0.81620  0.83630  1.0000 -0.7613900798
O   O53       1.0  0.25780  0.89210  0.96730  1.0000 -0.7104113671
O   O54       1.0  0.37290  0.99080  0.96290  1.0000 -0.7005790893
O   O55       1.0  0.86780  0.83530  0.60910  1.0000 -0.5084857318
O   O56       1.0  0.91740  0.77090  0.69510  1.0000 -0.453445145
