# DDEC6 charges by PACMAN v1.1 (https://github.com/mtap-research/PACMAN-charge/)
data_2022[In][nan]2[FSR]1
_chemical_formula_sum              "In2 H32 C42 N2 O14"
_cell_length_a       16.471
_cell_length_b       16.471
_cell_length_c       7.249
_cell_angle_alpha    90
_cell_angle_beta     90
_cell_angle_gamma    134.284

_symmetry_space_group_name_H-M    "P 1"
_symmetry_Int_Tables_number       1

loop_
  _symmetry_equiv_pos_as_xyz
  'x, y, z'

loop_
  _atom_site_type_symbol
  _atom_site_label
  _atom_site_symmetry_multiplicity
  _atom_site_fract_x
  _atom_site_fract_y
  _atom_site_fract_z
  _atom_site_occupancy
  _atom_site_charge
In  In1       1.0  0.00000  0.00000  0.00000  1.0000 1.4163642946
In  In2       1.0  0.00000  0.00000  0.50000  1.0000 1.4163642946
H   H1        1.0  0.85108  0.65392  0.97441  1.0000 0.1191085085
H   H2        1.0  0.75781  0.46503  0.97455  1.0000 0.1191085085
H   H3        1.0  0.14892  0.34608  0.47441  1.0000 0.1191085085
H   H4        1.0  0.24219  0.53497  0.47455  1.0000 0.1191085085
H   H5        1.0  0.34607  0.14891  0.52559  1.0000 0.1191085085
H   H6        1.0  0.53497  0.24219  0.52545  1.0000 0.1191085085
H   H7        1.0  0.65392  0.85108  0.02559  1.0000 0.1191085085
H   H8        1.0  0.46503  0.75781  0.02545  1.0000 0.1191085085
H   H9        1.0  0.14892  0.34608  0.02559  1.0000 0.1191085085
H   H10       1.0  0.24219  0.53497  0.02545  1.0000 0.1191085085
H   H11       1.0  0.85108  0.65392  0.52559  1.0000 0.1191085085
H   H12       1.0  0.75781  0.46503  0.52545  1.0000 0.1191085085
H   H13       1.0  0.65392  0.85108  0.47441  1.0000 0.1191085085
H   H14       1.0  0.46503  0.75781  0.47455  1.0000 0.1191085085
H   H15       1.0  0.34607  0.14891  0.97441  1.0000 0.1191085085
H   H16       1.0  0.53497  0.24219  0.97455  1.0000 0.1191085085
H   H17       1.0  0.90015  0.01175  0.25000  1.0000 0.1710762187
H   H18       1.0  0.98493  0.16707  0.25000  1.0000 0.2444204065
H   H19       1.0  0.95987  0.35097  0.25000  1.0000 0.1191085085
H   H20       1.0  0.88451  0.42767  0.25000  1.0000 0.1191085085
H   H21       1.0  0.09985  0.98825  0.75000  1.0000 0.1710762187
H   H22       1.0  0.01507  0.83293  0.75000  1.0000 0.2444204065
H   H23       1.0  0.04013  0.64903  0.75000  1.0000 0.1191085085
H   H24       1.0  0.11549  0.57233  0.75000  1.0000 0.1191085085
H   H25       1.0  0.98825  0.09985  0.25000  1.0000 0.1710762187
H   H26       1.0  0.83293  0.01507  0.25000  1.0000 0.2444204065
H   H27       1.0  0.64903  0.04013  0.25000  1.0000 0.1191085085
H   H28       1.0  0.57233  0.11549  0.25000  1.0000 0.1191085085
H   H29       1.0  0.01175  0.90015  0.75000  1.0000 0.1710762187
H   H30       1.0  0.16707  0.98493  0.75000  1.0000 0.2444204065
H   H31       1.0  0.35097  0.95987  0.75000  1.0000 0.1191085085
H   H32       1.0  0.42767  0.88451  0.75000  1.0000 0.1191085085
C   C1        1.0  0.83042  0.61558  0.08560  1.0000 -0.0891990837
C   C2        1.0  0.77455  0.50245  0.08550  1.0000 -0.191984878
C   C3        1.0  0.16958  0.38442  0.58560  1.0000 -0.0891990837
C   C4        1.0  0.22545  0.49755  0.58550  1.0000 -0.191984878
C   C5        1.0  0.38442  0.16958  0.41440  1.0000 -0.0891990837
C   C6        1.0  0.49755  0.22545  0.41450  1.0000 -0.191984878
C   C7        1.0  0.61558  0.83042  0.91440  1.0000 -0.0891990837
C   C8        1.0  0.50245  0.77455  0.91450  1.0000 -0.191984878
C   C9        1.0  0.16958  0.38442  0.91440  1.0000 -0.0891990837
C   C10       1.0  0.22545  0.49755  0.91450  1.0000 -0.191984878
C   C11       1.0  0.83042  0.61558  0.41440  1.0000 -0.0891990837
C   C12       1.0  0.77455  0.50245  0.41450  1.0000 -0.191984878
C   C13       1.0  0.61558  0.83042  0.58560  1.0000 -0.0891990837
C   C14       1.0  0.50245  0.77455  0.58550  1.0000 -0.191984878
C   C15       1.0  0.38442  0.16958  0.08560  1.0000 -0.0891990837
C   C16       1.0  0.49755  0.22545  0.08550  1.0000 -0.191984878
C   C17       1.0  0.86179  0.13821  0.25000  1.0000 0.4874001864
C   C18       1.0  0.81193  0.18807  0.25000  1.0000 -0.0494446856
C   C19       1.0  0.72016  0.27984  0.25000  1.0000 0.1952929842
C   C20       1.0  0.13821  0.86179  0.75000  1.0000 0.4874001864
C   C21       1.0  0.18807  0.81193  0.75000  1.0000 -0.0494446856
C   C22       1.0  0.27984  0.72016  0.75000  1.0000 0.1952929842
C   C23       1.0  0.90728  0.79112  0.25000  1.0000 0.6027291837
C   C24       1.0  0.85542  0.67158  0.25000  1.0000 -0.0357102425
C   C25       1.0  0.74404  0.44596  0.25000  1.0000 0.1710762187
C   C26       1.0  0.88155  0.30325  0.25000  1.0000 -0.0958719206
C   C27       1.0  0.83630  0.34930  0.25000  1.0000 -0.191984878
C   C28       1.0  0.09272  0.20888  0.75000  1.0000 0.6027291837
C   C29       1.0  0.14458  0.32842  0.75000  1.0000 -0.0357102425
C   C30       1.0  0.25596  0.55404  0.75000  1.0000 0.1710762187
C   C31       1.0  0.11845  0.69675  0.75000  1.0000 -0.0958719206
C   C32       1.0  0.16370  0.65070  0.75000  1.0000 -0.1956879374
C   C33       1.0  0.20888  0.09272  0.25000  1.0000 0.6027291837
C   C34       1.0  0.32842  0.14458  0.25000  1.0000 -0.0357102425
C   C35       1.0  0.55404  0.25596  0.25000  1.0000 0.1710762187
C   C36       1.0  0.69675  0.11845  0.25000  1.0000 -0.0958719206
C   C37       1.0  0.65070  0.16370  0.25000  1.0000 -0.1956879374
C   C38       1.0  0.79112  0.90728  0.75000  1.0000 0.6027291837
C   C39       1.0  0.67158  0.85542  0.75000  1.0000 -0.0357102425
C   C40       1.0  0.44596  0.74404  0.75000  1.0000 0.1710762187
C   C41       1.0  0.30325  0.88155  0.75000  1.0000 -0.0958719206
C   C42       1.0  0.34930  0.83630  0.75000  1.0000 -0.1956879374
N   N1        1.0  0.67459  0.32541  0.25000  1.0000 -0.2067902711
N   N2        1.0  0.32541  0.67459  0.75000  1.0000 -0.2067902711
O   O1        1.0  0.92650  0.83656  0.09556  1.0000 -0.5790364918
O   O2        1.0  0.07350  0.16344  0.59556  1.0000 -0.5790364918
O   O3        1.0  0.16344  0.07350  0.40444  1.0000 -0.5790364918
O   O4        1.0  0.83656  0.92650  0.90444  1.0000 -0.5790364918
O   O5        1.0  0.07350  0.16344  0.90444  1.0000 -0.5790364918
O   O6        1.0  0.92650  0.83656  0.40444  1.0000 -0.5790364918
O   O7        1.0  0.83656  0.92650  0.59556  1.0000 -0.5790364918
O   O8        1.0  0.16344  0.07350  0.09556  1.0000 -0.5790364918
O   O9        1.0  0.96511  0.03489  0.25000  1.0000 -0.6985480067
O   O10       1.0  0.03489  0.96511  0.75000  1.0000 -0.6985480067
O   O11       1.0  0.96727  0.20473  0.25000  1.0000 -0.4293050868
O   O12       1.0  0.03273  0.79527  0.75000  1.0000 -0.4293050868
O   O13       1.0  0.79527  0.03273  0.25000  1.0000 -0.4293050868
O   O14       1.0  0.20473  0.96727  0.75000  1.0000 -0.4293050868
