# DDEC6 charges by PACMAN v1.1 (https://github.com/mtap-research/PACMAN-charge/)
data_2022[Co][nan]3[FSR]12
_chemical_formula_sum              "Co12 H48 C78 N24 O36"
_cell_length_a       21.1704
_cell_length_b       21.1704
_cell_length_c       21.1704
_cell_angle_alpha    116.351
_cell_angle_beta     116.351
_cell_angle_gamma    116.351

_symmetry_space_group_name_H-M    "P 1"
_symmetry_Int_Tables_number       1

loop_
  _symmetry_equiv_pos_as_xyz
  'x, y, z'

loop_
  _atom_site_type_symbol
  _atom_site_label
  _atom_site_symmetry_multiplicity
  _atom_site_fract_x
  _atom_site_fract_y
  _atom_site_fract_z
  _atom_site_occupancy
  _atom_site_charge
Co  Co1       1.0  0.46286  0.20092  0.65549  1.0000 0.8036377826
Co  Co2       1.0  0.46370  0.01969  0.54830  1.0000 0.8636956512
Co  Co3       1.0  0.20092  0.65549  0.46286  1.0000 0.8036377826
Co  Co4       1.0  0.01969  0.54830  0.46370  1.0000 0.8636956512
Co  Co5       1.0  0.65549  0.46286  0.20092  1.0000 0.8036377826
Co  Co6       1.0  0.54830  0.46370  0.01969  1.0000 0.8636956512
Co  Co7       1.0  0.53714  0.79908  0.34451  1.0000 0.8036377826
Co  Co8       1.0  0.53630  0.98031  0.45170  1.0000 0.8636956512
Co  Co9       1.0  0.79908  0.34451  0.53714  1.0000 0.8036377826
Co  Co10      1.0  0.98031  0.45170  0.53630  1.0000 0.8636956512
Co  Co11      1.0  0.34451  0.53714  0.79908  1.0000 0.8036377826
Co  Co12      1.0  0.45170  0.53630  0.98031  1.0000 0.8636956512
H   H1        1.0  0.60290  0.36000  0.65940  1.0000 0.1195782316
H   H2        1.0  0.63370  0.31230  0.96550  1.0000 0.1123312214
H   H3        1.0  0.73560  0.21140  0.88260  1.0000 0.1123312214
H   H4        1.0  0.67560  0.16040  0.67200  1.0000 0.3801431655
H   H5        1.0  0.64880  0.07620  0.65400  1.0000 0.3900917469
H   H6        1.0  0.77660  0.41070  0.14750  1.0000 0.1195782316
H   H7        1.0  0.88870  0.32630  0.07360  1.0000 0.1195782316
H   H8        1.0  0.65570  0.13640  0.46000  1.0000 0.1123312214
H   H9        1.0  0.36000  0.65940  0.60290  1.0000 0.1195782316
H   H10       1.0  0.31230  0.96550  0.63370  1.0000 0.1123312214
H   H11       1.0  0.21140  0.88260  0.73560  1.0000 0.1123312214
H   H12       1.0  0.16040  0.67200  0.67560  1.0000 0.3801431655
H   H13       1.0  0.07620  0.65400  0.64880  1.0000 0.3900917469
H   H14       1.0  0.41070  0.14750  0.77660  1.0000 0.1195782316
H   H15       1.0  0.32630  0.07360  0.88870  1.0000 0.125174567
H   H16       1.0  0.13640  0.46000  0.65570  1.0000 0.1123312214
H   H17       1.0  0.65940  0.60290  0.36000  1.0000 0.1195782316
H   H18       1.0  0.96550  0.63370  0.31230  1.0000 0.1123312214
H   H19       1.0  0.88260  0.73560  0.21140  1.0000 0.1123312214
H   H20       1.0  0.67200  0.67560  0.16040  1.0000 0.3801431655
H   H21       1.0  0.65400  0.64880  0.07620  1.0000 0.3900917469
H   H22       1.0  0.14750  0.77660  0.41070  1.0000 0.1195782316
H   H23       1.0  0.07360  0.88870  0.32630  1.0000 0.125174567
H   H24       1.0  0.46000  0.65570  0.13640  1.0000 0.1123312214
H   H25       1.0  0.39710  0.64000  0.34060  1.0000 0.1195782316
H   H26       1.0  0.36630  0.68770  0.03450  1.0000 0.1123312214
H   H27       1.0  0.26440  0.78860  0.11740  1.0000 0.1123312214
H   H28       1.0  0.32440  0.83960  0.32800  1.0000 0.3801431655
H   H29       1.0  0.35120  0.92380  0.34600  1.0000 0.3900917469
H   H30       1.0  0.22340  0.58930  0.85250  1.0000 0.1195782316
H   H31       1.0  0.11130  0.67370  0.92640  1.0000 0.1195782316
H   H32       1.0  0.34430  0.86360  0.54000  1.0000 0.1123312214
H   H33       1.0  0.64000  0.34060  0.39710  1.0000 0.1195782316
H   H34       1.0  0.68770  0.03450  0.36630  1.0000 0.1123312214
H   H35       1.0  0.78860  0.11740  0.26440  1.0000 0.1123312214
H   H36       1.0  0.83960  0.32800  0.32440  1.0000 0.3801431655
H   H37       1.0  0.92380  0.34600  0.35120  1.0000 0.3900917469
H   H38       1.0  0.58930  0.85250  0.22340  1.0000 0.1195782316
H   H39       1.0  0.67370  0.92640  0.11130  1.0000 0.125174567
H   H40       1.0  0.86360  0.54000  0.34430  1.0000 0.1123312214
H   H41       1.0  0.34060  0.39710  0.64000  1.0000 0.1195782316
H   H42       1.0  0.03450  0.36630  0.68770  1.0000 0.1123312214
H   H43       1.0  0.11740  0.26440  0.78860  1.0000 0.1123312214
H   H44       1.0  0.32800  0.32440  0.83960  1.0000 0.3801431655
H   H45       1.0  0.34600  0.35120  0.92380  1.0000 0.3900917469
H   H46       1.0  0.85250  0.22340  0.58930  1.0000 0.1195782316
H   H47       1.0  0.92640  0.11130  0.67370  1.0000 0.125174567
H   H48       1.0  0.54000  0.34430  0.86360  1.0000 0.1123312214
C   C1        1.0  0.58110  0.19034  0.78576  1.0000 0.5834348201
C   C2        1.0  0.58873  0.29993  0.62924  1.0000 0.0416095249
C   C3        1.0  0.67009  0.25236  0.90355  1.0000 -0.0239887329
C   C4        1.0  0.57807  0.17648  0.54945  1.0000 0.2961000501
C   C5        1.0  0.61802  0.27239  0.58399  1.0000 -0.1789095105
C   C6        1.0  0.68396  0.31339  0.98585  1.0000 -0.1004823075
C   C7        1.0  0.74560  0.25490  0.93680  1.0000 -0.1098697294
C   C8        1.0  0.67705  0.31833  0.57082  1.0000 0.5020760297
C   C9        1.0  0.77058  0.37389  0.09493  1.0000 -0.1098697294
C   C10       1.0  0.83580  0.32190  0.05050  1.0000 -0.1098697294
C   C11       1.0  0.64650  0.17156  0.49374  1.0000 0.2731995829
C   C12       1.0  0.84865  0.38192  0.12913  1.0000 -0.0075841414
C   C13       1.0  0.95302  0.46317  0.25521  1.0000 0.5872517823
C   C14       1.0  0.19034  0.78576  0.58110  1.0000 0.5834348201
C   C15       1.0  0.29993  0.62924  0.58873  1.0000 0.0416095249
C   C16       1.0  0.25236  0.90355  0.67009  1.0000 -0.0239887329
C   C17       1.0  0.17648  0.54945  0.57807  1.0000 0.2961000501
C   C18       1.0  0.27239  0.58399  0.61802  1.0000 -0.1789095105
C   C19       1.0  0.31339  0.98585  0.68396  1.0000 -0.1004823075
C   C20       1.0  0.25490  0.93680  0.74560  1.0000 -0.1098697294
C   C21       1.0  0.31833  0.57082  0.67705  1.0000 0.5020760297
C   C22       1.0  0.37389  0.09493  0.77058  1.0000 -0.1098697294
C   C23       1.0  0.32190  0.05050  0.83580  1.0000 -0.1098697294
C   C24       1.0  0.17156  0.49374  0.64650  1.0000 0.2731995829
C   C25       1.0  0.38192  0.12913  0.84865  1.0000 -0.0075841414
C   C26       1.0  0.46317  0.25521  0.95302  1.0000 0.5872517823
C   C27       1.0  0.78576  0.58110  0.19034  1.0000 0.5834348201
C   C28       1.0  0.62924  0.58873  0.29993  1.0000 0.0416095249
C   C29       1.0  0.90355  0.67009  0.25236  1.0000 -0.0239887329
C   C30       1.0  0.54945  0.57807  0.17648  1.0000 0.2961000501
C   C31       1.0  0.58399  0.61802  0.27239  1.0000 -0.1789095105
C   C32       1.0  0.98585  0.68396  0.31339  1.0000 -0.1004823075
C   C33       1.0  0.93680  0.74560  0.25490  1.0000 -0.1098697294
C   C34       1.0  0.57082  0.67705  0.31833  1.0000 0.5020760297
C   C35       1.0  0.09493  0.77058  0.37389  1.0000 -0.1098697294
C   C36       1.0  0.05050  0.83580  0.32190  1.0000 -0.1098697294
C   C37       1.0  0.49374  0.64650  0.17156  1.0000 0.2731995829
C   C38       1.0  0.12913  0.84865  0.38192  1.0000 -0.0075841414
C   C39       1.0  0.25521  0.95302  0.46317  1.0000 0.5872517823
C   C40       1.0  0.41890  0.80966  0.21424  1.0000 0.5834348201
C   C41       1.0  0.41127  0.70007  0.37076  1.0000 0.0416095249
C   C42       1.0  0.32991  0.74764  0.09645  1.0000 -0.0239887329
C   C43       1.0  0.42193  0.82352  0.45055  1.0000 0.2961000501
C   C44       1.0  0.38198  0.72761  0.41601  1.0000 -0.1789095105
C   C45       1.0  0.31604  0.68661  0.01415  1.0000 -0.1004823075
C   C46       1.0  0.25440  0.74510  0.06320  1.0000 -0.1098697294
C   C47       1.0  0.32295  0.68167  0.42918  1.0000 0.5020760297
C   C48       1.0  0.22942  0.62611  0.90507  1.0000 -0.1098697294
C   C49       1.0  0.16420  0.67810  0.94950  1.0000 -0.1098697294
C   C50       1.0  0.35350  0.82844  0.50626  1.0000 0.2731995829
C   C51       1.0  0.15135  0.61808  0.87087  1.0000 -0.0075841414
C   C52       1.0  0.04698  0.53683  0.74479  1.0000 0.5872517823
C   C53       1.0  0.80966  0.21424  0.41890  1.0000 0.5834348201
C   C54       1.0  0.70007  0.37076  0.41127  1.0000 0.0416095249
C   C55       1.0  0.74764  0.09645  0.32991  1.0000 -0.0239887329
C   C56       1.0  0.82352  0.45055  0.42193  1.0000 0.2961000501
C   C57       1.0  0.72761  0.41601  0.38198  1.0000 -0.1789095105
C   C58       1.0  0.68661  0.01415  0.31604  1.0000 -0.1004823075
C   C59       1.0  0.74510  0.06320  0.25440  1.0000 -0.1098697294
C   C60       1.0  0.68167  0.42918  0.32295  1.0000 0.5020760297
C   C61       1.0  0.62611  0.90507  0.22942  1.0000 -0.1098697294
C   C62       1.0  0.67810  0.94950  0.16420  1.0000 -0.1098697294
C   C63       1.0  0.82844  0.50626  0.35350  1.0000 0.2731995829
C   C64       1.0  0.61808  0.87087  0.15135  1.0000 -0.0075841414
C   C65       1.0  0.53683  0.74479  0.04698  1.0000 0.5872517823
C   C66       1.0  0.21424  0.41890  0.80966  1.0000 0.5834348201
C   C67       1.0  0.37076  0.41127  0.70007  1.0000 0.0416095249
C   C68       1.0  0.09645  0.32991  0.74764  1.0000 -0.0239887329
C   C69       1.0  0.45055  0.42193  0.82352  1.0000 0.2961000501
C   C70       1.0  0.41601  0.38198  0.72761  1.0000 -0.1789095105
C   C71       1.0  0.01415  0.31604  0.68661  1.0000 -0.1004823075
C   C72       1.0  0.06320  0.25440  0.74510  1.0000 -0.1098697294
C   C73       1.0  0.42918  0.32295  0.68167  1.0000 0.5020760297
C   C74       1.0  0.90507  0.22942  0.62611  1.0000 -0.1098697294
C   C75       1.0  0.94950  0.16420  0.67810  1.0000 -0.1098697294
C   C76       1.0  0.50626  0.35350  0.82844  1.0000 0.2731995829
C   C77       1.0  0.87087  0.15135  0.61808  1.0000 -0.0075841414
C   C78       1.0  0.74479  0.04698  0.53683  1.0000 0.5872517823
N   N1        1.0  0.53770  0.22634  0.62186  1.0000 -0.1933657329
N   N2        1.0  0.69128  0.26487  0.52695  1.0000 -0.4490279904
N   N3        1.0  0.52855  0.14716  0.57129  1.0000 -0.3754651846
N   N4        1.0  0.59185  0.12331  0.50244  1.0000 -0.4056081475
N   N5        1.0  0.22634  0.62186  0.53770  1.0000 -0.1933657329
N   N6        1.0  0.26487  0.52695  0.69128  1.0000 -0.4490279904
N   N7        1.0  0.14716  0.57129  0.52855  1.0000 -0.3749642969
N   N8        1.0  0.12331  0.50244  0.59185  1.0000 -0.4056081475
N   N9        1.0  0.62186  0.53770  0.22634  1.0000 -0.1933657329
N   N10       1.0  0.52695  0.69128  0.26487  1.0000 -0.4490279904
N   N11       1.0  0.57129  0.52855  0.14716  1.0000 -0.3749642969
N   N12       1.0  0.50244  0.59185  0.12331  1.0000 -0.4056081475
N   N13       1.0  0.46230  0.77366  0.37814  1.0000 -0.1933657329
N   N14       1.0  0.30872  0.73513  0.47305  1.0000 -0.4490279904
N   N15       1.0  0.47145  0.85284  0.42871  1.0000 -0.3749642969
N   N16       1.0  0.40815  0.87669  0.49756  1.0000 -0.4056081475
N   N17       1.0  0.77366  0.37814  0.46230  1.0000 -0.1933657329
N   N18       1.0  0.73513  0.47305  0.30872  1.0000 -0.4490279904
N   N19       1.0  0.85284  0.42871  0.47145  1.0000 -0.3754651846
N   N20       1.0  0.87669  0.49756  0.40815  1.0000 -0.4056081475
N   N21       1.0  0.37814  0.46230  0.77366  1.0000 -0.1933657329
N   N22       1.0  0.47305  0.30872  0.73513  1.0000 -0.4490279904
N   N23       1.0  0.42871  0.47145  0.85284  1.0000 -0.3749642969
N   N24       1.0  0.49756  0.40815  0.87669  1.0000 -0.4056081475
O   O1        1.0  0.54286  0.22190  0.77414  1.0000 -0.5525683216
O   O2        1.0  0.04538  0.51018  0.29524  1.0000 -0.5251604121
O   O3        1.0  0.55411  0.11563  0.70986  1.0000 -0.5525683216
O   O4        1.0  0.62270  0.08654  0.62086  1.0000 -0.6556381883
O   O5        1.0  0.94025  0.47844  0.31001  1.0000 -0.5673703851
O   O6        1.0  0.72252  0.40718  0.60330  1.0000 -0.5036867461
O   O7        1.0  0.22190  0.77414  0.54286  1.0000 -0.5525683216
O   O8        1.0  0.51018  0.29524  0.04538  1.0000 -0.5251604121
O   O9        1.0  0.11563  0.70986  0.55411  1.0000 -0.5525683216
O   O10       1.0  0.08654  0.62086  0.62270  1.0000 -0.6556381883
O   O11       1.0  0.47844  0.31001  0.94025  1.0000 -0.5673703851
O   O12       1.0  0.40718  0.60330  0.72252  1.0000 -0.5036867461
O   O13       1.0  0.77414  0.54286  0.22190  1.0000 -0.5525683216
O   O14       1.0  0.29524  0.04538  0.51018  1.0000 -0.5251604121
O   O15       1.0  0.70986  0.55411  0.11563  1.0000 -0.5525683216
O   O16       1.0  0.62086  0.62270  0.08654  1.0000 -0.6556381883
O   O17       1.0  0.31001  0.94025  0.47844  1.0000 -0.5673703851
O   O18       1.0  0.60330  0.72252  0.40718  1.0000 -0.5036867461
O   O19       1.0  0.45714  0.77810  0.22586  1.0000 -0.5525683216
O   O20       1.0  0.95462  0.48982  0.70476  1.0000 -0.5251604121
O   O21       1.0  0.44589  0.88437  0.29014  1.0000 -0.5525683216
O   O22       1.0  0.37730  0.91346  0.37914  1.0000 -0.6556381883
O   O23       1.0  0.05975  0.52156  0.68999  1.0000 -0.5673703851
O   O24       1.0  0.27748  0.59282  0.39670  1.0000 -0.5036867461
O   O25       1.0  0.77810  0.22586  0.45714  1.0000 -0.5525683216
O   O26       1.0  0.48982  0.70476  0.95462  1.0000 -0.5251604121
O   O27       1.0  0.88437  0.29014  0.44589  1.0000 -0.5525683216
O   O28       1.0  0.91346  0.37914  0.37730  1.0000 -0.6556381883
O   O29       1.0  0.52156  0.68999  0.05975  1.0000 -0.5673703851
O   O30       1.0  0.59282  0.39670  0.27748  1.0000 -0.5036867461
O   O31       1.0  0.22586  0.45714  0.77810  1.0000 -0.5525683216
O   O32       1.0  0.70476  0.95462  0.48982  1.0000 -0.5251604121
O   O33       1.0  0.29014  0.44589  0.88437  1.0000 -0.5525683216
O   O34       1.0  0.37914  0.37730  0.91346  1.0000 -0.6556381883
O   O35       1.0  0.68999  0.05975  0.52156  1.0000 -0.5673703851
O   O36       1.0  0.39670  0.27748  0.59282  1.0000 -0.5036867461
