# DDEC6 charges by PACMAN v1.1 (https://github.com/mtap-research/PACMAN-charge/)
data_2022[Cd][nan]2[FSR]2
_chemical_formula_sum              "Cd2 H56 C72 N8 O20"
_cell_length_a       12.0716
_cell_length_b       12.0716
_cell_length_c       17.3886
_cell_angle_alpha    73.6077
_cell_angle_beta     106.392
_cell_angle_gamma    121.032

_symmetry_space_group_name_H-M    "P 1"
_symmetry_Int_Tables_number       1

loop_
  _symmetry_equiv_pos_as_xyz
  'x, y, z'

loop_
  _atom_site_type_symbol
  _atom_site_label
  _atom_site_symmetry_multiplicity
  _atom_site_fract_x
  _atom_site_fract_y
  _atom_site_fract_z
  _atom_site_occupancy
  _atom_site_charge
Cd  Cd1       1.0  0.00000  0.00000  0.00000  1.0000 0.873070154
Cd  Cd2       1.0  0.00000  0.00000  0.50000  1.0000 0.873070154
H   H1        1.0  0.63800  0.47780  0.11920  1.0000 0.1197287039
H   H2        1.0  0.59800  0.08460  0.94860  1.0000 0.1410082215
H   H3        1.0  0.57100  0.69220  0.90710  1.0000 0.1197287039
H   H4        1.0  0.71370  0.98670  0.94200  1.0000 0.1114586122
H   H5        1.0  0.80110  0.70790  0.80840  1.0000 0.1197287039
H   H6        1.0  0.25750  0.16790  0.81070  1.0000 0.1197287039
H   H7        1.0  0.73450  0.36690  0.04260  1.0000 0.1197287039
H   H8        1.0  0.60530  0.23250  0.04220  1.0000 0.1197287039
H   H9        1.0  0.92910  0.35690  0.05500  1.0000 0.1410082215
H   H10       1.0  0.03470  0.25010  0.04620  1.0000 0.1114586122
H   H11       1.0  0.90980  0.07380  0.74600  1.0000 0.1114586122
H   H12       1.0  0.82530  0.94890  0.80380  1.0000 0.1114586122
H   H13       1.0  0.84600  0.08660  0.80790  1.0000 0.1283713389
H   H14       1.0  0.08020  0.10100  0.84070  1.0000 0.3344694111
H   H15       1.0  0.47780  0.63800  0.38080  1.0000 0.1197287039
H   H16       1.0  0.08460  0.59800  0.55140  1.0000 0.1410082215
H   H17       1.0  0.69220  0.57100  0.59290  1.0000 0.1197287039
H   H18       1.0  0.98670  0.71370  0.55800  1.0000 0.1114586122
H   H19       1.0  0.70790  0.80110  0.69160  1.0000 0.1197287039
H   H20       1.0  0.16790  0.25750  0.68930  1.0000 0.1197287039
H   H21       1.0  0.36690  0.73450  0.45740  1.0000 0.1197287039
H   H22       1.0  0.23250  0.60530  0.45780  1.0000 0.1197287039
H   H23       1.0  0.35690  0.92910  0.44500  1.0000 0.1410082215
H   H24       1.0  0.25010  0.03470  0.45380  1.0000 0.1114586122
H   H25       1.0  0.07380  0.90980  0.75400  1.0000 0.1114586122
H   H26       1.0  0.94890  0.82530  0.69620  1.0000 0.1114586122
H   H27       1.0  0.08660  0.84600  0.69210  1.0000 0.1283713389
H   H28       1.0  0.10100  0.08020  0.65930  1.0000 0.3344694111
H   H29       1.0  0.36200  0.52220  0.88080  1.0000 0.1197287039
H   H30       1.0  0.40200  0.91540  0.05140  1.0000 0.1410082215
H   H31       1.0  0.42900  0.30780  0.09290  1.0000 0.1197287039
H   H32       1.0  0.28630  0.01330  0.05800  1.0000 0.1114586122
H   H33       1.0  0.19890  0.29210  0.19160  1.0000 0.1197287039
H   H34       1.0  0.74250  0.83210  0.18930  1.0000 0.1197287039
H   H35       1.0  0.26550  0.63310  0.95740  1.0000 0.1197287039
H   H36       1.0  0.39470  0.76750  0.95780  1.0000 0.1197287039
H   H37       1.0  0.07090  0.64310  0.94500  1.0000 0.1410082215
H   H38       1.0  0.96530  0.74990  0.95380  1.0000 0.1114586122
H   H39       1.0  0.09020  0.92620  0.25400  1.0000 0.1114586122
H   H40       1.0  0.17470  0.05110  0.19620  1.0000 0.1114586122
H   H41       1.0  0.15400  0.91340  0.19210  1.0000 0.1283713389
H   H42       1.0  0.91980  0.89900  0.15930  1.0000 0.3344694111
H   H43       1.0  0.52220  0.36200  0.61920  1.0000 0.1197287039
H   H44       1.0  0.91540  0.40200  0.44860  1.0000 0.1410082215
H   H45       1.0  0.30780  0.42900  0.40710  1.0000 0.1197287039
H   H46       1.0  0.01330  0.28630  0.44200  1.0000 0.1114586122
H   H47       1.0  0.29210  0.19890  0.30840  1.0000 0.1197287039
H   H48       1.0  0.83210  0.74250  0.31070  1.0000 0.1197287039
H   H49       1.0  0.63310  0.26550  0.54260  1.0000 0.1197287039
H   H50       1.0  0.76750  0.39470  0.54220  1.0000 0.1197287039
H   H51       1.0  0.64310  0.07090  0.55500  1.0000 0.1410082215
H   H52       1.0  0.74990  0.96530  0.54620  1.0000 0.1114586122
H   H53       1.0  0.92620  0.09020  0.24600  1.0000 0.1114586122
H   H54       1.0  0.05110  0.17470  0.30380  1.0000 0.1114586122
H   H55       1.0  0.91340  0.15400  0.30790  1.0000 0.1283713389
H   H56       1.0  0.89900  0.91980  0.34070  1.0000 0.3344694111
C   C1        1.0  0.76376  0.71584  0.03462  1.0000 0.5551669035
C   C2        1.0  0.62685  0.60365  0.01585  1.0000 -0.0230741635
C   C3        1.0  0.48928  0.26932  0.90041  1.0000 0.423892859
C   C4        1.0  0.43404  0.32576  0.82231  1.0000 -0.0594620653
C   C5        1.0  0.51133  0.45569  0.78590  1.0000 0.0322094369
C   C6        1.0  0.64286  0.53074  0.82058  1.0000 -0.0594620653
C   C7        1.0  0.58271  0.48715  0.07117  1.0000 -0.1307610836
C   C8        1.0  0.68727  0.12033  0.96925  1.0000 -0.1819896098
C   C9        1.0  0.54292  0.61508  0.94471  1.0000 -0.1191735979
C   C10       1.0  0.75774  0.06206  0.96538  1.0000 0.098091356
C   C11       1.0  0.70189  0.47371  0.89623  1.0000 0.4305197332
C   C12       1.0  0.71453  0.65847  0.78522  1.0000 -0.0966757726
C   C13       1.0  0.74963  0.23137  0.00388  1.0000 0.1410082215
C   C14       1.0  0.30783  0.25357  0.78651  1.0000 -0.0811879601
C   C15       1.0  0.67572  0.29588  0.01191  1.0000 -0.1307610836
C   C16       1.0  0.88255  0.28085  0.03220  1.0000 -0.1819896098
C   C17       1.0  0.94540  0.21620  0.02620  1.0000 0.098091356
C   C18       1.0  0.88608  0.04092  0.79930  1.0000 -0.1819896098
C   C19       1.0  0.71584  0.76376  0.46538  1.0000 0.5551669035
C   C20       1.0  0.60365  0.62685  0.48415  1.0000 -0.0230741635
C   C21       1.0  0.26932  0.48928  0.59959  1.0000 0.423892859
C   C22       1.0  0.32576  0.43404  0.67769  1.0000 -0.0594620653
C   C23       1.0  0.45569  0.51133  0.71410  1.0000 0.0322094369
C   C24       1.0  0.53074  0.64286  0.67942  1.0000 -0.0594620653
C   C25       1.0  0.48715  0.58271  0.42883  1.0000 -0.1307610836
C   C26       1.0  0.12033  0.68727  0.53075  1.0000 -0.1819896098
C   C27       1.0  0.61508  0.54292  0.55529  1.0000 -0.1191735979
C   C28       1.0  0.06206  0.75774  0.53462  1.0000 0.098091356
C   C29       1.0  0.47371  0.70189  0.60377  1.0000 0.4305197332
C   C30       1.0  0.65847  0.71453  0.71478  1.0000 -0.0966757726
C   C31       1.0  0.23137  0.74963  0.49612  1.0000 0.1410082215
C   C32       1.0  0.25357  0.30783  0.71349  1.0000 -0.0811879601
C   C33       1.0  0.29588  0.67572  0.48809  1.0000 -0.1307610836
C   C34       1.0  0.28085  0.88255  0.46780  1.0000 -0.1819896098
C   C35       1.0  0.21620  0.94540  0.47380  1.0000 0.098091356
C   C36       1.0  0.04092  0.88608  0.70070  1.0000 -0.1853943583
C   C37       1.0  0.23624  0.28416  0.96538  1.0000 0.5551669035
C   C38       1.0  0.37315  0.39635  0.98415  1.0000 -0.0230741635
C   C39       1.0  0.51072  0.73068  0.09959  1.0000 0.423892859
C   C40       1.0  0.56596  0.67424  0.17769  1.0000 -0.0594620653
C   C41       1.0  0.48867  0.54431  0.21410  1.0000 0.0322094369
C   C42       1.0  0.35714  0.46926  0.17942  1.0000 -0.0594620653
C   C43       1.0  0.41729  0.51285  0.92883  1.0000 -0.1307610836
C   C44       1.0  0.31273  0.87967  0.03075  1.0000 -0.1819896098
C   C45       1.0  0.45708  0.38492  0.05529  1.0000 -0.1191735979
C   C46       1.0  0.24226  0.93794  0.03462  1.0000 0.098091356
C   C47       1.0  0.29811  0.52629  0.10377  1.0000 0.4305197332
C   C48       1.0  0.28547  0.34153  0.21478  1.0000 -0.0966757726
C   C49       1.0  0.25037  0.76863  0.99612  1.0000 0.1410082215
C   C50       1.0  0.69217  0.74643  0.21349  1.0000 -0.0811879601
C   C51       1.0  0.32428  0.70412  0.98809  1.0000 -0.1307610836
C   C52       1.0  0.11745  0.71915  0.96780  1.0000 -0.1819896098
C   C53       1.0  0.05460  0.78380  0.97380  1.0000 0.098091356
C   C54       1.0  0.11392  0.95908  0.20070  1.0000 -0.1853943583
C   C55       1.0  0.28416  0.23624  0.53462  1.0000 0.5551669035
C   C56       1.0  0.39635  0.37315  0.51585  1.0000 -0.0230741635
C   C57       1.0  0.73068  0.51072  0.40041  1.0000 0.423892859
C   C58       1.0  0.67424  0.56596  0.32231  1.0000 -0.0594620653
C   C59       1.0  0.54431  0.48867  0.28590  1.0000 0.0322094369
C   C60       1.0  0.46926  0.35714  0.32058  1.0000 -0.0594620653
C   C61       1.0  0.51285  0.41729  0.57117  1.0000 -0.1307610836
C   C62       1.0  0.87967  0.31273  0.46925  1.0000 -0.1819896098
C   C63       1.0  0.38492  0.45708  0.44471  1.0000 -0.1191735979
C   C64       1.0  0.93794  0.24226  0.46538  1.0000 0.098091356
C   C65       1.0  0.52629  0.29811  0.39623  1.0000 0.4305197332
C   C66       1.0  0.34153  0.28547  0.28522  1.0000 -0.0966757726
C   C67       1.0  0.76863  0.25037  0.50388  1.0000 0.1410082215
C   C68       1.0  0.74643  0.69217  0.28651  1.0000 -0.0811879601
C   C69       1.0  0.70412  0.32428  0.51191  1.0000 -0.1307610836
C   C70       1.0  0.71915  0.11745  0.53220  1.0000 -0.1819896098
C   C71       1.0  0.78380  0.05460  0.52620  1.0000 0.098091356
C   C72       1.0  0.95908  0.11392  0.29930  1.0000 -0.1819896098
N   N1        1.0  0.61994  0.34834  0.93252  1.0000 -0.1662541594
N   N2        1.0  0.88570  0.10818  0.99345  1.0000 -0.2483662482
N   N3        1.0  0.34834  0.61994  0.56748  1.0000 -0.1662541594
N   N4        1.0  0.10818  0.88570  0.50655  1.0000 -0.2483662482
N   N5        1.0  0.38006  0.65166  0.06748  1.0000 -0.1662541594
N   N6        1.0  0.11430  0.89182  0.00655  1.0000 -0.2483662482
N   N7        1.0  0.65166  0.38006  0.43252  1.0000 -0.1662541594
N   N8        1.0  0.89182  0.11430  0.49345  1.0000 -0.2483662482
O   O1        1.0  0.80128  0.81476  0.97858  1.0000 -0.5976376202
O   O2        1.0  0.82963  0.70431  0.10334  1.0000 -0.5630694297
O   O3        1.0  0.81619  0.53161  0.92749  1.0000 -0.4434180822
O   O4        1.0  0.00029  0.06117  0.85868  1.0000 -0.4090014514
O   O5        1.0  0.42571  0.16029  0.93605  1.0000 -0.4486028221
O   O6        1.0  0.81476  0.80128  0.52142  1.0000 -0.5976376202
O   O7        1.0  0.70431  0.82963  0.39666  1.0000 -0.5630694297
O   O8        1.0  0.53161  0.81619  0.57251  1.0000 -0.4434180822
O   O9        1.0  0.06117  0.00029  0.64132  1.0000 -0.4090014514
O   O10       1.0  0.16029  0.42571  0.56395  1.0000 -0.4486028221
O   O11       1.0  0.19872  0.18524  0.02142  1.0000 -0.5976376202
O   O12       1.0  0.17037  0.29569  0.89666  1.0000 -0.5630694297
O   O13       1.0  0.18381  0.46839  0.07251  1.0000 -0.4434180822
O   O14       1.0  0.99971  0.93883  0.14132  1.0000 -0.4090014514
O   O15       1.0  0.57429  0.83971  0.06395  1.0000 -0.4486028221
O   O16       1.0  0.18524  0.19872  0.47858  1.0000 -0.5976376202
O   O17       1.0  0.29569  0.17037  0.60334  1.0000 -0.5630694297
O   O18       1.0  0.46839  0.18381  0.42749  1.0000 -0.4434180822
O   O19       1.0  0.93883  0.99971  0.35868  1.0000 -0.4090014514
O   O20       1.0  0.83971  0.57429  0.43605  1.0000 -0.4486028221
