# DDEC6 charges by PACMAN v1.1 (https://github.com/mtap-research/PACMAN-charge/)
data_2022[Zn][fsc]3[FSR]1
_chemical_formula_sum              "Zn4 H64 C120 S8 N8 O24"
_cell_length_a       11.6493
_cell_length_b       17.1968
_cell_length_c       19.335
_cell_angle_alpha    75.496
_cell_angle_beta     88.306
_cell_angle_gamma    89.086

_symmetry_space_group_name_H-M    "P 1"
_symmetry_Int_Tables_number       1

loop_
  _symmetry_equiv_pos_as_xyz
  'x, y, z'

loop_
  _atom_site_type_symbol
  _atom_site_label
  _atom_site_symmetry_multiplicity
  _atom_site_fract_x
  _atom_site_fract_y
  _atom_site_fract_z
  _atom_site_occupancy
  _atom_site_charge
Zn  Zn1       1.0  0.03158  0.24447  0.77084  1.0000 0.8468065663
Zn  Zn2       1.0  0.02117  0.06639  0.81535  1.0000 0.8417252704
Zn  Zn3       1.0  0.96842  0.75553  0.22916  1.0000 0.8468065663
Zn  Zn4       1.0  0.97883  0.93361  0.18465  1.0000 0.8417252704
H   H1        1.0  0.15755  0.04550  0.03476  1.0000 0.1216468648
H   H2        1.0  0.27301  0.05135  0.12984  1.0000 0.1216468648
H   H3        1.0  0.43453  0.24658  0.00614  1.0000 0.1112863265
H   H4        1.0  0.31180  0.24515  0.91322  1.0000 0.1216468648
H   H5        1.0  0.57930  0.06074  0.03984  1.0000 0.1281831465
H   H6        1.0  0.69576  0.06555  0.93920  1.0000 0.1216468648
H   H7        1.0  0.81635  0.28066  0.95025  1.0000 0.1281831465
H   H8        1.0  0.70770  0.27245  0.05354  1.0000 0.1216468648
H   H9        1.0  0.38653  0.01892  0.55694  1.0000 0.1112863265
H   H10       1.0  0.27311  0.01723  0.65740  1.0000 0.1216468648
H   H11       1.0  0.32251  0.25411  0.62664  1.0000 0.1216468648
H   H12       1.0  0.43978  0.25433  0.52654  1.0000 0.1216468648
H   H13       1.0  0.68359  0.03909  0.55644  1.0000 0.1112863265
H   H14       1.0  0.80980  0.04306  0.64748  1.0000 0.1112863265
H   H15       1.0  0.80431  0.28443  0.58537  1.0000 0.1281831465
H   H16       1.0  0.69131  0.27953  0.49055  1.0000 0.1216468648
H   H17       1.0  0.06380  0.90540  0.92364  1.0000 0.1216468648
H   H18       1.0  0.05043  0.76996  0.92918  1.0000 0.1406862281
H   H19       1.0  0.91878  0.82888  0.73290  1.0000 0.1406862281
H   H20       1.0  0.93442  0.96131  0.73210  1.0000 0.1216468648
H   H21       1.0  0.98450  0.66420  0.88290  1.0000 0.1281831465
H   H22       1.0  0.03549  0.68137  0.80280  1.0000 0.1281831465
H   H23       1.0  0.79223  0.65722  0.61239  1.0000 0.1281831465
H   H24       1.0  0.61104  0.62835  0.57560  1.0000 0.1281831465
H   H25       1.0  0.57154  0.64677  0.92739  1.0000 0.1216468648
H   H26       1.0  0.38695  0.62735  0.88692  1.0000 0.1281831465
H   H27       1.0  0.14594  0.63755  0.68402  1.0000 0.1281831465
H   H28       1.0  0.19758  0.61781  0.61259  1.0000 0.1281831465
H   H29       1.0  0.98900  0.54226  0.68110  1.0000 0.1406862281
H   H30       1.0  0.92860  0.41304  0.72165  1.0000 0.1216468648
H   H31       1.0  0.24525  0.33277  0.74594  1.0000 0.1216468648
H   H32       1.0  0.31460  0.46155  0.70854  1.0000 0.1406862281
H   H33       1.0  0.84245  0.95450  0.96524  1.0000 0.1216468648
H   H34       1.0  0.72699  0.94865  0.87016  1.0000 0.1216468648
H   H35       1.0  0.56547  0.75342  0.99386  1.0000 0.1112863265
H   H36       1.0  0.68820  0.75485  0.08678  1.0000 0.1216468648
H   H37       1.0  0.42070  0.93926  0.96016  1.0000 0.1281831465
H   H38       1.0  0.30424  0.93445  0.06080  1.0000 0.1216468648
H   H39       1.0  0.18365  0.71934  0.04975  1.0000 0.1281831465
H   H40       1.0  0.29230  0.72755  0.94646  1.0000 0.1216468648
H   H41       1.0  0.61347  0.98108  0.44306  1.0000 0.1112863265
H   H42       1.0  0.72689  0.98277  0.34260  1.0000 0.1216468648
H   H43       1.0  0.67749  0.74589  0.37336  1.0000 0.1216468648
H   H44       1.0  0.56022  0.74567  0.47346  1.0000 0.1216468648
H   H45       1.0  0.31641  0.96091  0.44356  1.0000 0.1112863265
H   H46       1.0  0.19020  0.95694  0.35252  1.0000 0.1112863265
H   H47       1.0  0.19569  0.71557  0.41463  1.0000 0.1281831465
H   H48       1.0  0.30869  0.72047  0.50945  1.0000 0.1216468648
H   H49       1.0  0.93620  0.09460  0.07636  1.0000 0.1216468648
H   H50       1.0  0.94957  0.23004  0.07082  1.0000 0.1406862281
H   H51       1.0  0.08122  0.17112  0.26710  1.0000 0.1406862281
H   H52       1.0  0.06558  0.03869  0.26790  1.0000 0.1216468648
H   H53       1.0  0.01550  0.33580  0.11710  1.0000 0.1281831465
H   H54       1.0  0.96451  0.31863  0.19720  1.0000 0.1281831465
H   H55       1.0  0.20777  0.34278  0.38761  1.0000 0.1281831465
H   H56       1.0  0.38896  0.37165  0.42440  1.0000 0.1281831465
H   H57       1.0  0.42846  0.35323  0.07261  1.0000 0.1216468648
H   H58       1.0  0.61305  0.37265  0.11308  1.0000 0.1281831465
H   H59       1.0  0.85406  0.36245  0.31598  1.0000 0.1281831465
H   H60       1.0  0.80242  0.38219  0.38741  1.0000 0.1281831465
H   H61       1.0  0.01100  0.45774  0.31890  1.0000 0.1406862281
H   H62       1.0  0.07140  0.58696  0.27835  1.0000 0.1216468648
H   H63       1.0  0.75475  0.66723  0.25406  1.0000 0.1216468648
H   H64       1.0  0.68540  0.53845  0.29146  1.0000 0.1406862281
C   C1        1.0  0.15200  0.14160  0.90200  1.0000 0.5842849716
C   C2        1.0  0.22530  0.14390  0.96440  1.0000 -0.0203357924
C   C3        1.0  0.21340  0.08640  0.02900  1.0000 -0.099471512
C   C4        1.0  0.28360  0.08920  0.08510  1.0000 -0.1493019851
C   C5        1.0  0.36900  0.14650  0.07680  1.0000 0.0910186616
C   C6        1.0  0.37850  0.20570  0.01200  1.0000 -0.1290419296
C   C7        1.0  0.30620  0.20450  0.95670  1.0000 -0.099471512
C   C8        1.0  0.45050  0.14850  0.13410  1.0000 -0.0203357924
C   C9        1.0  0.56300  0.15830  0.12530  1.0000 -0.0437138908
C   C10       1.0  0.63160  0.16540  0.05780  1.0000 0.0910186616
C   C11       1.0  0.62910  0.10500  0.02260  1.0000 -0.1397721217
C   C12       1.0  0.69820  0.10790  0.96260  1.0000 -0.0901679719
C   C13       1.0  0.77110  0.17230  0.93650  1.0000 -0.0203357924
C   C14       1.0  0.77060  0.23460  0.96950  1.0000 -0.099471512
C   C15       1.0  0.70430  0.23030  0.02990  1.0000 -0.1641984776
C   C16       1.0  0.85670  0.17090  0.87610  1.0000 0.5936849519
C   C17       1.0  0.52290  0.14690  0.26170  1.0000 -0.0486885295
C   C18       1.0  0.53080  0.14740  0.32740  1.0000 -0.0687627577
C   C19       1.0  0.49020  0.14020  0.46380  1.0000 -0.0486885295
C   C20       1.0  0.42120  0.13610  0.53070  1.0000 0.0910186616
C   C21       1.0  0.37280  0.06770  0.57060  1.0000 -0.1493019851
C   C22       1.0  0.30440  0.06650  0.63020  1.0000 -0.099471512
C   C23       1.0  0.28150  0.13620  0.65020  1.0000 -0.0203357924
C   C24       1.0  0.33420  0.20580  0.61200  1.0000 -0.0901679719
C   C25       1.0  0.40400  0.20610  0.55230  1.0000 -0.1493019851
C   C26       1.0  0.19630  0.13910  0.70890  1.0000 0.598000209
C   C27       1.0  0.60210  0.15310  0.45420  1.0000 -0.0486885295
C   C28       1.0  0.68110  0.15790  0.51200  1.0000 0.0986826687
C   C29       1.0  0.71210  0.08920  0.56030  1.0000 -0.1493019851
C   C30       1.0  0.78550  0.09170  0.61570  1.0000 -0.099471512
C   C31       1.0  0.82280  0.16440  0.62460  1.0000 -0.0302774058
C   C32       1.0  0.78370  0.23380  0.57840  1.0000 -0.0838775829
C   C33       1.0  0.71540  0.23090  0.52250  1.0000 -0.1493019851
C   C34       1.0  0.89810  0.16690  0.68520  1.0000 0.598000209
C   C35       1.0  0.03510  0.88970  0.88370  1.0000 0.0986826687
C   C36       1.0  0.02690  0.80860  0.88760  1.0000 -0.1917832043
C   C37       1.0  0.98480  0.78420  0.83140  1.0000 0.1543963953
C   C38       1.0  0.94980  0.84330  0.77280  1.0000 -0.1917832043
C   C39       1.0  0.96000  0.92180  0.77250  1.0000 0.0814700026
C   C40       1.0  0.97390  0.69660  0.83340  1.0000 -0.1493019851
C   C41       1.0  0.85650  0.67360  0.73810  1.0000 0.4178571407
C   C42       1.0  0.74110  0.65740  0.71450  1.0000 -0.0599932597
C   C43       1.0  0.72790  0.65110  0.64460  1.0000 -0.1105854128
C   C44       1.0  0.61910  0.63570  0.62230  1.0000 -0.0901679719
C   C45       1.0  0.52380  0.63120  0.66667  1.0000 -0.0687627577
C   C46       1.0  0.53540  0.63870  0.73630  1.0000 0.0279991496
C   C47       1.0  0.64500  0.65020  0.76140  1.0000 0.0279991496
C   C48       1.0  0.65560  0.65430  0.83240  1.0000 -0.0687627577
C   C49       1.0  0.77000  0.66960  0.85750  1.0000 0.4178571407
C   C50       1.0  0.56190  0.64510  0.87920  1.0000 -0.099471512
C   C51       1.0  0.45180  0.63310  0.85520  1.0000 -0.1105854128
C   C52       1.0  0.43920  0.63000  0.78540  1.0000 -0.0599932597
C   C53       1.0  0.32350  0.62160  0.75700  1.0000 0.4178571407
C   C54       1.0  0.19980  0.60200  0.66540  1.0000 -0.1493019851
C   C55       1.0  0.16170  0.51750  0.69170  1.0000 0.1568261787
C   C56       1.0  0.04380  0.50020  0.69550  1.0000 -0.1917832043
C   C57       1.0  0.00870  0.42310  0.71970  1.0000 0.0814700026
C   C58       1.0  0.19220  0.37630  0.73420  1.0000 0.0986826687
C   C59       1.0  0.23400  0.45320  0.71110  1.0000 -0.1807858493
C   C60       1.0  0.40970  0.61670  0.64180  1.0000 0.4086240336
C   C61       1.0  0.84800  0.85840  0.09800  1.0000 0.5842849716
C   C62       1.0  0.77470  0.85610  0.03560  1.0000 -0.0203357924
C   C63       1.0  0.78660  0.91360  0.97100  1.0000 -0.099471512
C   C64       1.0  0.71640  0.91080  0.91490  1.0000 -0.1493019851
C   C65       1.0  0.63100  0.85350  0.92320  1.0000 0.0910186616
C   C66       1.0  0.62150  0.79430  0.98800  1.0000 -0.1290419296
C   C67       1.0  0.69380  0.79550  0.04330  1.0000 -0.099471512
C   C68       1.0  0.54950  0.85150  0.86590  1.0000 -0.0203357924
C   C69       1.0  0.43700  0.84170  0.87470  1.0000 -0.0437138908
C   C70       1.0  0.36840  0.83460  0.94220  1.0000 0.0910186616
C   C71       1.0  0.37090  0.89500  0.97740  1.0000 -0.1397721217
C   C72       1.0  0.30180  0.89210  0.03740  1.0000 -0.0901679719
C   C73       1.0  0.22890  0.82770  0.06350  1.0000 -0.0203357924
C   C74       1.0  0.22940  0.76540  0.03050  1.0000 -0.099471512
C   C75       1.0  0.29570  0.76970  0.97010  1.0000 -0.1659962282
C   C76       1.0  0.14330  0.82910  0.12390  1.0000 0.5936849519
C   C77       1.0  0.47710  0.85310  0.73830  1.0000 -0.0599932597
C   C78       1.0  0.46920  0.85260  0.67260  1.0000 -0.0687627577
C   C79       1.0  0.50980  0.85980  0.53620  1.0000 -0.0486885295
C   C80       1.0  0.57880  0.86390  0.46930  1.0000 0.0910186616
C   C81       1.0  0.62720  0.93230  0.42940  1.0000 -0.1493019851
C   C82       1.0  0.69560  0.93350  0.36980  1.0000 -0.0901679719
C   C83       1.0  0.71850  0.86380  0.34980  1.0000 -0.0203357924
C   C84       1.0  0.66580  0.79420  0.38800  1.0000 -0.0901679719
C   C85       1.0  0.59600  0.79390  0.44770  1.0000 -0.1493019851
C   C86       1.0  0.80370  0.86090  0.29110  1.0000 0.598000209
C   C87       1.0  0.39790  0.84690  0.54580  1.0000 -0.0486885295
C   C88       1.0  0.31890  0.84210  0.48800  1.0000 0.0986826687
C   C89       1.0  0.28790  0.91080  0.43970  1.0000 -0.1493019851
C   C90       1.0  0.21450  0.90830  0.38430  1.0000 -0.099471512
C   C91       1.0  0.17720  0.83560  0.37540  1.0000 -0.0302774058
C   C92       1.0  0.21630  0.76620  0.42160  1.0000 -0.0838775829
C   C93       1.0  0.28460  0.76910  0.47750  1.0000 -0.1493019851
C   C94       1.0  0.10190  0.83310  0.31480  1.0000 0.598000209
C   C95       1.0  0.96490  0.11030  0.11630  1.0000 0.0986826687
C   C96       1.0  0.97310  0.19140  0.11240  1.0000 -0.1917832043
C   C97       1.0  0.01520  0.21580  0.16860  1.0000 0.1543963953
C   C98       1.0  0.05020  0.15670  0.22720  1.0000 -0.1917832043
C   C99       1.0  0.04000  0.07820  0.22750  1.0000 0.0814700026
C   C100      1.0  0.02610  0.30340  0.16660  1.0000 -0.1397721217
C   C101      1.0  0.14350  0.32640  0.26190  1.0000 0.4178571407
C   C102      1.0  0.25890  0.34260  0.28550  1.0000 -0.0599932597
C   C103      1.0  0.27210  0.34890  0.35540  1.0000 -0.1105854128
C   C104      1.0  0.38090  0.36430  0.37770  1.0000 -0.0901679719
C   C105      1.0  0.47620  0.36880  0.33333  1.0000 -0.0687627577
C   C106      1.0  0.46460  0.36130  0.26370  1.0000 0.0224594255
C   C107      1.0  0.35500  0.34980  0.23860  1.0000 0.0279991496
C   C108      1.0  0.34440  0.34570  0.16760  1.0000 -0.0687627577
C   C109      1.0  0.23000  0.33040  0.14250  1.0000 0.4178571407
C   C110      1.0  0.43810  0.35490  0.12080  1.0000 -0.099471512
C   C111      1.0  0.54820  0.36690  0.14480  1.0000 -0.1105854128
C   C112      1.0  0.56080  0.37000  0.21460  1.0000 -0.0599932597
C   C113      1.0  0.67650  0.37840  0.24300  1.0000 0.4178571407
C   C114      1.0  0.80020  0.39800  0.33460  1.0000 -0.1493019851
C   C115      1.0  0.83830  0.48250  0.30830  1.0000 0.1568261787
C   C116      1.0  0.95620  0.49980  0.30450  1.0000 -0.1917832043
C   C117      1.0  0.99130  0.57690  0.28030  1.0000 0.0814700026
C   C118      1.0  0.80780  0.62370  0.26580  1.0000 0.0910186616
C   C119      1.0  0.76600  0.54680  0.28890  1.0000 -0.1807858493
C   C120      1.0  0.59030  0.38330  0.35820  1.0000 0.4086240336
S   S1        1.0  0.64296  0.15940  0.20100  1.0000 0.0530195191
S   S2        1.0  0.39227  0.13311  0.22171  1.0000 0.0224594255
S   S3        1.0  0.66199  0.16251  0.36773  1.0000 0.0279991496
S   S4        1.0  0.41170  0.13284  0.38874  1.0000 0.0279991496
S   S5        1.0  0.35704  0.84060  0.79900  1.0000 0.0530195191
S   S6        1.0  0.60773  0.86689  0.77829  1.0000 0.0224594255
S   S7        1.0  0.33801  0.83749  0.63227  1.0000 0.0279991496
S   S8        1.0  0.58830  0.86716  0.61126  1.0000 0.0279991496
N   N1        1.0  0.00470  0.94670  0.82680  1.0000 -0.21693438
N   N2        1.0  0.86240  0.67790  0.80890  1.0000 -0.1807858493
N   N3        1.0  0.31690  0.61320  0.68780  1.0000 -0.1807858493
N   N4        1.0  0.07930  0.36070  0.74090  1.0000 -0.2067497194
N   N5        1.0  0.99530  0.05330  0.17320  1.0000 -0.21693438
N   N6        1.0  0.13760  0.32210  0.19110  1.0000 -0.1807858493
N   N7        1.0  0.68310  0.38680  0.31220  1.0000 -0.1807858493
N   N8        1.0  0.92070  0.63930  0.25910  1.0000 -0.2067497194
O   O1        1.0  0.10240  0.07680  0.90300  1.0000 -0.5395806179
O   O2        1.0  0.14360  0.20540  0.85360  1.0000 -0.5583984053
O   O3        1.0  0.87360  0.10400  0.86070  1.0000 -0.5583984053
O   O4        1.0  0.90650  0.23590  0.84660  1.0000 -0.5395806179
O   O5        1.0  0.93790  0.10190  0.72030  1.0000 -0.5546418623
O   O6        1.0  0.91380  0.23550  0.69730  1.0000 -0.5395806179
O   O7        1.0  0.15430  0.20890  0.70720  1.0000 -0.5583984053
O   O8        1.0  0.17030  0.07570  0.75480  1.0000 -0.5395806179
O   O9        1.0  0.78450  0.67520  0.91790  1.0000 -0.4237179205
O   O10       1.0  0.94160  0.68210  0.69870  1.0000 -0.447347422
O   O11       1.0  0.23680  0.62090  0.79360  1.0000 -0.4277446613
O   O12       1.0  0.39600  0.60700  0.58180  1.0000 -0.4379376516
O   O13       1.0  0.89760  0.92320  0.09700  1.0000 -0.5395806179
O   O14       1.0  0.85640  0.79460  0.14640  1.0000 -0.5583984053
O   O15       1.0  0.12640  0.89600  0.13930  1.0000 -0.5583984053
O   O16       1.0  0.09350  0.76410  0.15340  1.0000 -0.5395806179
O   O17       1.0  0.06210  0.89810  0.27970  1.0000 -0.5546418623
O   O18       1.0  0.08620  0.76450  0.30270  1.0000 -0.5395806179
O   O19       1.0  0.84570  0.79110  0.29280  1.0000 -0.5583984053
O   O20       1.0  0.82970  0.92430  0.24520  1.0000 -0.5395806179
O   O21       1.0  0.21550  0.32480  0.08210  1.0000 -0.4237179205
O   O22       1.0  0.05840  0.31790  0.30130  1.0000 -0.447347422
O   O23       1.0  0.76320  0.37910  0.20640  1.0000 -0.4277446613
O   O24       1.0  0.60400  0.39300  0.41820  1.0000 -0.4379376516
