# DDEC6 charges by PACMAN v1.1 (https://github.com/mtap-research/PACMAN-charge/)
data_2022[Zn][pcu]3[FSR]7
_chemical_formula_sum              "Zn4 H60 C96 N4 O20 F4"
_cell_length_a       14.3575
_cell_length_b       14.3575
_cell_length_c       16.035
_cell_angle_alpha    78.6864
_cell_angle_beta     101.314
_cell_angle_gamma    64.4401

_symmetry_space_group_name_H-M    "P 1"
_symmetry_Int_Tables_number       1

loop_
  _symmetry_equiv_pos_as_xyz
  'x, y, z'

loop_
  _atom_site_type_symbol
  _atom_site_label
  _atom_site_symmetry_multiplicity
  _atom_site_fract_x
  _atom_site_fract_y
  _atom_site_fract_z
  _atom_site_occupancy
  _atom_site_charge
Zn  Zn1       1.0  0.44089  0.58871  0.13846  1.0000 0.8265622716
Zn  Zn2       1.0  0.58871  0.44089  0.36154  1.0000 0.8265622716
Zn  Zn3       1.0  0.55911  0.41129  0.86154  1.0000 0.8265622716
Zn  Zn4       1.0  0.41129  0.55911  0.63846  1.0000 0.8265622716
H   H1        1.0  0.72498  0.46786  0.05562  1.0000 0.1183034788
H   H2        1.0  0.88809  0.39585  0.02731  1.0000 0.1300266731
H   H3        1.0  0.04695  0.25527  0.28943  1.0000 0.138312855
H   H4        1.0  0.88313  0.32491  0.31823  1.0000 0.1130097236
H   H5        1.0  0.02298  0.47156  0.15991  1.0000 0.1300266731
H   H6        1.0  0.11935  0.56289  0.16036  1.0000 0.1183034788
H   H7        1.0  0.36173  0.31869  0.12366  1.0000 0.1130097236
H   H8        1.0  0.26315  0.22789  0.11856  1.0000 0.138312855
H   H9        1.0  0.23360  0.78728  0.02178  1.0000 0.1130097236
H   H10       1.0  0.14595  0.88929  0.87527  1.0000 0.1183034788
H   H11       1.0  0.41714  0.71914  0.81936  1.0000 0.1503552209
H   H12       1.0  0.49897  0.62127  0.96932  1.0000 0.1130097236
H   H13       1.0  0.25803  0.87251  0.69587  1.0000 0.1300266731
H   H14       1.0  0.06627  0.91039  0.72658  1.0000 0.1130097236
H   H15       1.0  0.16897  0.98333  0.55415  1.0000 0.1567189704
H   H16       1.0  0.46786  0.72498  0.44438  1.0000 0.1183034788
H   H17       1.0  0.39585  0.88809  0.47269  1.0000 0.1300266731
H   H18       1.0  0.25527  0.04695  0.21057  1.0000 0.138312855
H   H19       1.0  0.32491  0.88313  0.18177  1.0000 0.1130097236
H   H20       1.0  0.47156  0.02298  0.34009  1.0000 0.1300266731
H   H21       1.0  0.56289  0.11935  0.33964  1.0000 0.1183034788
H   H22       1.0  0.31869  0.36173  0.37634  1.0000 0.1130097236
H   H23       1.0  0.22789  0.26315  0.38144  1.0000 0.138312855
H   H24       1.0  0.78728  0.23360  0.47822  1.0000 0.1130097236
H   H25       1.0  0.88929  0.14595  0.62473  1.0000 0.1183034788
H   H26       1.0  0.71914  0.41714  0.68064  1.0000 0.1503552209
H   H27       1.0  0.62127  0.49897  0.53068  1.0000 0.1130097236
H   H28       1.0  0.87251  0.25803  0.80413  1.0000 0.1300266731
H   H29       1.0  0.91039  0.06627  0.77342  1.0000 0.1130097236
H   H30       1.0  0.98333  0.16897  0.94585  1.0000 0.1567189704
H   H31       1.0  0.27502  0.53214  0.94438  1.0000 0.1183034788
H   H32       1.0  0.11191  0.60415  0.97269  1.0000 0.1300266731
H   H33       1.0  0.95305  0.74473  0.71057  1.0000 0.138312855
H   H34       1.0  0.11687  0.67509  0.68177  1.0000 0.1130097236
H   H35       1.0  0.97702  0.52844  0.84009  1.0000 0.1300266731
H   H36       1.0  0.88065  0.43711  0.83964  1.0000 0.1183034788
H   H37       1.0  0.63827  0.68131  0.87634  1.0000 0.1130097236
H   H38       1.0  0.73685  0.77211  0.88144  1.0000 0.138312855
H   H39       1.0  0.76640  0.21272  0.97822  1.0000 0.1130097236
H   H40       1.0  0.85405  0.11071  0.12473  1.0000 0.1183034788
H   H41       1.0  0.58286  0.28086  0.18064  1.0000 0.1503552209
H   H42       1.0  0.50103  0.37873  0.03068  1.0000 0.1130097236
H   H43       1.0  0.74197  0.12749  0.30413  1.0000 0.1300266731
H   H44       1.0  0.93373  0.08961  0.27342  1.0000 0.1130097236
H   H45       1.0  0.83103  0.01667  0.44585  1.0000 0.1567189704
H   H46       1.0  0.53214  0.27502  0.55562  1.0000 0.1183034788
H   H47       1.0  0.60415  0.11191  0.52731  1.0000 0.1300266731
H   H48       1.0  0.74473  0.95305  0.78943  1.0000 0.138312855
H   H49       1.0  0.67509  0.11687  0.81823  1.0000 0.1130097236
H   H50       1.0  0.52844  0.97702  0.65991  1.0000 0.1300266731
H   H51       1.0  0.43711  0.88065  0.66036  1.0000 0.1183034788
H   H52       1.0  0.68131  0.63827  0.62366  1.0000 0.1130097236
H   H53       1.0  0.77211  0.73685  0.61856  1.0000 0.138312855
H   H54       1.0  0.21272  0.76640  0.52178  1.0000 0.1130097236
H   H55       1.0  0.11071  0.85405  0.37527  1.0000 0.1183034788
H   H56       1.0  0.28086  0.58286  0.31936  1.0000 0.1503552209
H   H57       1.0  0.37873  0.50103  0.46932  1.0000 0.1130097236
H   H58       1.0  0.12749  0.74197  0.19587  1.0000 0.1300266731
H   H59       1.0  0.08961  0.93373  0.22658  1.0000 0.1130097236
H   H60       1.0  0.01667  0.83103  0.05415  1.0000 0.1567189704
C   C1        1.0  0.68142  0.45402  0.20930  1.0000 0.5879638504
C   C2        1.0  0.78713  0.40553  0.19030  1.0000 -0.0468107414
C   C3        1.0  0.78972  0.42532  0.10300  1.0000 -0.0873947579
C   C4        1.0  0.88683  0.38283  0.08610  1.0000 -0.1994236498
C   C5        1.0  0.98199  0.32119  0.15550  1.0000 0.2271592479
C   C6        1.0  0.98187  0.29847  0.24250  1.0000 -0.1994236498
C   C7        1.0  0.88396  0.34056  0.25940  1.0000 -0.0873947579
C   C8        1.0  0.13389  0.34049  0.13920  1.0000 0.2536895137
C   C9        1.0  0.09102  0.44082  0.15200  1.0000 -0.217402174
C   C10       1.0  0.14953  0.49453  0.15290  1.0000 -0.0873947579
C   C11       1.0  0.25111  0.45171  0.14340  1.0000 -0.0636169005
C   C12       1.0  0.29317  0.34997  0.13060  1.0000 -0.0806379456
C   C13       1.0  0.23461  0.29521  0.12790  1.0000 -0.1994236498
C   C14       1.0  0.31155  0.51255  0.14330  1.0000 0.5316672783
C   C15       1.0  0.27068  0.77268  0.98040  1.0000 0.0813463174
C   C16       1.0  0.21766  0.83386  0.89260  1.0000 -0.1881193769
C   C17       1.0  0.27037  0.81377  0.82860  1.0000 0.1688455205
C   C18       1.0  0.37759  0.73379  0.85910  1.0000 -0.1687114079
C   C19       1.0  0.42635  0.67515  0.94960  1.0000 0.0945854272
C   C20       1.0  0.21532  0.86772  0.73140  1.0000 -0.1259336387
C   C21       1.0  0.10988  0.91008  0.69070  1.0000 -0.1353720267
C   C22       1.0  0.10110  0.98870  0.53340  1.0000 -0.2662978906
C   C23       1.0  0.05652  0.95632  0.59350  1.0000 -0.016494518
C   C24       1.0  0.95310  0.97110  0.55690  1.0000 0.2536895137
C   C25       1.0  0.45402  0.68142  0.29070  1.0000 0.5879638504
C   C26       1.0  0.40553  0.78713  0.30970  1.0000 -0.0468107414
C   C27       1.0  0.42532  0.78972  0.39700  1.0000 -0.0873947579
C   C28       1.0  0.38283  0.88683  0.41390  1.0000 -0.1994236498
C   C29       1.0  0.32119  0.98199  0.34450  1.0000 0.2271592479
C   C30       1.0  0.29847  0.98187  0.25750  1.0000 -0.1994236498
C   C31       1.0  0.34056  0.88396  0.24060  1.0000 -0.0873947579
C   C32       1.0  0.34049  0.13389  0.36080  1.0000 0.2536895137
C   C33       1.0  0.44082  0.09102  0.34800  1.0000 -0.217402174
C   C34       1.0  0.49453  0.14953  0.34710  1.0000 -0.0873947579
C   C35       1.0  0.45171  0.25111  0.35660  1.0000 -0.0636169005
C   C36       1.0  0.34997  0.29317  0.36940  1.0000 -0.0806379456
C   C37       1.0  0.29521  0.23461  0.37210  1.0000 -0.1994236498
C   C38       1.0  0.51255  0.31155  0.35670  1.0000 0.5316672783
C   C39       1.0  0.77268  0.27068  0.51960  1.0000 0.0813463174
C   C40       1.0  0.83386  0.21766  0.60740  1.0000 -0.1881193769
C   C41       1.0  0.81377  0.27037  0.67140  1.0000 0.1688455205
C   C42       1.0  0.73379  0.37759  0.64090  1.0000 -0.1687114079
C   C43       1.0  0.67515  0.42635  0.55040  1.0000 0.0945854272
C   C44       1.0  0.86772  0.21532  0.76860  1.0000 -0.1259336387
C   C45       1.0  0.91008  0.10988  0.80930  1.0000 -0.1353720267
C   C46       1.0  0.98870  0.10110  0.96660  1.0000 -0.2662978906
C   C47       1.0  0.95632  0.05652  0.90650  1.0000 -0.016494518
C   C48       1.0  0.97110  0.95310  0.94310  1.0000 0.2536895137
C   C49       1.0  0.31858  0.54598  0.79070  1.0000 0.5879638504
C   C50       1.0  0.21287  0.59447  0.80970  1.0000 -0.0468107414
C   C51       1.0  0.21028  0.57468  0.89700  1.0000 -0.0873947579
C   C52       1.0  0.11317  0.61717  0.91390  1.0000 -0.1994236498
C   C53       1.0  0.01801  0.67881  0.84450  1.0000 0.2271592479
C   C54       1.0  0.01813  0.70153  0.75750  1.0000 -0.1994236498
C   C55       1.0  0.11604  0.65944  0.74060  1.0000 -0.0873947579
C   C56       1.0  0.86611  0.65951  0.86080  1.0000 0.2536895137
C   C57       1.0  0.90898  0.55918  0.84800  1.0000 -0.217402174
C   C58       1.0  0.85047  0.50547  0.84710  1.0000 -0.0873947579
C   C59       1.0  0.74889  0.54829  0.85660  1.0000 -0.0636169005
C   C60       1.0  0.70683  0.65003  0.86940  1.0000 -0.0806379456
C   C61       1.0  0.76539  0.70479  0.87210  1.0000 -0.1994236498
C   C62       1.0  0.68845  0.48745  0.85670  1.0000 0.5316672783
C   C63       1.0  0.72932  0.22732  0.01960  1.0000 0.0813463174
C   C64       1.0  0.78234  0.16614  0.10740  1.0000 -0.1881193769
C   C65       1.0  0.72963  0.18623  0.17140  1.0000 0.1688455205
C   C66       1.0  0.62241  0.26621  0.14090  1.0000 -0.1687114079
C   C67       1.0  0.57365  0.32485  0.05040  1.0000 0.0945854272
C   C68       1.0  0.78468  0.13228  0.26860  1.0000 -0.1259336387
C   C69       1.0  0.89012  0.08992  0.30930  1.0000 -0.1353720267
C   C70       1.0  0.89890  0.01130  0.46660  1.0000 -0.2662978906
C   C71       1.0  0.94348  0.04368  0.40650  1.0000 -0.016494518
C   C72       1.0  0.04690  0.02890  0.44310  1.0000 0.2536895137
C   C73       1.0  0.54598  0.31858  0.70930  1.0000 0.5879638504
C   C74       1.0  0.59447  0.21287  0.69030  1.0000 -0.0468107414
C   C75       1.0  0.57468  0.21028  0.60300  1.0000 -0.0873947579
C   C76       1.0  0.61717  0.11317  0.58610  1.0000 -0.1994236498
C   C77       1.0  0.67881  0.01801  0.65550  1.0000 0.2271592479
C   C78       1.0  0.70153  0.01813  0.74250  1.0000 -0.1994236498
C   C79       1.0  0.65944  0.11604  0.75940  1.0000 -0.0873947579
C   C80       1.0  0.65951  0.86611  0.63920  1.0000 0.2536895137
C   C81       1.0  0.55918  0.90898  0.65200  1.0000 -0.217402174
C   C82       1.0  0.50547  0.85047  0.65290  1.0000 -0.0873947579
C   C83       1.0  0.54829  0.74889  0.64340  1.0000 -0.0636169005
C   C84       1.0  0.65003  0.70683  0.63060  1.0000 -0.0806379456
C   C85       1.0  0.70479  0.76539  0.62790  1.0000 -0.1994236498
C   C86       1.0  0.48745  0.68845  0.64330  1.0000 0.5316672783
C   C87       1.0  0.22732  0.72932  0.48040  1.0000 0.0813463174
C   C88       1.0  0.16614  0.78234  0.39260  1.0000 -0.1881193769
C   C89       1.0  0.18623  0.72963  0.32860  1.0000 0.1688455205
C   C90       1.0  0.26621  0.62241  0.35910  1.0000 -0.1687114079
C   C91       1.0  0.32485  0.57365  0.44960  1.0000 0.0945854272
C   C92       1.0  0.13228  0.78468  0.23140  1.0000 -0.1259336387
C   C93       1.0  0.08992  0.89012  0.19070  1.0000 -0.1353720267
C   C94       1.0  0.01130  0.89890  0.03340  1.0000 -0.2662978906
C   C95       1.0  0.04368  0.94348  0.09350  1.0000 -0.016494518
C   C96       1.0  0.02890  0.04690  0.05690  1.0000 0.2536895137
N   N1        1.0  0.37378  0.69258  0.00950  1.0000 -0.2347813387
N   N2        1.0  0.69258  0.37378  0.49050  1.0000 -0.2347813387
N   N3        1.0  0.62622  0.30742  0.99050  1.0000 -0.2347813387
N   N4        1.0  0.30742  0.62622  0.50950  1.0000 -0.2347813387
O   O1        1.0  0.59573  0.51573  0.14428  1.0000 -0.5404494431
O   O2        1.0  0.68588  0.42776  0.28953  1.0000 -0.5404494431
O   O3        1.0  0.08119  0.27915  0.13700  1.0000 -0.2385331828
O   O4        1.0  0.26789  0.60789  0.14456  1.0000 -0.5404494431
O   O5        1.0  0.40883  0.46617  0.14133  1.0000 -0.5404494431
O   O6        1.0  0.51573  0.59573  0.35572  1.0000 -0.5404494431
O   O7        1.0  0.42776  0.68588  0.21047  1.0000 -0.5404494431
O   O8        1.0  0.27915  0.08119  0.36300  1.0000 -0.2385331828
O   O9        1.0  0.60789  0.26789  0.35544  1.0000 -0.5404494431
O   O10       1.0  0.46617  0.40883  0.35867  1.0000 -0.5404494431
O   O11       1.0  0.40427  0.48427  0.85572  1.0000 -0.5404494431
O   O12       1.0  0.31412  0.57224  0.71047  1.0000 -0.5404494431
O   O13       1.0  0.91881  0.72085  0.86300  1.0000 -0.2385331828
O   O14       1.0  0.73211  0.39211  0.85544  1.0000 -0.5404494431
O   O15       1.0  0.59117  0.53383  0.85867  1.0000 -0.5404494431
O   O16       1.0  0.48427  0.40427  0.64428  1.0000 -0.5404494431
O   O17       1.0  0.57224  0.31412  0.78953  1.0000 -0.5404494431
O   O18       1.0  0.72085  0.91881  0.63700  1.0000 -0.2385331828
O   O19       1.0  0.39211  0.73211  0.64456  1.0000 -0.5404494431
O   O20       1.0  0.53383  0.59117  0.64133  1.0000 -0.5404494431
F   F1        1.0  0.90890  0.95050  0.61020  1.0000 -0.1142837785
F   F2        1.0  0.95050  0.90890  0.88980  1.0000 -0.1142837785
F   F3        1.0  0.09110  0.04950  0.38980  1.0000 -0.1142837785
F   F4        1.0  0.04950  0.09110  0.11020  1.0000 -0.1142837785
