# DDEC6 charges by PACMAN v1.1 (https://github.com/mtap-research/PACMAN-charge/)
data_2022[Gd][ant]3[FSR]1
_chemical_formula_sum              "Gd2 H28 C44 N26 O14"
_cell_length_a       12.5412
_cell_length_b       12.5412
_cell_length_c       10.8061
_cell_angle_alpha    64.4832
_cell_angle_beta     115.517
_cell_angle_gamma    114.064

_symmetry_space_group_name_H-M    "P 1"
_symmetry_Int_Tables_number       1

loop_
  _symmetry_equiv_pos_as_xyz
  'x, y, z'

loop_
  _atom_site_type_symbol
  _atom_site_label
  _atom_site_symmetry_multiplicity
  _atom_site_fract_x
  _atom_site_fract_y
  _atom_site_fract_z
  _atom_site_occupancy
  _atom_site_charge
Gd  Gd1       1.0  0.03914  0.03914  0.25000  1.0000 1.9272918334
Gd  Gd2       1.0  0.96086  0.96086  0.75000  1.0000 1.9272918334
H   H1        1.0  0.35610  0.91490  0.34260  1.0000 0.1324872324
H   H2        1.0  0.72230  0.91470  0.40290  1.0000 0.1199206715
H   H3        1.0  0.65130  0.81870  0.75640  1.0000 0.1103142872
H   H4        1.0  0.55310  0.80930  0.22510  1.0000 0.1459825199
H   H5        1.0  0.31810  0.92590  0.77510  1.0000 0.1199206715
H   H6        1.0  0.23510  0.88570  0.94480  1.0000 0.1324872324
H   H7        1.0  0.49710  0.69690  0.84050  1.0000 0.1103142872
H   H8        1.0  0.91490  0.35610  0.15740  1.0000 0.1324872324
H   H9        1.0  0.91470  0.72230  0.09710  1.0000 0.1199206715
H   H10       1.0  0.81870  0.65130  0.74360  1.0000 0.1103142872
H   H11       1.0  0.80930  0.55310  0.27490  1.0000 0.1459825199
H   H12       1.0  0.92590  0.31810  0.72490  1.0000 0.1199206715
H   H13       1.0  0.88570  0.23510  0.55520  1.0000 0.1324872324
H   H14       1.0  0.69690  0.49710  0.65950  1.0000 0.1103142872
H   H15       1.0  0.64390  0.08510  0.65740  1.0000 0.1324872324
H   H16       1.0  0.27770  0.08530  0.59710  1.0000 0.1199206715
H   H17       1.0  0.34870  0.18130  0.24360  1.0000 0.1103142872
H   H18       1.0  0.44690  0.19070  0.77490  1.0000 0.1459825199
H   H19       1.0  0.68190  0.07410  0.22490  1.0000 0.1199206715
H   H20       1.0  0.76490  0.11430  0.05520  1.0000 0.1324872324
H   H21       1.0  0.50290  0.30310  0.15950  1.0000 0.1103142872
H   H22       1.0  0.08510  0.64390  0.84260  1.0000 0.1324872324
H   H23       1.0  0.08530  0.27770  0.90290  1.0000 0.1199206715
H   H24       1.0  0.18130  0.34870  0.25640  1.0000 0.1103142872
H   H25       1.0  0.19070  0.44690  0.72510  1.0000 0.1459825199
H   H26       1.0  0.07410  0.68190  0.27510  1.0000 0.1199206715
H   H27       1.0  0.11430  0.76490  0.44480  1.0000 0.1324872324
H   H28       1.0  0.30310  0.50290  0.34050  1.0000 0.1103142872
C   C1        1.0  0.27870  0.90690  0.13720  1.0000 0.002304595
C   C2        1.0  0.36610  0.89770  0.27330  1.0000 -0.2094070558
C   C3        1.0  0.68230  0.88910  0.47020  1.0000 0.1103142872
C   C4        1.0  0.46800  0.86220  0.30310  1.0000 0.1459825199
C   C5        1.0  0.64120  0.83720  0.65970  1.0000 0.143465312
C   C6        1.0  0.48510  0.83470  0.20270  1.0000 -0.2670952449
C   C7        1.0  0.39730  0.84610  0.06830  1.0000 0.1459825199
C   C8        1.0  0.36400  0.86940  0.82100  1.0000 0.0662246743
C   C9        1.0  0.29390  0.88050  0.03510  1.0000 -0.2219515288
C   C10       1.0  0.46380  0.74040  0.85910  1.0000 0.0998156896
C   C11       1.0  0.16440  0.94160  0.10360  1.0000 0.6539338013
C   C12       1.0  0.90690  0.27870  0.36280  1.0000 0.002304595
C   C13       1.0  0.89770  0.36610  0.22670  1.0000 -0.2094070558
C   C14       1.0  0.88910  0.68230  0.02980  1.0000 0.1103142872
C   C15       1.0  0.86220  0.46800  0.19690  1.0000 0.1459825199
C   C16       1.0  0.83720  0.64120  0.84030  1.0000 0.143465312
C   C17       1.0  0.83470  0.48510  0.29730  1.0000 -0.2670952449
C   C18       1.0  0.84610  0.39730  0.43170  1.0000 0.1459825199
C   C19       1.0  0.86940  0.36400  0.67900  1.0000 0.0662246743
C   C20       1.0  0.88050  0.29390  0.46490  1.0000 -0.2219515288
C   C21       1.0  0.74040  0.46380  0.64090  1.0000 0.0998156896
C   C22       1.0  0.94160  0.16440  0.39640  1.0000 0.6539338013
C   C23       1.0  0.72130  0.09310  0.86280  1.0000 0.002304595
C   C24       1.0  0.63390  0.10230  0.72670  1.0000 -0.2094070558
C   C25       1.0  0.31770  0.11090  0.52980  1.0000 0.1103142872
C   C26       1.0  0.53200  0.13780  0.69690  1.0000 0.1459825199
C   C27       1.0  0.35880  0.16280  0.34030  1.0000 0.143465312
C   C28       1.0  0.51490  0.16530  0.79730  1.0000 -0.2670952449
C   C29       1.0  0.60270  0.15390  0.93170  1.0000 0.1459825199
C   C30       1.0  0.63600  0.13060  0.17900  1.0000 0.0662246743
C   C31       1.0  0.70610  0.11950  0.96490  1.0000 -0.2219515288
C   C32       1.0  0.53620  0.25960  0.14090  1.0000 0.0998156896
C   C33       1.0  0.83560  0.05840  0.89640  1.0000 0.6539338013
C   C34       1.0  0.09310  0.72130  0.63720  1.0000 0.002304595
C   C35       1.0  0.10230  0.63390  0.77330  1.0000 -0.2094070558
C   C36       1.0  0.11090  0.31770  0.97020  1.0000 0.1103142872
C   C37       1.0  0.13780  0.53200  0.80310  1.0000 0.1459825199
C   C38       1.0  0.16280  0.35880  0.15970  1.0000 0.143465312
C   C39       1.0  0.16530  0.51490  0.70270  1.0000 -0.2670952449
C   C40       1.0  0.15390  0.60270  0.56830  1.0000 0.1459825199
C   C41       1.0  0.13060  0.63600  0.32100  1.0000 0.0662246743
C   C42       1.0  0.11950  0.70610  0.53510  1.0000 -0.2219515288
C   C43       1.0  0.25960  0.53620  0.35910  1.0000 0.0998156896
C   C44       1.0  0.05840  0.83560  0.60360  1.0000 0.6539338013
N   N1        1.0  0.56080  0.85800  0.44000  1.0000 0.1199206715
N   N2        1.0  0.41200  0.81720  0.96450  1.0000 0.143465312
N   N3        1.0  0.53310  0.82590  0.56120  1.0000 -0.251618653
N   N4        1.0  0.73770  0.87870  0.60760  1.0000 -0.4255221853
N   N5        1.0  0.46950  0.73870  0.98580  1.0000 -0.2039971868
N   N6        1.0  0.39720  0.82160  0.76360  1.0000 -0.2039971868
N   N7        1.0  0.85800  0.56080  0.06000  1.0000 0.1199206715
N   N8        1.0  0.81720  0.41200  0.53550  1.0000 0.1459825199
N   N9        1.0  0.82590  0.53310  0.93880  1.0000 -0.251618653
N   N10       1.0  0.87870  0.73770  0.89240  1.0000 -0.4255221853
N   N11       1.0  0.73870  0.46950  0.51420  1.0000 -0.2039971868
N   N12       1.0  0.82160  0.39720  0.73640  1.0000 -0.2094070558
N   N13       1.0  0.43920  0.14200  0.56000  1.0000 0.1199206715
N   N14       1.0  0.58800  0.18280  0.03550  1.0000 0.143465312
N   N15       1.0  0.46690  0.17410  0.43880  1.0000 -0.251618653
N   N16       1.0  0.26230  0.12130  0.39240  1.0000 -0.4255221853
N   N17       1.0  0.53050  0.26130  0.01420  1.0000 -0.2039971868
N   N18       1.0  0.60280  0.17840  0.23640  1.0000 -0.2039971868
N   N19       1.0  0.14200  0.43920  0.94000  1.0000 0.1199206715
N   N20       1.0  0.18280  0.58800  0.46450  1.0000 0.143465312
N   N21       1.0  0.17410  0.46690  0.06120  1.0000 -0.251618653
N   N22       1.0  0.12130  0.26230  0.10760  1.0000 -0.4255221853
N   N23       1.0  0.26130  0.53050  0.48580  1.0000 -0.2039971868
N   N24       1.0  0.17840  0.60280  0.26360  1.0000 -0.2094070558
N   N25       1.0  0.82350  0.82350  0.25000  1.0000 0.7037928333
N   N26       1.0  0.17650  0.17650  0.75000  1.0000 0.7037928333
O   O1        1.0  0.15950  0.97550  0.19320  1.0000 -0.6613070289
O   O2        1.0  0.08210  0.93210  0.98790  1.0000 -0.6613070289
O   O3        1.0  0.82620  0.92000  0.26470  1.0000 -0.5200268845
O   O4        1.0  0.97550  0.15950  0.30680  1.0000 -0.6613070289
O   O5        1.0  0.93210  0.08210  0.51210  1.0000 -0.6613070289
O   O6        1.0  0.92000  0.82620  0.23530  1.0000 -0.5200268845
O   O7        1.0  0.84050  0.02450  0.80680  1.0000 -0.6613070289
O   O8        1.0  0.91790  0.06790  0.01210  1.0000 -0.6613070289
O   O9        1.0  0.17380  0.08000  0.73530  1.0000 -0.5200268845
O   O10       1.0  0.02450  0.84050  0.69320  1.0000 -0.6613070289
O   O11       1.0  0.06790  0.91790  0.48790  1.0000 -0.6613070289
O   O12       1.0  0.08000  0.17380  0.76470  1.0000 -0.5200268845
O   O13       1.0  0.73480  0.73480  0.25000  1.0000 -0.3801460037
O   O14       1.0  0.26520  0.26520  0.75000  1.0000 -0.3801460037
