# DDEC6 charges by PACMAN v1.1 (https://github.com/mtap-research/PACMAN-charge/)
data_2022[Zn][nan]3[FSR]9
_chemical_formula_sum              "Zn24 P32 H64 C32 O112"
_cell_length_a       20.289
_cell_length_b       9.293
_cell_length_c       30.4364
_cell_angle_alpha    90
_cell_angle_beta     130.37
_cell_angle_gamma    90

_symmetry_space_group_name_H-M    "P 1"
_symmetry_Int_Tables_number       1

loop_
  _symmetry_equiv_pos_as_xyz
  'x, y, z'

loop_
  _atom_site_type_symbol
  _atom_site_label
  _atom_site_symmetry_multiplicity
  _atom_site_fract_x
  _atom_site_fract_y
  _atom_site_fract_z
  _atom_site_occupancy
  _atom_site_charge
Zn  Zn1       1.0  0.10595  0.78165  0.82838  1.0000 1.1116998898
Zn  Zn2       1.0  0.42476  0.53221  0.03046  1.0000 1.0873907464
Zn  Zn3       1.0  0.92805  0.47974  0.53119  1.0000 1.0873907464
Zn  Zn4       1.0  0.60584  0.23437  0.32758  1.0000 1.1196536826
Zn  Zn5       1.0  0.78261  0.75995  0.62624  1.0000 1.0709673869
Zn  Zn6       1.0  0.27565  0.26777  0.12773  1.0000 1.0709673869
Zn  Zn7       1.0  0.89405  0.28165  0.67162  1.0000 1.1116998898
Zn  Zn8       1.0  0.57524  0.03221  0.46954  1.0000 1.0873907464
Zn  Zn9       1.0  0.07195  0.97974  0.96881  1.0000 1.0873907464
Zn  Zn10      1.0  0.39416  0.73437  0.17242  1.0000 1.1196536826
Zn  Zn11      1.0  0.21739  0.25995  0.87376  1.0000 1.0709673869
Zn  Zn12      1.0  0.72435  0.76777  0.37227  1.0000 1.0709673869
Zn  Zn13      1.0  0.89405  0.21835  0.17162  1.0000 1.1116998898
Zn  Zn14      1.0  0.57524  0.46779  0.96954  1.0000 1.0873907464
Zn  Zn15      1.0  0.07195  0.52026  0.46881  1.0000 1.0873907464
Zn  Zn16      1.0  0.39416  0.76563  0.67242  1.0000 1.1196536826
Zn  Zn17      1.0  0.21739  0.24005  0.37376  1.0000 1.0709673869
Zn  Zn18      1.0  0.72435  0.73223  0.87227  1.0000 1.0709673869
Zn  Zn19      1.0  0.10595  0.71835  0.32838  1.0000 1.1116998898
Zn  Zn20      1.0  0.42476  0.96779  0.53046  1.0000 1.0873907464
Zn  Zn21      1.0  0.92805  0.02026  0.03119  1.0000 1.0873907464
Zn  Zn22      1.0  0.60584  0.26563  0.82758  1.0000 1.1196536826
Zn  Zn23      1.0  0.78261  0.74005  0.12624  1.0000 1.0709673869
Zn  Zn24      1.0  0.27565  0.23223  0.62773  1.0000 1.0709673869
P   P1        1.0  0.93868  0.59269  0.72837  1.0000 1.2594381677
P   P2        1.0  0.88111  0.54977  0.60749  1.0000 1.2792135583
P   P3        1.0  0.27094  0.58652  0.90154  1.0000 1.2691321181
P   P4        1.0  0.40148  0.36144  0.92860  1.0000 1.2467854427
P   P5        1.0  0.90574  0.65324  0.42931  1.0000 1.2467854427
P   P6        1.0  0.77104  0.43630  0.40074  1.0000 1.2691321181
P   P7        1.0  0.43807  0.42349  0.22870  1.0000 1.2594381677
P   P8        1.0  0.37774  0.46654  0.10753  1.0000 1.2792135583
P   P9        1.0  0.06132  0.09269  0.77163  1.0000 1.2594381677
P   P10       1.0  0.11889  0.04977  0.89251  1.0000 1.2792135583
P   P11       1.0  0.72906  0.08652  0.59846  1.0000 1.2691321181
P   P12       1.0  0.59852  0.86144  0.57140  1.0000 1.2467854427
P   P13       1.0  0.09426  0.15324  0.07069  1.0000 1.2467854427
P   P14       1.0  0.22896  0.93630  0.09926  1.0000 1.2691321181
P   P15       1.0  0.56193  0.92349  0.27130  1.0000 1.2594381677
P   P16       1.0  0.62226  0.96654  0.39247  1.0000 1.2792135583
P   P17       1.0  0.06132  0.40731  0.27163  1.0000 1.2594381677
P   P18       1.0  0.11889  0.45023  0.39251  1.0000 1.2792135583
P   P19       1.0  0.72906  0.41348  0.09846  1.0000 1.2691321181
P   P20       1.0  0.59852  0.63856  0.07140  1.0000 1.2467854427
P   P21       1.0  0.09426  0.34676  0.57069  1.0000 1.2467854427
P   P22       1.0  0.22896  0.56370  0.59926  1.0000 1.2691321181
P   P23       1.0  0.56193  0.57651  0.77130  1.0000 1.2594381677
P   P24       1.0  0.62226  0.53346  0.89247  1.0000 1.2792135583
P   P25       1.0  0.93868  0.90731  0.22837  1.0000 1.2594381677
P   P26       1.0  0.88111  0.95023  0.10749  1.0000 1.2792135583
P   P27       1.0  0.27094  0.91348  0.40154  1.0000 1.2691321181
P   P28       1.0  0.40148  0.13856  0.42860  1.0000 1.2467854427
P   P29       1.0  0.90574  0.84676  0.92931  1.0000 1.2467854427
P   P30       1.0  0.77104  0.06370  0.90074  1.0000 1.2691321181
P   P31       1.0  0.43807  0.07651  0.72870  1.0000 1.2594381677
P   P32       1.0  0.37774  0.03346  0.60753  1.0000 1.2792135583
H   H1        1.0  0.99155  0.82255  0.69950  1.0000 0.3795948731
H   H2        1.0  0.43114  0.66164  0.93600  1.0000 0.3795948731
H   H3        1.0  0.93105  0.35490  0.43691  1.0000 0.3718486758
H   H4        1.0  0.48734  0.19066  0.19666  1.0000 0.3795948731
H   H5        1.0  0.05674  0.46696  0.71493  1.0000 0.1827926508
H   H6        1.0  0.09716  0.61700  0.74391  1.0000 0.168894309
H   H7        1.0  0.06562  0.58522  0.68231  1.0000 0.185546528
H   H8        1.0  0.24885  0.42165  0.81019  1.0000 0.168894309
H   H9        1.0  0.32797  0.47108  0.81588  1.0000 0.1827926508
H   H10       1.0  0.25885  0.58390  0.80134  1.0000 0.1827926508
H   H11       1.0  0.75222  0.59445  0.30938  1.0000 0.168894309
H   H12       1.0  0.76085  0.43074  0.30146  1.0000 0.1827926508
H   H13       1.0  0.83119  0.54021  0.31573  1.0000 0.1827926508
H   H14       1.0  0.55526  0.54212  0.21247  1.0000 0.1827926508
H   H15       1.0  0.55869  0.42385  0.17726  1.0000 0.1827926508
H   H16       1.0  0.59382  0.38994  0.23963  1.0000 0.168894309
H   H17       1.0  0.00845  0.32255  0.80050  1.0000 0.3795948731
H   H18       1.0  0.56886  0.16164  0.56400  1.0000 0.3795948731
H   H19       1.0  0.06895  0.85490  0.06309  1.0000 0.3718486758
H   H20       1.0  0.51266  0.69066  0.30334  1.0000 0.3795948731
H   H21       1.0  0.94326  0.96696  0.78507  1.0000 0.1827926508
H   H22       1.0  0.90284  0.11700  0.75609  1.0000 0.168894309
H   H23       1.0  0.93438  0.08522  0.81769  1.0000 0.185546528
H   H24       1.0  0.75115  0.92165  0.68981  1.0000 0.168894309
H   H25       1.0  0.67203  0.97108  0.68412  1.0000 0.1827926508
H   H26       1.0  0.74115  0.08390  0.69866  1.0000 0.1827926508
H   H27       1.0  0.24778  0.09445  0.19062  1.0000 0.168894309
H   H28       1.0  0.23915  0.93074  0.19854  1.0000 0.1827926508
H   H29       1.0  0.16881  0.04021  0.18427  1.0000 0.1827926508
H   H30       1.0  0.44474  0.04212  0.28753  1.0000 0.1827926508
H   H31       1.0  0.44131  0.92385  0.32274  1.0000 0.1827926508
H   H32       1.0  0.40618  0.88994  0.26037  1.0000 0.168894309
H   H33       1.0  0.00845  0.17745  0.30050  1.0000 0.3795948731
H   H34       1.0  0.56886  0.33836  0.06400  1.0000 0.3795948731
H   H35       1.0  0.06895  0.64510  0.56309  1.0000 0.3718486758
H   H36       1.0  0.51266  0.80934  0.80334  1.0000 0.3795948731
H   H37       1.0  0.94326  0.53304  0.28507  1.0000 0.1827926508
H   H38       1.0  0.90284  0.38300  0.25609  1.0000 0.168894309
H   H39       1.0  0.93438  0.41478  0.31769  1.0000 0.185546528
H   H40       1.0  0.75115  0.57835  0.18981  1.0000 0.168894309
H   H41       1.0  0.67203  0.52892  0.18412  1.0000 0.1827926508
H   H42       1.0  0.74115  0.41610  0.19866  1.0000 0.1827926508
H   H43       1.0  0.24778  0.40555  0.69062  1.0000 0.168894309
H   H44       1.0  0.23915  0.56926  0.69854  1.0000 0.1827926508
H   H45       1.0  0.16881  0.45979  0.68427  1.0000 0.1827926508
H   H46       1.0  0.44474  0.45788  0.78753  1.0000 0.1827926508
H   H47       1.0  0.44131  0.57615  0.82274  1.0000 0.1827926508
H   H48       1.0  0.40618  0.61006  0.76037  1.0000 0.168894309
H   H49       1.0  0.99155  0.67745  0.19950  1.0000 0.3795948731
H   H50       1.0  0.43114  0.83836  0.43600  1.0000 0.3795948731
H   H51       1.0  0.93105  0.14510  0.93691  1.0000 0.3718486758
H   H52       1.0  0.48734  0.30934  0.69666  1.0000 0.3795948731
H   H53       1.0  0.05674  0.03304  0.21493  1.0000 0.1827926508
H   H54       1.0  0.09716  0.88300  0.24391  1.0000 0.168894309
H   H55       1.0  0.06562  0.91478  0.18231  1.0000 0.185546528
H   H56       1.0  0.24885  0.07835  0.31019  1.0000 0.168894309
H   H57       1.0  0.32797  0.02892  0.31588  1.0000 0.1827926508
H   H58       1.0  0.25885  0.91610  0.30134  1.0000 0.1827926508
H   H59       1.0  0.75222  0.90555  0.80938  1.0000 0.168894309
H   H60       1.0  0.76085  0.06926  0.80146  1.0000 0.1827926508
H   H61       1.0  0.83119  0.95979  0.81573  1.0000 0.1827926508
H   H62       1.0  0.55526  0.95788  0.71247  1.0000 0.1827926508
H   H63       1.0  0.55869  0.07615  0.67726  1.0000 0.1827926508
H   H64       1.0  0.59382  0.11006  0.73963  1.0000 0.168894309
C   C1        1.0  0.96370  0.62630  0.68070  1.0000 -0.1590798689
C   C2        1.0  0.05430  0.56840  0.70800  1.0000 -0.4536449505
C   C3        1.0  0.34210  0.52570  0.88750  1.0000 -0.1508341251
C   C4        1.0  0.28950  0.49800  0.82260  1.0000 -0.4241698576
C   C5        1.0  0.84410  0.49170  0.38740  1.0000 -0.1508341251
C   C6        1.0  0.79210  0.51660  0.32230  1.0000 -0.4268446459
C   C7        1.0  0.46040  0.38790  0.17940  1.0000 -0.1590798689
C   C8        1.0  0.55040  0.44090  0.20450  1.0000 -0.4570781184
C   C9        1.0  0.03630  0.12630  0.81930  1.0000 -0.1590798689
C   C10       1.0  0.94570  0.06840  0.79200  1.0000 -0.4536449505
C   C11       1.0  0.65790  0.02570  0.61250  1.0000 -0.1508341251
C   C12       1.0  0.71050  0.99800  0.67740  1.0000 -0.4241698576
C   C13       1.0  0.15590  0.99170  0.11260  1.0000 -0.1508341251
C   C14       1.0  0.20790  0.01660  0.17770  1.0000 -0.4268446459
C   C15       1.0  0.53960  0.88790  0.32060  1.0000 -0.1590798689
C   C16       1.0  0.44960  0.94090  0.29550  1.0000 -0.4570781184
C   C17       1.0  0.03630  0.37370  0.31930  1.0000 -0.1590798689
C   C18       1.0  0.94570  0.43160  0.29200  1.0000 -0.4536449505
C   C19       1.0  0.65790  0.47430  0.11250  1.0000 -0.1508341251
C   C20       1.0  0.71050  0.50200  0.17740  1.0000 -0.4241698576
C   C21       1.0  0.15590  0.50830  0.61260  1.0000 -0.1508341251
C   C22       1.0  0.20790  0.48340  0.67770  1.0000 -0.4268446459
C   C23       1.0  0.53960  0.61210  0.82060  1.0000 -0.1590798689
C   C24       1.0  0.44960  0.55910  0.79550  1.0000 -0.4570781184
C   C25       1.0  0.96370  0.87370  0.18070  1.0000 -0.1590798689
C   C26       1.0  0.05430  0.93160  0.20800  1.0000 -0.4536449505
C   C27       1.0  0.34210  0.97430  0.38750  1.0000 -0.1508341251
C   C28       1.0  0.28950  0.00200  0.32260  1.0000 -0.4241698576
C   C29       1.0  0.84410  0.00830  0.88740  1.0000 -0.1508341251
C   C30       1.0  0.79210  0.98340  0.82230  1.0000 -0.4268446459
C   C31       1.0  0.46040  0.11210  0.67940  1.0000 -0.1590798689
C   C32       1.0  0.55040  0.05910  0.70450  1.0000 -0.4570781184
O   O1        1.0  0.01385  0.64400  0.78855  1.0000 -0.6905725195
O   O2        1.0  0.92737  0.43010  0.72987  1.0000 -0.7109150699
O   O3        1.0  0.85640  0.67550  0.70310  1.0000 -0.7007361497
O   O4        1.0  0.90510  0.59980  0.57150  1.0000 -0.6569334163
O   O5        1.0  0.79369  0.61620  0.58349  1.0000 -0.6731308891
O   O6        1.0  0.88264  0.38710  0.61144  1.0000 -0.7109150699
O   O7        1.0  0.95590  0.77910  0.66920  1.0000 -0.3687199248
O   O8        1.0  0.21750  0.70910  0.85940  1.0000 -0.6812005699
O   O9        1.0  0.32850  0.64120  0.96380  1.0000 -0.6905725195
O   O10       1.0  0.21570  0.45870  0.89190  1.0000 -0.7109150699
O   O11       1.0  0.43952  0.38140  0.99102  1.0000 -0.7109150699
O   O12       1.0  0.47360  0.34200  0.92570  1.0000 -0.6569334163
O   O13       1.0  0.33530  0.23950  0.89880  1.0000 -0.6519012941
O   O14       1.0  0.40090  0.64210  0.90160  1.0000 -0.3616803629
O   O15       1.0  0.94055  0.63190  0.49075  1.0000 -0.7007361497
O   O16       1.0  0.84350  0.77790  0.39970  1.0000 -0.6519012941
O   O17       1.0  0.97980  0.66460  0.42790  1.0000 -0.6519012941
O   O18       1.0  0.82680  0.37960  0.46250  1.0000 -0.6905725195
O   O19       1.0  0.72120  0.57160  0.39340  1.0000 -0.7007361497
O   O20       1.0  0.71480  0.31800  0.35810  1.0000 -0.6812005699
O   O21       1.0  0.90180  0.37340  0.40250  1.0000 -0.3687199248
O   O22       1.0  0.51366  0.37290  0.28916  1.0000 -0.7007361497
O   O23       1.0  0.35520  0.34340  0.20450  1.0000 -0.7007361497
O   O24       1.0  0.42830  0.58640  0.22960  1.0000 -0.7179708971
O   O25       1.0  0.29088  0.40520  0.08538  1.0000 -0.6731308891
O   O26       1.0  0.39750  0.41520  0.06940  1.0000 -0.6519012941
O   O27       1.0  0.38160  0.62960  0.11200  1.0000 -0.7109150699
O   O28       1.0  0.45090  0.23530  0.16690  1.0000 -0.3616803629
O   O29       1.0  0.98615  0.14400  0.71145  1.0000 -0.6905725195
O   O30       1.0  0.07263  0.93010  0.77013  1.0000 -0.7109150699
O   O31       1.0  0.14360  0.17550  0.79690  1.0000 -0.7007361497
O   O32       1.0  0.09490  0.09980  0.92850  1.0000 -0.6569334163
O   O33       1.0  0.20631  0.11620  0.91651  1.0000 -0.6731308891
O   O34       1.0  0.11736  0.88710  0.88856  1.0000 -0.7109150699
O   O35       1.0  0.04410  0.27910  0.83080  1.0000 -0.3687199248
O   O36       1.0  0.78250  0.20910  0.64060  1.0000 -0.6812005699
O   O37       1.0  0.67150  0.14120  0.53620  1.0000 -0.6905725195
O   O38       1.0  0.78430  0.95870  0.60810  1.0000 -0.7109150699
O   O39       1.0  0.56048  0.88140  0.50898  1.0000 -0.7109150699
O   O40       1.0  0.52640  0.84200  0.57430  1.0000 -0.6569334163
O   O41       1.0  0.66470  0.73950  0.60120  1.0000 -0.6519012941
O   O42       1.0  0.59910  0.14210  0.59840  1.0000 -0.3616803629
O   O43       1.0  0.05945  0.13190  0.00925  1.0000 -0.7007361497
O   O44       1.0  0.15650  0.27790  0.10030  1.0000 -0.6519012941
O   O45       1.0  0.02020  0.16460  0.07210  1.0000 -0.6519012941
O   O46       1.0  0.17320  0.87960  0.03750  1.0000 -0.6905725195
O   O47       1.0  0.27880  0.07160  0.10660  1.0000 -0.7007361497
O   O48       1.0  0.28520  0.81800  0.14190  1.0000 -0.6812005699
O   O49       1.0  0.09820  0.87340  0.09750  1.0000 -0.3687199248
O   O50       1.0  0.48634  0.87290  0.21084  1.0000 -0.6905725195
O   O51       1.0  0.64480  0.84340  0.29550  1.0000 -0.7007361497
O   O52       1.0  0.57170  0.08640  0.27040  1.0000 -0.7109150699
O   O53       1.0  0.70912  0.90520  0.41462  1.0000 -0.6731308891
O   O54       1.0  0.60250  0.91520  0.43060  1.0000 -0.6519012941
O   O55       1.0  0.61840  0.12960  0.38800  1.0000 -0.7109150699
O   O56       1.0  0.54910  0.73530  0.33310  1.0000 -0.3616803629
O   O57       1.0  0.98615  0.35600  0.21145  1.0000 -0.6905725195
O   O58       1.0  0.07263  0.56990  0.27013  1.0000 -0.7109150699
O   O59       1.0  0.14360  0.32450  0.29690  1.0000 -0.7007361497
O   O60       1.0  0.09490  0.40020  0.42850  1.0000 -0.6569334163
O   O61       1.0  0.20631  0.38380  0.41651  1.0000 -0.6731308891
O   O62       1.0  0.11736  0.61290  0.38856  1.0000 -0.7109150699
O   O63       1.0  0.04410  0.22090  0.33080  1.0000 -0.3616803629
O   O64       1.0  0.78250  0.29090  0.14060  1.0000 -0.6812005699
O   O65       1.0  0.67150  0.35880  0.03620  1.0000 -0.6905725195
O   O66       1.0  0.78430  0.54130  0.10810  1.0000 -0.7109150699
O   O67       1.0  0.56048  0.61860  0.00898  1.0000 -0.7109150699
O   O68       1.0  0.52640  0.65800  0.07430  1.0000 -0.6569334163
O   O69       1.0  0.66470  0.76050  0.10120  1.0000 -0.6519012941
O   O70       1.0  0.59910  0.35790  0.09840  1.0000 -0.3616803629
O   O71       1.0  0.05945  0.36810  0.50925  1.0000 -0.7007361497
O   O72       1.0  0.15650  0.22210  0.60030  1.0000 -0.6519012941
O   O73       1.0  0.02020  0.33540  0.57210  1.0000 -0.6519012941
O   O74       1.0  0.17320  0.62040  0.53750  1.0000 -0.6812005699
O   O75       1.0  0.27880  0.42840  0.60660  1.0000 -0.7007361497
O   O76       1.0  0.28520  0.68200  0.64190  1.0000 -0.6812005699
O   O77       1.0  0.09820  0.62660  0.59750  1.0000 -0.3687199248
O   O78       1.0  0.48634  0.62710  0.71084  1.0000 -0.7007361497
O   O79       1.0  0.64480  0.65660  0.79550  1.0000 -0.7007361497
O   O80       1.0  0.57170  0.41360  0.77040  1.0000 -0.7179708971
O   O81       1.0  0.70912  0.59480  0.91462  1.0000 -0.6731308891
O   O82       1.0  0.60250  0.58480  0.93060  1.0000 -0.6519012941
O   O83       1.0  0.61840  0.37040  0.88800  1.0000 -0.7109150699
O   O84       1.0  0.54910  0.76470  0.83310  1.0000 -0.3616803629
O   O85       1.0  0.01385  0.85600  0.28855  1.0000 -0.6905725195
O   O86       1.0  0.92737  0.06990  0.22987  1.0000 -0.7109150699
O   O87       1.0  0.85640  0.82450  0.20310  1.0000 -0.7007361497
O   O88       1.0  0.90510  0.90020  0.07150  1.0000 -0.6569334163
O   O89       1.0  0.79369  0.88380  0.08349  1.0000 -0.6731308891
O   O90       1.0  0.88264  0.11290  0.11144  1.0000 -0.7109150699
O   O91       1.0  0.95590  0.72090  0.16920  1.0000 -0.3616803629
O   O92       1.0  0.21750  0.79090  0.35940  1.0000 -0.6812005699
O   O93       1.0  0.32850  0.85880  0.46380  1.0000 -0.6905725195
O   O94       1.0  0.21570  0.04130  0.39190  1.0000 -0.7109150699
O   O95       1.0  0.43952  0.11860  0.49102  1.0000 -0.7109150699
O   O96       1.0  0.47360  0.15800  0.42570  1.0000 -0.6569334163
O   O97       1.0  0.33530  0.26050  0.39880  1.0000 -0.6519012941
O   O98       1.0  0.40090  0.85790  0.40160  1.0000 -0.3616803629
O   O99       1.0  0.94055  0.86810  0.99075  1.0000 -0.7007361497
O   O100      1.0  0.84350  0.72210  0.89970  1.0000 -0.6519012941
O   O101      1.0  0.97980  0.83540  0.92790  1.0000 -0.6519012941
O   O102      1.0  0.82680  0.12040  0.96250  1.0000 -0.6905725195
O   O103      1.0  0.72120  0.92840  0.89340  1.0000 -0.7007361497
O   O104      1.0  0.71480  0.18200  0.85810  1.0000 -0.6812005699
O   O105      1.0  0.90180  0.12660  0.90250  1.0000 -0.3687199248
O   O106      1.0  0.51366  0.12710  0.78916  1.0000 -0.7007361497
O   O107      1.0  0.35520  0.15660  0.70450  1.0000 -0.7007361497
O   O108      1.0  0.42830  0.91360  0.72960  1.0000 -0.7109150699
O   O109      1.0  0.29088  0.09480  0.58538  1.0000 -0.6731308891
O   O110      1.0  0.39750  0.08480  0.56940  1.0000 -0.6519012941
O   O111      1.0  0.38160  0.87040  0.61200  1.0000 -0.7109150699
O   O112      1.0  0.45090  0.26470  0.66690  1.0000 -0.3616803629
