# DDEC6 charges by PACMAN v1.1 (https://github.com/mtap-research/PACMAN-charge/)
data_2022[Zn][sql]2[FSR]8
_chemical_formula_sum              "Zn4 H96 C160 S16 N16 O20"
_cell_length_a       6.0265
_cell_length_b       24.3333
_cell_length_c       26.1771
_cell_angle_alpha    90
_cell_angle_beta     90
_cell_angle_gamma    90

_symmetry_space_group_name_H-M    "P 1"
_symmetry_Int_Tables_number       1

loop_
  _symmetry_equiv_pos_as_xyz
  'x, y, z'

loop_
  _atom_site_type_symbol
  _atom_site_label
  _atom_site_symmetry_multiplicity
  _atom_site_fract_x
  _atom_site_fract_y
  _atom_site_fract_z
  _atom_site_occupancy
  _atom_site_charge
Zn  Zn1       1.0  0.06318  0.27682  0.99480  1.0000 0.7337699486
Zn  Zn2       1.0  0.93682  0.77682  0.00520  1.0000 0.7337699486
Zn  Zn3       1.0  0.93682  0.27682  0.49480  1.0000 0.7337699486
Zn  Zn4       1.0  0.06318  0.77682  0.50520  1.0000 0.7337699486
H   H1        1.0  0.94190  0.66170  0.04330  1.0000 0.1109709243
H   H2        1.0  0.83580  0.74530  0.25720  1.0000 0.1007745086
H   H3        1.0  0.65030  0.32120  0.12380  1.0000 0.1494085072
H   H4        1.0  0.20760  0.39830  0.16710  1.0000 0.1218519906
H   H5        1.0  0.30160  0.72340  0.11710  1.0000 0.1494085072
H   H6        1.0  0.39090  0.45310  0.05530  1.0000 0.1298313153
H   H7        1.0  0.43840  0.33340  0.32050  1.0000 0.1007745086
H   H8        1.0  0.74580  0.60340  0.09510  1.0000 0.1298313153
H   H9        1.0  0.44190  0.26720  0.07040  1.0000 0.1109709243
H   H10       1.0  0.50780  0.77800  0.06320  1.0000 0.1218519906
H   H11       1.0  0.99400  0.34140  0.21560  1.0000 0.1007745086
H   H12       1.0  0.16250  0.66667  0.28030  1.0000 0.1218519906
H   H13       1.0  0.72030  0.68080  0.19940  1.0000 0.1298313153
H   H14       1.0  0.48260  0.65580  0.96590  1.0000 0.1218519906
H   H15       1.0  0.17930  0.39660  0.00670  1.0000 0.1109709243
H   H16       1.0  0.67490  0.39110  0.27630  1.0000 0.1298313153
H   H17       1.0  0.57850  0.40430  0.94660  1.0000 0.1218519906
H   H18       1.0  0.67410  0.58820  0.92250  1.0000 0.14050416
H   H19       1.0  0.29480  0.73100  0.33510  1.0000 0.1007745086
H   H20       1.0  0.41380  0.48120  0.90970  1.0000 0.14050416
H   H21       1.0  0.20770  0.58560  0.81470  1.0000 0.1298313153
H   H22       1.0  0.09280  0.42090  0.85210  1.0000 0.1218519906
H   H23       1.0  0.92780  0.49680  0.81630  1.0000 0.1218519906
H   H24       1.0  0.01410  0.65210  0.85900  1.0000 0.1109709243
H   H25       1.0  0.05810  0.16170  0.95670  1.0000 0.1109709243
H   H26       1.0  0.16420  0.24530  0.74280  1.0000 0.1007745086
H   H27       1.0  0.34970  0.82120  0.87620  1.0000 0.1494085072
H   H28       1.0  0.79240  0.89830  0.83290  1.0000 0.1218519906
H   H29       1.0  0.69840  0.22340  0.88290  1.0000 0.1494085072
H   H30       1.0  0.60910  0.95310  0.94470  1.0000 0.1298313153
H   H31       1.0  0.56160  0.83340  0.67950  1.0000 0.1007745086
H   H32       1.0  0.25420  0.10340  0.90490  1.0000 0.1298313153
H   H33       1.0  0.55810  0.76720  0.92960  1.0000 0.1109709243
H   H34       1.0  0.49220  0.27800  0.93680  1.0000 0.1218519906
H   H35       1.0  0.00600  0.84140  0.78440  1.0000 0.1007745086
H   H36       1.0  0.83750  0.16667  0.71970  1.0000 0.1218519906
H   H37       1.0  0.27970  0.18080  0.80060  1.0000 0.1298313153
H   H38       1.0  0.51740  0.15580  0.03410  1.0000 0.1218519906
H   H39       1.0  0.82070  0.89660  0.99330  1.0000 0.1109709243
H   H40       1.0  0.32510  0.89110  0.72370  1.0000 0.1298313153
H   H41       1.0  0.42150  0.90430  0.05340  1.0000 0.1218519906
H   H42       1.0  0.32590  0.08820  0.07750  1.0000 0.14050416
H   H43       1.0  0.70520  0.23100  0.66490  1.0000 0.1007745086
H   H44       1.0  0.58620  0.98120  0.09030  1.0000 0.14050416
H   H45       1.0  0.79230  0.08560  0.18530  1.0000 0.1298313153
H   H46       1.0  0.90720  0.92090  0.14790  1.0000 0.1218519906
H   H47       1.0  0.07220  0.99680  0.18370  1.0000 0.1218519906
H   H48       1.0  0.98590  0.15210  0.14100  1.0000 0.1109709243
H   H49       1.0  0.05810  0.66170  0.54330  1.0000 0.1109709243
H   H50       1.0  0.16420  0.74530  0.75720  1.0000 0.1007745086
H   H51       1.0  0.34970  0.32120  0.62380  1.0000 0.1494085072
H   H52       1.0  0.79240  0.39830  0.66710  1.0000 0.1218519906
H   H53       1.0  0.69840  0.72340  0.61710  1.0000 0.1494085072
H   H54       1.0  0.60910  0.45310  0.55530  1.0000 0.1298313153
H   H55       1.0  0.56160  0.33340  0.82050  1.0000 0.1007745086
H   H56       1.0  0.25420  0.60340  0.59510  1.0000 0.1298313153
H   H57       1.0  0.55810  0.26720  0.57040  1.0000 0.1109709243
H   H58       1.0  0.49220  0.77800  0.56320  1.0000 0.1218519906
H   H59       1.0  0.00600  0.34140  0.71560  1.0000 0.1007745086
H   H60       1.0  0.83750  0.66667  0.78030  1.0000 0.1218519906
H   H61       1.0  0.27970  0.68080  0.69940  1.0000 0.1298313153
H   H62       1.0  0.51740  0.65580  0.46590  1.0000 0.1218519906
H   H63       1.0  0.82070  0.39660  0.50670  1.0000 0.1109709243
H   H64       1.0  0.32510  0.39110  0.77630  1.0000 0.1298313153
H   H65       1.0  0.42150  0.40430  0.44660  1.0000 0.1218519906
H   H66       1.0  0.32590  0.58820  0.42250  1.0000 0.14050416
H   H67       1.0  0.70520  0.73100  0.83510  1.0000 0.1007745086
H   H68       1.0  0.58620  0.48120  0.40970  1.0000 0.14050416
H   H69       1.0  0.79230  0.58560  0.31470  1.0000 0.1298313153
H   H70       1.0  0.90720  0.42090  0.35210  1.0000 0.1218519906
H   H71       1.0  0.07220  0.49680  0.31630  1.0000 0.1218519906
H   H72       1.0  0.98590  0.65210  0.35900  1.0000 0.1109709243
H   H73       1.0  0.94190  0.16170  0.45670  1.0000 0.1109709243
H   H74       1.0  0.83580  0.24530  0.24280  1.0000 0.1007745086
H   H75       1.0  0.65030  0.82120  0.37620  1.0000 0.1494085072
H   H76       1.0  0.20760  0.89830  0.33290  1.0000 0.1218519906
H   H77       1.0  0.30160  0.22340  0.38290  1.0000 0.1494085072
H   H78       1.0  0.39090  0.95310  0.44470  1.0000 0.1298313153
H   H79       1.0  0.43840  0.83340  0.17950  1.0000 0.1007745086
H   H80       1.0  0.74580  0.10340  0.40490  1.0000 0.1298313153
H   H81       1.0  0.44190  0.76720  0.42960  1.0000 0.1109709243
H   H82       1.0  0.50780  0.27800  0.43680  1.0000 0.1218519906
H   H83       1.0  0.99400  0.84140  0.28440  1.0000 0.1007745086
H   H84       1.0  0.16250  0.16667  0.21970  1.0000 0.1218519906
H   H85       1.0  0.72030  0.18080  0.30060  1.0000 0.1298313153
H   H86       1.0  0.48260  0.15580  0.53410  1.0000 0.1218519906
H   H87       1.0  0.17930  0.89660  0.49330  1.0000 0.1109709243
H   H88       1.0  0.67490  0.89110  0.22370  1.0000 0.1298313153
H   H89       1.0  0.57850  0.90430  0.55340  1.0000 0.1218519906
H   H90       1.0  0.67410  0.08820  0.57750  1.0000 0.14050416
H   H91       1.0  0.29480  0.23100  0.16490  1.0000 0.1007745086
H   H92       1.0  0.41380  0.98120  0.59030  1.0000 0.14050416
H   H93       1.0  0.20770  0.08560  0.68530  1.0000 0.1298313153
H   H94       1.0  0.09280  0.92090  0.64790  1.0000 0.1218519906
H   H95       1.0  0.92780  0.99680  0.68370  1.0000 0.1218519906
H   H96       1.0  0.01410  0.15210  0.64100  1.0000 0.1109709243
C   C1        1.0  0.81130  0.67411  0.05832  1.0000 0.0802707533
C   C2        1.0  0.42240  0.66667  0.23214  1.0000 0.1218519906
C   C3        1.0  0.53650  0.39386  0.09740  1.0000 0.1298313153
C   C4        1.0  0.65420  0.43066  0.13315  1.0000 -0.0801293347
C   C5        1.0  0.33590  0.62457  0.19616  1.0000 -0.0560572305
C   C6        1.0  0.50280  0.65710  0.11248  1.0000 0.1298313153
C   C7        1.0  0.69750  0.72912  0.26191  1.0000 0.069582197
C   C8        1.0  0.55400  0.33732  0.10049  1.0000 -0.1815462903
C   C9        1.0  0.47070  0.39977  0.21520  1.0000 0.1218519906
C   C10       1.0  0.37280  0.61999  0.14630  1.0000 -0.0801293347
C   C11       1.0  0.26100  0.38515  0.19811  1.0000 -0.2024119294
C   C12       1.0  0.43140  0.71002  0.10243  1.0000 -0.185123627
C   C13       1.0  0.22810  0.66069  0.91721  1.0000 -0.044190404
C   C14       1.0  0.39860  0.41528  0.06019  1.0000 -0.2024119294
C   C15       1.0  0.39280  0.34643  0.28877  1.0000 0.1007745086
C   C16       1.0  0.69510  0.63904  0.08951  1.0000 -0.2085563456
C   C17       1.0  0.42680  0.30520  0.06852  1.0000 0.1109709243
C   C18       1.0  0.85530  0.40500  0.90360  1.0000 -0.0339906821
C   C19       1.0  0.62300  0.43425  0.18409  1.0000 -0.0654336912
C   C20       1.0  0.55670  0.74253  0.07019  1.0000 0.1218519906
C   C21       1.0  0.92600  0.50618  0.16307  1.0000 -0.1250163959
C   C22       1.0  0.09140  0.54314  0.16657  1.0000 -0.1186277148
C   C23       1.0  0.13380  0.35099  0.22767  1.0000 0.0579602528
C   C24       1.0  0.30060  0.68230  0.27431  1.0000 -0.2085563456
C   C25       1.0  0.65880  0.49612  0.86104  1.0000 0.2336748494
C   C26       1.0  0.62890  0.69053  0.22653  1.0000 -0.2024119294
C   C27       1.0  0.42520  0.64154  0.93574  1.0000 -0.0801293347
C   C28       1.0  0.45520  0.57990  0.86558  1.0000 0.2408688618
C   C29       1.0  0.27440  0.38124  0.03074  1.0000 0.0802707533
C   C30       1.0  0.97170  0.35657  0.92735  1.0000 0.5303446008
C   C31       1.0  0.53850  0.38106  0.26253  1.0000 -0.2085563456
C   C32       1.0  0.65080  0.42300  0.92047  1.0000 -0.0801293347
C   C33       1.0  0.53960  0.60110  0.90982  1.0000 -0.2024119294
C   C34       1.0  0.38230  0.72086  0.30737  1.0000 0.0802707533
C   C35       1.0  0.55200  0.46920  0.89849  1.0000 -0.2085563456
C   C36       1.0  0.26170  0.59919  0.84552  1.0000 -0.2024119294
C   C37       1.0  0.10320  0.70431  0.94412  1.0000 0.5131781651
C   C38       1.0  0.95620  0.43295  0.86435  1.0000 -0.0966361658
C   C39       1.0  0.85840  0.47826  0.84299  1.0000 -0.2024119294
C   C40       1.0  0.14800  0.63924  0.87196  1.0000 -0.0966361658
C   C41       1.0  0.18870  0.17411  0.94168  1.0000 0.0802707533
C   C42       1.0  0.57760  0.16667  0.76786  1.0000 0.1218519906
C   C43       1.0  0.46350  0.89386  0.90260  1.0000 0.1298313153
C   C44       1.0  0.34580  0.93066  0.86685  1.0000 -0.0801293347
C   C45       1.0  0.66410  0.12457  0.80384  1.0000 -0.0560572305
C   C46       1.0  0.49720  0.15710  0.88752  1.0000 0.1298313153
C   C47       1.0  0.30250  0.22912  0.73809  1.0000 0.069582197
C   C48       1.0  0.44600  0.83732  0.89951  1.0000 -0.1815462903
C   C49       1.0  0.52930  0.89977  0.78480  1.0000 0.1218519906
C   C50       1.0  0.62720  0.11999  0.85370  1.0000 -0.0801293347
C   C51       1.0  0.73900  0.88515  0.80189  1.0000 -0.2024119294
C   C52       1.0  0.56860  0.21002  0.89757  1.0000 -0.185123627
C   C53       1.0  0.77190  0.16069  0.08279  1.0000 -0.044190404
C   C54       1.0  0.60140  0.91528  0.93981  1.0000 -0.2024119294
C   C55       1.0  0.60720  0.84643  0.71123  1.0000 0.1007745086
C   C56       1.0  0.30490  0.13904  0.91049  1.0000 -0.2085563456
C   C57       1.0  0.57320  0.80520  0.93148  1.0000 0.1109709243
C   C58       1.0  0.14470  0.90500  0.09640  1.0000 -0.0339906821
C   C59       1.0  0.37700  0.93425  0.81591  1.0000 -0.0654336912
C   C60       1.0  0.44330  0.24253  0.92981  1.0000 0.1218519906
C   C61       1.0  0.07400  0.00618  0.83693  1.0000 -0.1250163959
C   C62       1.0  0.90860  0.04314  0.83343  1.0000 -0.1186277148
C   C63       1.0  0.86620  0.85099  0.77233  1.0000 0.0579602528
C   C64       1.0  0.69940  0.18230  0.72569  1.0000 -0.2085563456
C   C65       1.0  0.34120  0.99612  0.13896  1.0000 0.2336748494
C   C66       1.0  0.37110  0.19053  0.77347  1.0000 -0.2024119294
C   C67       1.0  0.57480  0.14154  0.06426  1.0000 -0.0801293347
C   C68       1.0  0.54480  0.07990  0.13442  1.0000 0.2408688618
C   C69       1.0  0.72560  0.88124  0.96926  1.0000 0.0802707533
C   C70       1.0  0.02830  0.85657  0.07265  1.0000 0.5303446008
C   C71       1.0  0.46150  0.88106  0.73747  1.0000 -0.2085563456
C   C72       1.0  0.34920  0.92300  0.07953  1.0000 -0.0801293347
C   C73       1.0  0.46040  0.10110  0.09018  1.0000 -0.2024119294
C   C74       1.0  0.61770  0.22086  0.69263  1.0000 0.0802707533
C   C75       1.0  0.44800  0.96920  0.10151  1.0000 -0.2085563456
C   C76       1.0  0.73830  0.09919  0.15448  1.0000 -0.2024119294
C   C77       1.0  0.89680  0.20431  0.05588  1.0000 0.5131781651
C   C78       1.0  0.04380  0.93295  0.13565  1.0000 -0.0966361658
C   C79       1.0  0.14160  0.97826  0.15701  1.0000 -0.2024119294
C   C80       1.0  0.85200  0.13924  0.12804  1.0000 -0.0966361658
C   C81       1.0  0.18870  0.67411  0.55832  1.0000 0.0802707533
C   C82       1.0  0.57760  0.66667  0.73214  1.0000 0.1218519906
C   C83       1.0  0.46350  0.39386  0.59740  1.0000 0.1298313153
C   C84       1.0  0.34580  0.43066  0.63315  1.0000 -0.0801293347
C   C85       1.0  0.66410  0.62457  0.69616  1.0000 -0.0560572305
C   C86       1.0  0.49720  0.65710  0.61248  1.0000 0.1298313153
C   C87       1.0  0.30250  0.72912  0.76191  1.0000 0.069582197
C   C88       1.0  0.44600  0.33732  0.60049  1.0000 -0.1815462903
C   C89       1.0  0.52930  0.39977  0.71520  1.0000 0.1218519906
C   C90       1.0  0.62720  0.61999  0.64630  1.0000 -0.0801293347
C   C91       1.0  0.73900  0.38515  0.69811  1.0000 -0.2024119294
C   C92       1.0  0.56860  0.71002  0.60243  1.0000 -0.185123627
C   C93       1.0  0.77190  0.66069  0.41721  1.0000 -0.044190404
C   C94       1.0  0.60140  0.41528  0.56019  1.0000 -0.2024119294
C   C95       1.0  0.60720  0.34643  0.78877  1.0000 0.1007745086
C   C96       1.0  0.30490  0.63904  0.58951  1.0000 -0.2085563456
C   C97       1.0  0.57320  0.30520  0.56852  1.0000 0.1109709243
C   C98       1.0  0.14470  0.40500  0.40360  1.0000 -0.0339906821
C   C99       1.0  0.37700  0.43425  0.68409  1.0000 -0.0654336912
C   C100      1.0  0.44330  0.74253  0.57019  1.0000 0.1218519906
C   C101      1.0  0.07400  0.50618  0.66307  1.0000 -0.1250163959
C   C102      1.0  0.90860  0.54314  0.66657  1.0000 -0.1186277148
C   C103      1.0  0.86620  0.35099  0.72767  1.0000 0.0579602528
C   C104      1.0  0.69940  0.68230  0.77431  1.0000 -0.2085563456
C   C105      1.0  0.34120  0.49612  0.36104  1.0000 0.2336748494
C   C106      1.0  0.37110  0.69053  0.72653  1.0000 -0.2024119294
C   C107      1.0  0.57480  0.64154  0.43574  1.0000 -0.0801293347
C   C108      1.0  0.54480  0.57990  0.36558  1.0000 0.2408688618
C   C109      1.0  0.72560  0.38124  0.53074  1.0000 0.0802707533
C   C110      1.0  0.02830  0.35657  0.42735  1.0000 0.5303446008
C   C111      1.0  0.46150  0.38106  0.76253  1.0000 -0.2085563456
C   C112      1.0  0.34920  0.42300  0.42047  1.0000 -0.0801293347
C   C113      1.0  0.46040  0.60110  0.40982  1.0000 -0.2024119294
C   C114      1.0  0.61770  0.72086  0.80737  1.0000 0.0802707533
C   C115      1.0  0.44800  0.46920  0.39849  1.0000 -0.2085563456
C   C116      1.0  0.73830  0.59919  0.34552  1.0000 -0.2024119294
C   C117      1.0  0.89680  0.70431  0.44412  1.0000 0.5131781651
C   C118      1.0  0.04380  0.43295  0.36435  1.0000 -0.0966361658
C   C119      1.0  0.14160  0.47826  0.34299  1.0000 -0.2024119294
C   C120      1.0  0.85200  0.63924  0.37196  1.0000 -0.0966361658
C   C121      1.0  0.81130  0.17411  0.44168  1.0000 0.0802707533
C   C122      1.0  0.42240  0.16667  0.26786  1.0000 0.1218519906
C   C123      1.0  0.53650  0.89386  0.40260  1.0000 0.1298313153
C   C124      1.0  0.65420  0.93066  0.36685  1.0000 -0.0801293347
C   C125      1.0  0.33590  0.12457  0.30384  1.0000 -0.0560572305
C   C126      1.0  0.50280  0.15710  0.38752  1.0000 0.1298313153
C   C127      1.0  0.69750  0.22912  0.23809  1.0000 0.069582197
C   C128      1.0  0.55400  0.83732  0.39951  1.0000 -0.1815462903
C   C129      1.0  0.47070  0.89977  0.28480  1.0000 0.1218519906
C   C130      1.0  0.37280  0.11999  0.35370  1.0000 -0.0801293347
C   C131      1.0  0.26100  0.88515  0.30189  1.0000 -0.2024119294
C   C132      1.0  0.43140  0.21002  0.39757  1.0000 -0.185123627
C   C133      1.0  0.22810  0.16069  0.58279  1.0000 -0.044190404
C   C134      1.0  0.39860  0.91528  0.43981  1.0000 -0.2024119294
C   C135      1.0  0.39280  0.84643  0.21123  1.0000 0.1007745086
C   C136      1.0  0.69510  0.13904  0.41049  1.0000 -0.2085563456
C   C137      1.0  0.42680  0.80520  0.43148  1.0000 0.1109709243
C   C138      1.0  0.85530  0.90500  0.59640  1.0000 -0.0339906821
C   C139      1.0  0.62300  0.93425  0.31591  1.0000 -0.0654336912
C   C140      1.0  0.55670  0.24253  0.42981  1.0000 0.1218519906
C   C141      1.0  0.92600  0.00618  0.33693  1.0000 -0.1250163959
C   C142      1.0  0.09140  0.04314  0.33343  1.0000 -0.1186277148
C   C143      1.0  0.13380  0.85099  0.27233  1.0000 0.0579602528
C   C144      1.0  0.30060  0.18230  0.22569  1.0000 -0.2085563456
C   C145      1.0  0.65880  0.99612  0.63896  1.0000 0.2336748494
C   C146      1.0  0.62890  0.19053  0.27347  1.0000 -0.2024119294
C   C147      1.0  0.42520  0.14154  0.56426  1.0000 -0.0801293347
C   C148      1.0  0.45520  0.07990  0.63442  1.0000 0.2408688618
C   C149      1.0  0.27440  0.88124  0.46926  1.0000 0.0802707533
C   C150      1.0  0.97170  0.85657  0.57265  1.0000 0.5303446008
C   C151      1.0  0.53850  0.88106  0.23747  1.0000 -0.2085563456
C   C152      1.0  0.65080  0.92300  0.57953  1.0000 -0.0801293347
C   C153      1.0  0.53960  0.10110  0.59018  1.0000 -0.2024119294
C   C154      1.0  0.38230  0.22086  0.19263  1.0000 0.0802707533
C   C155      1.0  0.55200  0.96920  0.60151  1.0000 -0.2085563456
C   C156      1.0  0.26170  0.09919  0.65448  1.0000 -0.2024119294
C   C157      1.0  0.10320  0.20431  0.55588  1.0000 0.5131781651
C   C158      1.0  0.95620  0.93295  0.63565  1.0000 -0.0966361658
C   C159      1.0  0.85840  0.97826  0.65701  1.0000 -0.2024119294
C   C160      1.0  0.14800  0.13924  0.62804  1.0000 -0.0966361658
S   S1        1.0  0.24895  0.56467  0.11406  1.0000 0.0436865977
S   S2        1.0  0.84797  0.47510  0.10552  1.0000 0.0579602528
S   S3        1.0  0.77446  0.48455  0.21649  1.0000 0.0802707533
S   S4        1.0  0.16887  0.57341  0.22414  1.0000 0.069582197
S   S5        1.0  0.75105  0.06467  0.88594  1.0000 0.0470560091
S   S6        1.0  0.15203  0.97510  0.89448  1.0000 0.0579602528
S   S7        1.0  0.22554  0.98455  0.78351  1.0000 0.0802707533
S   S8        1.0  0.83113  0.07341  0.77586  1.0000 0.069582197
S   S9        1.0  0.75105  0.56467  0.61406  1.0000 0.0470560091
S   S10       1.0  0.15203  0.47510  0.60552  1.0000 0.0579602528
S   S11       1.0  0.22554  0.48455  0.71649  1.0000 0.0802707533
S   S12       1.0  0.83113  0.57341  0.72414  1.0000 0.069582197
S   S13       1.0  0.24895  0.06467  0.38594  1.0000 0.0436865977
S   S14       1.0  0.84797  0.97510  0.39448  1.0000 0.0579602528
S   S15       1.0  0.77446  0.98455  0.28351  1.0000 0.0802707533
S   S16       1.0  0.16887  0.07341  0.27586  1.0000 0.069582197
N   N1        1.0  0.74450  0.72526  0.04866  1.0000 -0.2286427688
N   N2        1.0  0.19690  0.33082  0.27232  1.0000 -0.2506813416
N   N3        1.0  0.28300  0.32604  0.03494  1.0000 -0.2286427688
N   N4        1.0  0.57960  0.74463  0.30215  1.0000 -0.2506813416
N   N5        1.0  0.25550  0.22526  0.95134  1.0000 -0.2286427688
N   N6        1.0  0.80310  0.83082  0.72768  1.0000 -0.2506813416
N   N7        1.0  0.71700  0.82604  0.96506  1.0000 -0.2286427688
N   N8        1.0  0.42040  0.24463  0.69785  1.0000 -0.2506813416
N   N9        1.0  0.25550  0.72526  0.54866  1.0000 -0.2286427688
N   N10       1.0  0.80310  0.33082  0.77232  1.0000 -0.2506813416
N   N11       1.0  0.71700  0.32604  0.53494  1.0000 -0.2286427688
N   N12       1.0  0.42040  0.74463  0.80215  1.0000 -0.2506813416
N   N13       1.0  0.74450  0.22526  0.45134  1.0000 -0.2286427688
N   N14       1.0  0.19690  0.83082  0.22768  1.0000 -0.2506813416
N   N15       1.0  0.28300  0.82604  0.46506  1.0000 -0.2286427688
N   N16       1.0  0.57960  0.24463  0.19785  1.0000 -0.2506813416
O   O1        1.0  0.15630  0.34363  0.91229  1.0000 -0.5389766963
O   O2        1.0  0.86930  0.33270  0.96322  1.0000 -0.5389766963
O   O3        1.0  0.17880  0.72418  0.98397  1.0000 -0.4925016807
O   O4        1.0  0.56650  0.54118  0.83673  1.0000 -0.2286427688
O   O5        1.0  0.92290  0.72019  0.92840  1.0000 -0.5090485261
O   O6        1.0  0.84370  0.84363  0.08771  1.0000 -0.5389766963
O   O7        1.0  0.13070  0.83270  0.03678  1.0000 -0.5389766963
O   O8        1.0  0.82120  0.22418  0.01603  1.0000 -0.4925016807
O   O9        1.0  0.43350  0.04118  0.16327  1.0000 -0.2286427688
O   O10       1.0  0.07710  0.22019  0.07160  1.0000 -0.5090485261
O   O11       1.0  0.84370  0.34363  0.41229  1.0000 -0.5389766963
O   O12       1.0  0.13070  0.33270  0.46322  1.0000 -0.5389766963
O   O13       1.0  0.82120  0.72418  0.48397  1.0000 -0.4925016807
O   O14       1.0  0.43350  0.54118  0.33673  1.0000 -0.2286427688
O   O15       1.0  0.07710  0.72019  0.42840  1.0000 -0.5090485261
O   O16       1.0  0.15630  0.84363  0.58771  1.0000 -0.5389766963
O   O17       1.0  0.86930  0.83270  0.53678  1.0000 -0.5389766963
O   O18       1.0  0.17880  0.22418  0.51603  1.0000 -0.4925016807
O   O19       1.0  0.56650  0.04118  0.66327  1.0000 -0.2286427688
O   O20       1.0  0.92290  0.22019  0.57160  1.0000 -0.5090485261
