# DDEC6 charges by PACMAN v1.1 (https://github.com/mtap-research/PACMAN-charge/)
data_2022[PbMn][nan]2[FSR]1
_chemical_formula_sum              "Mn2 H28 Pb4 C36 N16 O24"
_cell_length_a       12.3913
_cell_length_b       12.3913
_cell_length_c       19.383
_cell_angle_alpha    57.9452
_cell_angle_beta     122.055
_cell_angle_gamma    147.36

_symmetry_space_group_name_H-M    "P 1"
_symmetry_Int_Tables_number       1

loop_
  _symmetry_equiv_pos_as_xyz
  'x, y, z'

loop_
  _atom_site_type_symbol
  _atom_site_label
  _atom_site_symmetry_multiplicity
  _atom_site_fract_x
  _atom_site_fract_y
  _atom_site_fract_z
  _atom_site_occupancy
  _atom_site_charge
Mn  Mn1       1.0  0.52019  0.52019  0.75000  1.0000 0.9023963365
Mn  Mn2       1.0  0.47981  0.47981  0.25000  1.0000 0.9023963365
H   H1        1.0  0.61780  0.77900  0.78260  1.0000 0.3544407341
H   H2        1.0  0.75930  0.79290  0.83690  1.0000 0.3716260049
H   H3        1.0  0.30530  0.57330  0.40050  1.0000 0.3569506499
H   H4        1.0  0.30170  0.56750  0.32700  1.0000 0.3716260049
H   H5        1.0  0.96090  0.85990  0.33270  1.0000 0.1294630819
H   H6        1.0  0.11510  0.65290  0.35620  1.0000 0.1294630819
H   H7        1.0  0.29380  0.85060  0.54830  1.0000 0.1294630819
H   H8        1.0  0.77900  0.61780  0.71740  1.0000 0.3544407341
H   H9        1.0  0.79290  0.75930  0.66310  1.0000 0.3716260049
H   H10       1.0  0.57330  0.30530  0.09950  1.0000 0.3569506499
H   H11       1.0  0.56750  0.30170  0.17300  1.0000 0.3716260049
H   H12       1.0  0.85990  0.96090  0.16730  1.0000 0.1294630819
H   H13       1.0  0.65290  0.11510  0.14380  1.0000 0.1294630819
H   H14       1.0  0.85060  0.29380  0.95170  1.0000 0.1294630819
H   H15       1.0  0.38220  0.22100  0.21740  1.0000 0.3544407341
H   H16       1.0  0.24070  0.20710  0.16310  1.0000 0.3716260049
H   H17       1.0  0.69470  0.42670  0.59950  1.0000 0.3569506499
H   H18       1.0  0.69830  0.43250  0.67300  1.0000 0.3716260049
H   H19       1.0  0.03910  0.14010  0.66730  1.0000 0.1294630819
H   H20       1.0  0.88490  0.34710  0.64380  1.0000 0.1294630819
H   H21       1.0  0.70620  0.14940  0.45170  1.0000 0.1294630819
H   H22       1.0  0.22100  0.38220  0.28260  1.0000 0.3569506499
H   H23       1.0  0.20710  0.24070  0.33690  1.0000 0.3716260049
H   H24       1.0  0.42670  0.69470  0.90050  1.0000 0.3569506499
H   H25       1.0  0.43250  0.69830  0.82700  1.0000 0.3716260049
H   H26       1.0  0.14010  0.03910  0.83270  1.0000 0.1294630819
H   H27       1.0  0.34710  0.88490  0.85620  1.0000 0.1294630819
H   H28       1.0  0.14940  0.70620  0.04830  1.0000 0.1294630819
Pb  Pb1       1.0  0.70251  0.77267  0.43118  1.0000 1.0052302036
Pb  Pb2       1.0  0.77267  0.70251  0.06882  1.0000 1.0044852647
Pb  Pb3       1.0  0.29749  0.22733  0.56882  1.0000 1.0052302036
Pb  Pb4       1.0  0.22733  0.29749  0.93118  1.0000 1.0044852647
C   C1        1.0  0.13410  0.87390  0.44540  1.0000 -0.0147920341
C   C2        1.0  0.02780  0.83200  0.36500  1.0000 -0.1128322312
C   C3        1.0  0.02090  0.74890  0.33270  1.0000 0.0007568402
C   C4        1.0  0.11670  0.70530  0.37940  1.0000 -0.1462951411
C   C5        1.0  0.21580  0.73980  0.46120  1.0000 0.0462557006
C   C6        1.0  0.22490  0.82530  0.49320  1.0000 -0.1268741262
C   C7        1.0  0.14490  0.96730  0.47910  1.0000 0.5603833947
C   C8        1.0  0.90960  0.71000  0.24560  1.0000 0.5758558664
C   C9        1.0  0.30380  0.68000  0.51350  1.0000 0.2278875116
C   C10       1.0  0.87390  0.13410  0.05460  1.0000 -0.0147920341
C   C11       1.0  0.83200  0.02780  0.13500  1.0000 -0.1128322312
C   C12       1.0  0.74890  0.02090  0.16730  1.0000 0.0007568402
C   C13       1.0  0.70530  0.11670  0.12060  1.0000 -0.1462951411
C   C14       1.0  0.73980  0.21580  0.03880  1.0000 0.0462557006
C   C15       1.0  0.82530  0.22490  0.00680  1.0000 -0.1268741262
C   C16       1.0  0.96730  0.14490  0.02090  1.0000 0.5603833947
C   C17       1.0  0.71000  0.90960  0.25440  1.0000 0.5758558664
C   C18       1.0  0.68000  0.30380  0.98650  1.0000 0.2278875116
C   C19       1.0  0.86590  0.12610  0.55460  1.0000 -0.0147920341
C   C20       1.0  0.97220  0.16800  0.63500  1.0000 -0.1128322312
C   C21       1.0  0.97910  0.25110  0.66730  1.0000 0.0007568402
C   C22       1.0  0.88330  0.29470  0.62060  1.0000 -0.1462951411
C   C23       1.0  0.78420  0.26020  0.53880  1.0000 0.0462557006
C   C24       1.0  0.77510  0.17470  0.50680  1.0000 -0.1268741262
C   C25       1.0  0.85510  0.03270  0.52090  1.0000 0.5603833947
C   C26       1.0  0.09040  0.29000  0.75440  1.0000 0.5758558664
C   C27       1.0  0.69620  0.32000  0.48650  1.0000 0.2278875116
C   C28       1.0  0.12610  0.86590  0.94540  1.0000 -0.0147920341
C   C29       1.0  0.16800  0.97220  0.86500  1.0000 -0.1128322312
C   C30       1.0  0.25110  0.97910  0.83270  1.0000 0.0007568402
C   C31       1.0  0.29470  0.88330  0.87940  1.0000 -0.1462951411
C   C32       1.0  0.26020  0.78420  0.96120  1.0000 0.0462557006
C   C33       1.0  0.17470  0.77510  0.99320  1.0000 -0.1268741262
C   C34       1.0  0.03270  0.85510  0.97910  1.0000 0.5603833947
C   C35       1.0  0.29000  0.09040  0.74560  1.0000 0.5758558664
C   C36       1.0  0.32000  0.69620  0.01350  1.0000 0.2278875116
N   N1        1.0  0.38004  0.68636  0.59520  1.0000 -0.2715663012
N   N2        1.0  0.44083  0.61657  0.61930  1.0000 -0.0836675462
N   N3        1.0  0.40237  0.56943  0.55570  1.0000 -0.1361791414
N   N4        1.0  0.31680  0.60920  0.48840  1.0000 -0.2624092546
N   N5        1.0  0.68636  0.38004  0.90480  1.0000 -0.2715663012
N   N6        1.0  0.61657  0.44083  0.88070  1.0000 -0.0836675462
N   N7        1.0  0.56943  0.40237  0.94430  1.0000 -0.1361791414
N   N8        1.0  0.60920  0.31680  0.01160  1.0000 -0.2624092546
N   N9        1.0  0.61996  0.31364  0.40480  1.0000 -0.2715663012
N   N10       1.0  0.55917  0.38343  0.38070  1.0000 -0.0836675462
N   N11       1.0  0.59763  0.43057  0.44430  1.0000 -0.1361791414
N   N12       1.0  0.68320  0.39080  0.51160  1.0000 -0.2624092546
N   N13       1.0  0.31364  0.61996  0.09520  1.0000 -0.2715663012
N   N14       1.0  0.38343  0.55917  0.11930  1.0000 -0.0836675462
N   N15       1.0  0.43057  0.59763  0.05570  1.0000 -0.1361791414
N   N16       1.0  0.39080  0.68320  0.98840  1.0000 -0.2624092546
O   O1        1.0  0.07367  0.02513  0.43134  1.0000 -0.5916806158
O   O2        1.0  0.22503  0.98777  0.55372  1.0000 -0.4891322997
O   O3        1.0  0.74949  0.65251  0.21774  1.0000 -0.5975850668
O   O4        1.0  0.98138  0.74262  0.19963  1.0000 -0.4891322997
O   O5        1.0  0.69894  0.78906  0.78440  1.0000 -0.6798523512
O   O6        1.0  0.33793  0.54547  0.38440  1.0000 -0.7088569251
O   O7        1.0  0.02513  0.07367  0.06866  1.0000 -0.5916806158
O   O8        1.0  0.98777  0.22503  0.94628  1.0000 -0.4891322997
O   O9        1.0  0.65251  0.74949  0.28226  1.0000 -0.5975850668
O   O10       1.0  0.74262  0.98138  0.30037  1.0000 -0.4891322997
O   O11       1.0  0.78906  0.69894  0.71560  1.0000 -0.6798523512
O   O12       1.0  0.54547  0.33793  0.11560  1.0000 -0.7088569251
O   O13       1.0  0.92633  0.97487  0.56866  1.0000 -0.5916806158
O   O14       1.0  0.77497  0.01223  0.44628  1.0000 -0.4891322997
O   O15       1.0  0.25051  0.34749  0.78226  1.0000 -0.5975850668
O   O16       1.0  0.01862  0.25738  0.80037  1.0000 -0.4891322997
O   O17       1.0  0.30106  0.21094  0.21560  1.0000 -0.6798523512
O   O18       1.0  0.66207  0.45453  0.61560  1.0000 -0.7088569251
O   O19       1.0  0.97487  0.92633  0.93134  1.0000 -0.5916806158
O   O20       1.0  0.01223  0.77497  0.05372  1.0000 -0.4891322997
O   O21       1.0  0.34749  0.25051  0.71774  1.0000 -0.5975850668
O   O22       1.0  0.25738  0.01862  0.69963  1.0000 -0.4891322997
O   O23       1.0  0.21094  0.30106  0.28440  1.0000 -0.6798523512
O   O24       1.0  0.45453  0.66207  0.88440  1.0000 -0.7088569251
