# DDEC6 charges by PACMAN v1.1 (https://github.com/mtap-research/PACMAN-charge/)
data_2022[Ce][ant]3[FSR]1
_chemical_formula_sum              "Ce2 H28 C44 N26 O14"
_cell_length_a       12.6626
_cell_length_b       12.6626
_cell_length_c       10.9103
_cell_angle_alpha    64.4828
_cell_angle_beta     115.517
_cell_angle_gamma    114.568

_symmetry_space_group_name_H-M    "P 1"
_symmetry_Int_Tables_number       1

loop_
  _symmetry_equiv_pos_as_xyz
  'x, y, z'

loop_
  _atom_site_type_symbol
  _atom_site_label
  _atom_site_symmetry_multiplicity
  _atom_site_fract_x
  _atom_site_fract_y
  _atom_site_fract_z
  _atom_site_occupancy
  _atom_site_charge
Ce  Ce1       1.0  0.54009  0.54009  0.25000  1.0000 1.898283113
Ce  Ce2       1.0  0.45991  0.45991  0.75000  1.0000 1.898283113
H   H1        1.0  0.14334  0.58692  0.39568  1.0000 0.1330506626
H   H2        1.0  0.94861  0.69085  0.98063  1.0000 0.1399567017
H   H3        1.0  0.26225  0.61329  0.09381  1.0000 0.1330506626
H   H4        1.0  0.85591  0.68107  0.42239  1.0000 0.1147984063
H   H5        1.0  0.78102  0.59172  0.09154  1.0000 0.1330506626
H   H6        1.0  0.11772  0.65544  0.62821  1.0000 0.1010162497
H   H7        1.0  0.99283  0.80751  0.75584  1.0000 0.1216220274
H   H8        1.0  0.58692  0.14334  0.10432  1.0000 0.1330506626
H   H9        1.0  0.69085  0.94861  0.51937  1.0000 0.1399567017
H   H10       1.0  0.61329  0.26225  0.40619  1.0000 0.1330506626
H   H11       1.0  0.68107  0.85591  0.07761  1.0000 0.1147984063
H   H12       1.0  0.59172  0.78102  0.40846  1.0000 0.1330506626
H   H13       1.0  0.65544  0.11772  0.87179  1.0000 0.1010162497
H   H14       1.0  0.80751  0.99283  0.74416  1.0000 0.1216220274
H   H15       1.0  0.85666  0.41308  0.60432  1.0000 0.1330506626
H   H16       1.0  0.05139  0.30915  0.01937  1.0000 0.1399567017
H   H17       1.0  0.73775  0.38671  0.90619  1.0000 0.1330506626
H   H18       1.0  0.14409  0.31893  0.57761  1.0000 0.1147984063
H   H19       1.0  0.21898  0.40828  0.90846  1.0000 0.1330506626
H   H20       1.0  0.88228  0.34456  0.37179  1.0000 0.1010162497
H   H21       1.0  0.00717  0.19249  0.24416  1.0000 0.1216220274
H   H22       1.0  0.41308  0.85666  0.89568  1.0000 0.1330506626
H   H23       1.0  0.30915  0.05139  0.48063  1.0000 0.1399567017
H   H24       1.0  0.38671  0.73775  0.59381  1.0000 0.1330506626
H   H25       1.0  0.31893  0.14409  0.92239  1.0000 0.1147984063
H   H26       1.0  0.40828  0.21898  0.59154  1.0000 0.1330506626
H   H27       1.0  0.34456  0.88228  0.12821  1.0000 0.1010162497
H   H28       1.0  0.19249  0.00717  0.25584  1.0000 0.1216220274
C   C1        1.0  0.22050  0.59610  0.26200  1.0000 -0.0068810687
C   C2        1.0  0.13420  0.60480  0.30020  1.0000 -0.1858438065
C   C3        1.0  0.03430  0.64050  0.19410  1.0000 0.1589375252
C   C4        1.0  0.01630  0.66667  0.05060  1.0000 -0.2516278288
C   C5        1.0  0.10300  0.65560  0.01570  1.0000 0.1589375252
C   C6        1.0  0.20500  0.62040  0.11960  1.0000 -0.1993601731
C   C7        1.0  0.33200  0.56160  0.37540  1.0000 0.6484660992
C   C8        1.0  0.86570  0.66510  0.35290  1.0000 0.1589375252
C   C9        1.0  0.82210  0.61670  0.17280  1.0000 0.1216220274
C   C10       1.0  0.09980  0.67660  0.68730  1.0000 0.1330506626
C   C11       1.0  0.03090  0.75970  0.75360  1.0000 0.1010162497
C   C12       1.0  0.59610  0.22050  0.23800  1.0000 -0.0068810687
C   C13       1.0  0.60480  0.13420  0.19980  1.0000 -0.1858438065
C   C14       1.0  0.64050  0.03430  0.30590  1.0000 0.1589375252
C   C15       1.0  0.66667  0.01630  0.44940  1.0000 -0.2516278288
C   C16       1.0  0.65560  0.10300  0.48430  1.0000 0.1589375252
C   C17       1.0  0.62040  0.20500  0.38040  1.0000 -0.1993601731
C   C18       1.0  0.56160  0.33200  0.12460  1.0000 0.6484660992
C   C19       1.0  0.66510  0.86570  0.14710  1.0000 0.1589375252
C   C20       1.0  0.61670  0.82210  0.32720  1.0000 0.1216220274
C   C21       1.0  0.67660  0.09980  0.81270  1.0000 0.1330506626
C   C22       1.0  0.75970  0.03090  0.74640  1.0000 0.1010162497
C   C23       1.0  0.77950  0.40390  0.73800  1.0000 -0.0068810687
C   C24       1.0  0.86580  0.39520  0.69980  1.0000 -0.1858438065
C   C25       1.0  0.96570  0.35950  0.80590  1.0000 0.1589375252
C   C26       1.0  0.98370  0.33333  0.94940  1.0000 -0.2516278288
C   C27       1.0  0.89700  0.34440  0.98430  1.0000 0.1589375252
C   C28       1.0  0.79500  0.37960  0.88040  1.0000 -0.1993601731
C   C29       1.0  0.66800  0.43840  0.62460  1.0000 0.6484660992
C   C30       1.0  0.13430  0.33490  0.64710  1.0000 0.1589375252
C   C31       1.0  0.17790  0.38330  0.82720  1.0000 0.1216220274
C   C32       1.0  0.90020  0.32340  0.31270  1.0000 0.1330506626
C   C33       1.0  0.96910  0.24030  0.24640  1.0000 0.1010162497
C   C34       1.0  0.40390  0.77950  0.76200  1.0000 -0.0068810687
C   C35       1.0  0.39520  0.86580  0.80020  1.0000 -0.1858438065
C   C36       1.0  0.35950  0.96570  0.69410  1.0000 0.1589375252
C   C37       1.0  0.33333  0.98370  0.55060  1.0000 -0.2516278288
C   C38       1.0  0.34440  0.89700  0.51570  1.0000 0.1589375252
C   C39       1.0  0.37960  0.79500  0.61960  1.0000 -0.1993601731
C   C40       1.0  0.43840  0.66800  0.87540  1.0000 0.6484660992
C   C41       1.0  0.33490  0.13430  0.85290  1.0000 0.1589375252
C   C42       1.0  0.38330  0.17790  0.67280  1.0000 0.1216220274
C   C43       1.0  0.32340  0.90020  0.18730  1.0000 0.1330506626
C   C44       1.0  0.24030  0.96910  0.25360  1.0000 0.1010162497
N   N1        1.0  0.94320  0.64600  0.23270  1.0000 0.1147984063
N   N2        1.0  0.97270  0.67630  0.35210  1.0000 -0.2516278288
N   N3        1.0  0.76960  0.62840  0.24520  1.0000 -0.4176646084
N   N4        1.0  0.08740  0.68280  0.86810  1.0000 0.1216220274
N   N5        1.0  0.13410  0.62970  0.82650  1.0000 -0.2516278288
N   N6        1.0  0.03680  0.75780  0.63660  1.0000 -0.3417547753
N   N7        1.0  0.64600  0.94320  0.26730  1.0000 0.1147984063
N   N8        1.0  0.67630  0.97270  0.14790  1.0000 -0.2516278288
N   N9        1.0  0.62840  0.76960  0.25480  1.0000 -0.4176646084
N   N10       1.0  0.68280  0.08740  0.63190  1.0000 0.1216220274
N   N11       1.0  0.62970  0.13410  0.67350  1.0000 -0.2516278288
N   N12       1.0  0.75780  0.03680  0.86340  1.0000 -0.3417547753
N   N13       1.0  0.05680  0.35400  0.76730  1.0000 0.1147984063
N   N14       1.0  0.02730  0.32370  0.64790  1.0000 -0.2516278288
N   N15       1.0  0.23040  0.37160  0.75480  1.0000 -0.4176646084
N   N16       1.0  0.91260  0.31720  0.13190  1.0000 0.1216220274
N   N17       1.0  0.86590  0.37030  0.17350  1.0000 -0.2516278288
N   N18       1.0  0.96320  0.24220  0.36340  1.0000 -0.3417547753
N   N19       1.0  0.35400  0.05680  0.73270  1.0000 0.1147984063
N   N20       1.0  0.32370  0.02730  0.85210  1.0000 -0.2516278288
N   N21       1.0  0.37160  0.23040  0.74520  1.0000 -0.4176646084
N   N22       1.0  0.31720  0.91260  0.36810  1.0000 0.1216220274
N   N23       1.0  0.37030  0.86590  0.32650  1.0000 -0.2516278288
N   N24       1.0  0.24220  0.96320  0.13660  1.0000 -0.3417547753
N   N25       1.0  0.31940  0.31940  0.25000  1.0000 0.7145353446
N   N26       1.0  0.68060  0.68060  0.75000  1.0000 0.7145353446
O   O1        1.0  0.41541  0.57059  0.33531  1.0000 -0.6453290394
O   O2        1.0  0.33730  0.52710  0.50490  1.0000 -0.6453290394
O   O3        1.0  0.41420  0.32040  0.35780  1.0000 -0.4944643489
O   O4        1.0  0.57059  0.41541  0.16469  1.0000 -0.6453290394
O   O5        1.0  0.52710  0.33730  0.99510  1.0000 -0.6453290394
O   O6        1.0  0.32040  0.41420  0.14220  1.0000 -0.4944643489
O   O7        1.0  0.58459  0.42941  0.66469  1.0000 -0.6453290394
O   O8        1.0  0.66270  0.47290  0.49510  1.0000 -0.6453290394
O   O9        1.0  0.58580  0.67960  0.64220  1.0000 -0.4944643489
O   O10       1.0  0.42941  0.58459  0.83531  1.0000 -0.6453290394
O   O11       1.0  0.47290  0.66270  0.00490  1.0000 -0.6453290394
O   O12       1.0  0.67960  0.58580  0.85780  1.0000 -0.4944643489
O   O13       1.0  0.23000  0.23000  0.25000  1.0000 -0.4176646084
O   O14       1.0  0.77000  0.77000  0.75000  1.0000 -0.4176646084
