# DDEC6 charges by PACMAN v1.1 (https://github.com/mtap-research/PACMAN-charge/)
data_2022[Pr][ant]3[FSR]1
_chemical_formula_sum              "Pr2 H28 C44 N26 O14"
_cell_length_a       12.6003
_cell_length_b       12.6003
_cell_length_c       10.855
_cell_angle_alpha    64.4864
_cell_angle_beta     115.514
_cell_angle_gamma    114.324

_symmetry_space_group_name_H-M    "P 1"
_symmetry_Int_Tables_number       1

loop_
  _symmetry_equiv_pos_as_xyz
  'x, y, z'

loop_
  _atom_site_type_symbol
  _atom_site_label
  _atom_site_symmetry_multiplicity
  _atom_site_fract_x
  _atom_site_fract_y
  _atom_site_fract_z
  _atom_site_occupancy
  _atom_site_charge
Pr  Pr1       1.0  0.03967  0.03967  0.75000  1.0000 1.9962675826
Pr  Pr2       1.0  0.96033  0.96033  0.25000  1.0000 1.9962675826
H   H1        1.0  0.27992  0.08874  0.09853  1.0000 0.1309306702
H   H2        1.0  0.64381  0.08589  0.15889  1.0000 0.1309306702
H   H3        1.0  0.35301  0.18101  0.74810  1.0000 0.1207230581
H   H4        1.0  0.76289  0.11279  0.55581  1.0000 0.1388227834
H   H5        1.0  0.62088  0.15782  0.83520  1.0000 0.1001235799
H   H6        1.0  0.44802  0.19034  0.27584  1.0000 0.1388227834
H   H7        1.0  0.49474  0.30954  0.42936  1.0000 0.1207230581
H   H8        1.0  0.08874  0.27992  0.40147  1.0000 0.1309306702
H   H9        1.0  0.08589  0.64381  0.34111  1.0000 0.1309306702
H   H10       1.0  0.18101  0.35301  0.75190  1.0000 0.1207230581
H   H11       1.0  0.11279  0.76289  0.94419  1.0000 0.1388227834
H   H12       1.0  0.15782  0.62088  0.66480  1.0000 0.1001235799
H   H13       1.0  0.19034  0.44802  0.22416  1.0000 0.1388227834
H   H14       1.0  0.30954  0.49474  0.07064  1.0000 0.1207230581
H   H15       1.0  0.72008  0.91126  0.90147  1.0000 0.1309306702
H   H16       1.0  0.35619  0.91411  0.84111  1.0000 0.1309306702
H   H17       1.0  0.64699  0.81899  0.25190  1.0000 0.1207230581
H   H18       1.0  0.23711  0.88721  0.44419  1.0000 0.1388227834
H   H19       1.0  0.37912  0.84218  0.16480  1.0000 0.1001235799
H   H20       1.0  0.55198  0.80966  0.72416  1.0000 0.1388227834
H   H21       1.0  0.50526  0.69046  0.57064  1.0000 0.1207230581
H   H22       1.0  0.91126  0.72008  0.59853  1.0000 0.1309306702
H   H23       1.0  0.91411  0.35619  0.65889  1.0000 0.1309306702
H   H24       1.0  0.81899  0.64699  0.24810  1.0000 0.1207230581
H   H25       1.0  0.88721  0.23711  0.05581  1.0000 0.1388227834
H   H26       1.0  0.84218  0.37912  0.33520  1.0000 0.1001235799
H   H27       1.0  0.80966  0.55198  0.77584  1.0000 0.1388227834
H   H28       1.0  0.69046  0.50526  0.92936  1.0000 0.1207230581
C   C1        1.0  0.83455  0.06005  0.39630  1.0000 0.6675815241
C   C2        1.0  0.72183  0.09477  0.36240  1.0000 -0.0022243579
C   C3        1.0  0.32029  0.11391  0.03220  1.0000 0.1207230581
C   C4        1.0  0.63437  0.10343  0.22790  1.0000 -0.1930072351
C   C5        1.0  0.36300  0.16400  0.84410  1.0000 0.1617413815
C   C6        1.0  0.70548  0.11992  0.46510  1.0000 -0.2067573859
C   C7        1.0  0.53295  0.13865  0.19810  1.0000 0.1617413815
C   C8        1.0  0.60357  0.15543  0.43190  1.0000 0.1617413815
C   C9        1.0  0.60170  0.17770  0.73650  1.0000 0.1388227834
C   C10       1.0  0.51602  0.16578  0.29800  1.0000 -0.2579960866
C   C11       1.0  0.53210  0.26070  0.51800  1.0000 0.1106971395
C   C12       1.0  0.06005  0.83455  0.10370  1.0000 0.6675815241
C   C13       1.0  0.09477  0.72183  0.13760  1.0000 -0.0022243579
C   C14       1.0  0.11391  0.32029  0.46780  1.0000 0.1207230581
C   C15       1.0  0.10343  0.63437  0.27210  1.0000 -0.1930072351
C   C16       1.0  0.16400  0.36300  0.65590  1.0000 0.1617413815
C   C17       1.0  0.11992  0.70548  0.03490  1.0000 -0.2067573859
C   C18       1.0  0.13865  0.53295  0.30190  1.0000 0.1617413815
C   C19       1.0  0.15543  0.60357  0.06810  1.0000 0.1617413815
C   C20       1.0  0.17770  0.60170  0.76350  1.0000 0.1388227834
C   C21       1.0  0.16578  0.51602  0.20200  1.0000 -0.2579960866
C   C22       1.0  0.26070  0.53210  0.98200  1.0000 0.1106971395
C   C23       1.0  0.16545  0.93995  0.60370  1.0000 0.6675815241
C   C24       1.0  0.27817  0.90523  0.63760  1.0000 -0.0022243579
C   C25       1.0  0.67971  0.88609  0.96780  1.0000 0.1207230581
C   C26       1.0  0.36563  0.89657  0.77210  1.0000 -0.1930072351
C   C27       1.0  0.63700  0.83600  0.15590  1.0000 0.1617413815
C   C28       1.0  0.29452  0.88008  0.53490  1.0000 -0.2067573859
C   C29       1.0  0.46705  0.86135  0.80190  1.0000 0.1617413815
C   C30       1.0  0.39643  0.84457  0.56810  1.0000 0.1617413815
C   C31       1.0  0.39830  0.82230  0.26350  1.0000 0.1388227834
C   C32       1.0  0.48398  0.83422  0.70200  1.0000 -0.2579960866
C   C33       1.0  0.46790  0.73930  0.48200  1.0000 0.1106971395
C   C34       1.0  0.93995  0.16545  0.89630  1.0000 0.6675815241
C   C35       1.0  0.90523  0.27817  0.86240  1.0000 -0.0022243579
C   C36       1.0  0.88609  0.67971  0.53220  1.0000 0.1207230581
C   C37       1.0  0.89657  0.36563  0.72790  1.0000 -0.1930072351
C   C38       1.0  0.83600  0.63700  0.34410  1.0000 0.1617413815
C   C39       1.0  0.88008  0.29452  0.96510  1.0000 -0.2067573859
C   C40       1.0  0.86135  0.46705  0.69810  1.0000 0.1617413815
C   C41       1.0  0.84457  0.39643  0.93190  1.0000 0.1617413815
C   C42       1.0  0.82230  0.39830  0.23650  1.0000 0.1388227834
C   C43       1.0  0.83422  0.48398  0.79800  1.0000 -0.2579960866
C   C44       1.0  0.73930  0.46790  0.01800  1.0000 0.1106971395
N   N1        1.0  0.26650  0.12550  0.89410  1.0000 -0.4471888585
N   N2        1.0  0.44103  0.14377  0.06200  1.0000 0.1309306702
N   N3        1.0  0.63536  0.12884  0.67940  1.0000 -0.2513962357
N   N4        1.0  0.58820  0.18260  0.53670  1.0000 0.1106971395
N   N5        1.0  0.47020  0.17500  0.94150  1.0000 -0.2513962357
N   N6        1.0  0.53730  0.25850  0.64280  1.0000 -0.3414826734
N   N7        1.0  0.12550  0.26650  0.60590  1.0000 -0.4471888585
N   N8        1.0  0.14377  0.44103  0.43800  1.0000 0.1309306702
N   N9        1.0  0.12884  0.63536  0.82060  1.0000 -0.2513962357
N   N10       1.0  0.18260  0.58820  0.96330  1.0000 0.1207230581
N   N11       1.0  0.17500  0.47020  0.55850  1.0000 -0.2513962357
N   N12       1.0  0.25850  0.53730  0.85720  1.0000 -0.3414826734
N   N13       1.0  0.73350  0.87450  0.10590  1.0000 -0.4471888585
N   N14       1.0  0.55897  0.85623  0.93800  1.0000 0.1309306702
N   N15       1.0  0.36464  0.87116  0.32060  1.0000 -0.2513962357
N   N16       1.0  0.41180  0.81740  0.46330  1.0000 0.1106971395
N   N17       1.0  0.52980  0.82500  0.05850  1.0000 -0.2513962357
N   N18       1.0  0.46270  0.74150  0.35720  1.0000 -0.3414826734
N   N19       1.0  0.87450  0.73350  0.39410  1.0000 -0.4471888585
N   N20       1.0  0.85623  0.55897  0.56200  1.0000 0.1309306702
N   N21       1.0  0.87116  0.36464  0.17940  1.0000 -0.2513962357
N   N22       1.0  0.81740  0.41180  0.03670  1.0000 0.1106971395
N   N23       1.0  0.82500  0.52980  0.44150  1.0000 -0.2513962357
N   N24       1.0  0.74150  0.46270  0.14280  1.0000 -0.3414826734
N   N25       1.0  0.82190  0.82190  0.75000  1.0000 0.7069388287
N   N26       1.0  0.17810  0.17810  0.25000  1.0000 0.7069388287
O   O1        1.0  0.91728  0.06932  0.51090  1.0000 -0.6774573071
O   O2        1.0  0.83942  0.02598  0.30560  1.0000 -0.6744498504
O   O3        1.0  0.82323  0.91697  0.76400  1.0000 -0.4944934292
O   O4        1.0  0.06932  0.91728  0.98910  1.0000 -0.6774573071
O   O5        1.0  0.02598  0.83942  0.19440  1.0000 -0.6744498504
O   O6        1.0  0.91697  0.82323  0.73600  1.0000 -0.4956972344
O   O7        1.0  0.08272  0.93068  0.48910  1.0000 -0.6774573071
O   O8        1.0  0.16058  0.97402  0.69440  1.0000 -0.6744498504
O   O9        1.0  0.17677  0.08303  0.23600  1.0000 -0.4956972344
O   O10       1.0  0.93068  0.08272  0.01090  1.0000 -0.6774573071
O   O11       1.0  0.97402  0.16058  0.80560  1.0000 -0.6744498504
O   O12       1.0  0.08303  0.17677  0.26400  1.0000 -0.4944934292
O   O13       1.0  0.73250  0.73250  0.75000  1.0000 -0.4028223796
O   O14       1.0  0.26750  0.26750  0.25000  1.0000 -0.4028223796
