# DDEC6 charges by PACMAN v1.1 (https://github.com/mtap-research/PACMAN-charge/)
data_2022[Cu][tbo]3[FSR]7
_chemical_formula_sum              "Cu12 H48 C72 O60"
_cell_length_a       18.5722
_cell_length_b       18.5722
_cell_length_c       18.5722
_cell_angle_alpha    60
_cell_angle_beta     60
_cell_angle_gamma    60

_symmetry_space_group_name_H-M    "P 1"
_symmetry_Int_Tables_number       1

loop_
  _symmetry_equiv_pos_as_xyz
  'x, y, z'

loop_
  _atom_site_type_symbol
  _atom_site_label
  _atom_site_symmetry_multiplicity
  _atom_site_fract_x
  _atom_site_fract_y
  _atom_site_fract_z
  _atom_site_occupancy
  _atom_site_charge
Cu  Cu1       1.0  0.57058  0.42942  0.00000  1.0000 0.8705428184
Cu  Cu2       1.0  0.42942  0.57058  0.00000  1.0000 0.8705428184
Cu  Cu3       1.0  0.00000  0.00000  0.57058  1.0000 0.8705428184
Cu  Cu4       1.0  0.00000  0.00000  0.42942  1.0000 0.8705428184
Cu  Cu5       1.0  1.00000  0.57058  0.42942  1.0000 0.8705428184
Cu  Cu6       1.0  0.00000  0.42942  0.57058  1.0000 0.8705428184
Cu  Cu7       1.0  0.57058  0.00000  0.00000  1.0000 0.8705428184
Cu  Cu8       1.0  0.42942  0.00000  0.00000  1.0000 0.8705428184
Cu  Cu9       1.0  0.42942  0.00000  0.57058  1.0000 0.8705428184
Cu  Cu10      1.0  0.57058  0.00000  0.42942  1.0000 0.8705428184
Cu  Cu11      1.0  0.00000  0.57058  0.00000  1.0000 0.8705428184
Cu  Cu12      1.0  0.00000  0.42942  0.00000  1.0000 0.8705428184
H   H1        1.0  0.51799  0.73003  0.02195  1.0000 0.1322124839
H   H2        1.0  0.73003  0.51799  0.73003  1.0000 0.1322124839
H   H3        1.0  0.02195  0.73003  0.51799  1.0000 0.1322124839
H   H4        1.0  0.73003  0.02195  0.73003  1.0000 0.1322124839
H   H5        1.0  0.02195  0.51799  0.73003  1.0000 0.1322124839
H   H6        1.0  0.73003  0.73003  0.51799  1.0000 0.1322124839
H   H7        1.0  0.51799  0.02195  0.73003  1.0000 0.1322124839
H   H8        1.0  0.73003  0.73003  0.02195  1.0000 0.1322124839
H   H9        1.0  0.73003  0.02195  0.51799  1.0000 0.1322124839
H   H10       1.0  0.51799  0.73003  0.73003  1.0000 0.1322124839
H   H11       1.0  0.73003  0.51799  0.02195  1.0000 0.1322124839
H   H12       1.0  0.02195  0.73003  0.73003  1.0000 0.1322124839
H   H13       1.0  0.48201  0.26997  0.26997  1.0000 0.1322124839
H   H14       1.0  0.26997  0.48201  0.97805  1.0000 0.1322124839
H   H15       1.0  0.97805  0.26997  0.26997  1.0000 0.1322124839
H   H16       1.0  0.26997  0.97805  0.48201  1.0000 0.1322124839
H   H17       1.0  0.97805  0.48201  0.26997  1.0000 0.1322124839
H   H18       1.0  0.26997  0.26997  0.97805  1.0000 0.1322124839
H   H19       1.0  0.48201  0.97805  0.26997  1.0000 0.1322124839
H   H20       1.0  0.26997  0.26997  0.48201  1.0000 0.1322124839
H   H21       1.0  0.26997  0.97805  0.26997  1.0000 0.1322124839
H   H22       1.0  0.48201  0.26997  0.97805  1.0000 0.1322124839
H   H23       1.0  0.26997  0.48201  0.26997  1.0000 0.1322124839
H   H24       1.0  0.97805  0.26997  0.48201  1.0000 0.1322124839
H   H25       1.0  0.71330  0.28670  0.95890  1.0000 0.4066330135
H   H26       1.0  0.28670  0.71330  0.04110  1.0000 0.4066330135
H   H27       1.0  0.95890  0.04110  0.71330  1.0000 0.4066330135
H   H28       1.0  0.04110  0.95890  0.28670  1.0000 0.4066330135
H   H29       1.0  0.95890  0.71330  0.28670  1.0000 0.4066330135
H   H30       1.0  0.04110  0.28670  0.71330  1.0000 0.4066330135
H   H31       1.0  0.71330  0.95890  0.04110  1.0000 0.4066330135
H   H32       1.0  0.28670  0.04110  0.95890  1.0000 0.4066330135
H   H33       1.0  0.28670  0.95890  0.71330  1.0000 0.4066330135
H   H34       1.0  0.71330  0.04110  0.28670  1.0000 0.4066330135
H   H35       1.0  0.04110  0.71330  0.95890  1.0000 0.4066330135
H   H36       1.0  0.95890  0.28670  0.04110  1.0000 0.4066330135
H   H37       1.0  0.28670  0.71330  0.95890  1.0000 0.4066330135
H   H38       1.0  0.71330  0.28670  0.04110  1.0000 0.4066330135
H   H39       1.0  0.04110  0.95890  0.71330  1.0000 0.4066330135
H   H40       1.0  0.95890  0.04110  0.28670  1.0000 0.4066330135
H   H41       1.0  0.04110  0.28670  0.95890  1.0000 0.4066330135
H   H42       1.0  0.95890  0.71330  0.04110  1.0000 0.4066330135
H   H43       1.0  0.28670  0.04110  0.71330  1.0000 0.4066330135
H   H44       1.0  0.71330  0.95890  0.28670  1.0000 0.4066330135
H   H45       1.0  0.71330  0.04110  0.95890  1.0000 0.4066330135
H   H46       1.0  0.28670  0.95890  0.04110  1.0000 0.4066330135
H   H47       1.0  0.95890  0.28670  0.71330  1.0000 0.4066330135
H   H48       1.0  0.04110  0.71330  0.28670  1.0000 0.4066330135
C   C1        1.0  0.56960  0.56960  0.02340  1.0000 0.5798003614
C   C2        1.0  0.61400  0.61400  0.03080  1.0000 -0.0197420338
C   C3        1.0  0.56960  0.56960  0.83740  1.0000 0.5798003614
C   C4        1.0  0.61400  0.61400  0.74120  1.0000 -0.0197420338
C   C5        1.0  0.02340  0.83740  0.56960  1.0000 0.5798003614
C   C6        1.0  0.03080  0.74120  0.61400  1.0000 -0.0197420338
C   C7        1.0  0.83740  0.02340  0.56960  1.0000 0.5798003614
C   C8        1.0  0.74120  0.03080  0.61400  1.0000 -0.0197420338
C   C9        1.0  0.02340  0.56960  0.56960  1.0000 0.5798003614
C   C10       1.0  0.03080  0.61400  0.61400  1.0000 -0.0197420338
C   C11       1.0  0.83740  0.56960  0.56960  1.0000 0.5798003614
C   C12       1.0  0.74120  0.61400  0.61400  1.0000 -0.0197420338
C   C13       1.0  0.56960  0.02340  0.83740  1.0000 0.5798003614
C   C14       1.0  0.61400  0.03080  0.74120  1.0000 -0.0197420338
C   C15       1.0  0.56960  0.83740  0.02340  1.0000 0.5798003614
C   C16       1.0  0.61400  0.74120  0.03080  1.0000 -0.0197420338
C   C17       1.0  0.56960  0.02340  0.56960  1.0000 0.5798003614
C   C18       1.0  0.61400  0.03080  0.61400  1.0000 -0.0197420338
C   C19       1.0  0.56960  0.83740  0.56960  1.0000 0.5798003614
C   C20       1.0  0.61400  0.74120  0.61400  1.0000 -0.0197420338
C   C21       1.0  0.83740  0.56960  0.02340  1.0000 0.5798003614
C   C22       1.0  0.74120  0.61400  0.03080  1.0000 -0.0197420338
C   C23       1.0  0.02340  0.56960  0.83740  1.0000 0.5798003614
C   C24       1.0  0.03080  0.61400  0.74120  1.0000 -0.0197420338
C   C25       1.0  0.43040  0.43040  0.16260  1.0000 0.5798003614
C   C26       1.0  0.38600  0.38600  0.25880  1.0000 -0.0197420338
C   C27       1.0  0.43040  0.43040  0.97660  1.0000 0.5798003614
C   C28       1.0  0.38600  0.38600  0.96920  1.0000 -0.0197420338
C   C29       1.0  0.97660  0.16260  0.43040  1.0000 0.5798003614
C   C30       1.0  0.96920  0.25880  0.38600  1.0000 -0.0197420338
C   C31       1.0  0.16260  0.97660  0.43040  1.0000 0.5798003614
C   C32       1.0  0.25880  0.96920  0.38600  1.0000 -0.0197420338
C   C33       1.0  0.97660  0.43040  0.16260  1.0000 0.5798003614
C   C34       1.0  0.96920  0.38600  0.25880  1.0000 -0.0197420338
C   C35       1.0  0.16260  0.43040  0.97660  1.0000 0.5798003614
C   C36       1.0  0.25880  0.38600  0.96920  1.0000 -0.0197420338
C   C37       1.0  0.43040  0.97660  0.43040  1.0000 0.5798003614
C   C38       1.0  0.38600  0.96920  0.38600  1.0000 -0.0197420338
C   C39       1.0  0.43040  0.16260  0.43040  1.0000 0.5798003614
C   C40       1.0  0.38600  0.25880  0.38600  1.0000 -0.0197420338
C   C41       1.0  0.43040  0.97660  0.16260  1.0000 0.5798003614
C   C42       1.0  0.38600  0.96920  0.25880  1.0000 -0.0197420338
C   C43       1.0  0.43040  0.16260  0.97660  1.0000 0.5798003614
C   C44       1.0  0.38600  0.25880  0.96920  1.0000 -0.0197420338
C   C45       1.0  0.16260  0.43040  0.43040  1.0000 0.5798003614
C   C46       1.0  0.25880  0.38600  0.38600  1.0000 -0.0197420338
C   C47       1.0  0.97660  0.43040  0.43040  1.0000 0.5798003614
C   C48       1.0  0.96920  0.38600  0.38600  1.0000 -0.0197420338
C   C49       1.0  0.57390  0.69950  0.02710  1.0000 -0.1037075393
C   C50       1.0  0.69950  0.57390  0.69950  1.0000 -0.1037075393
C   C51       1.0  0.02710  0.69950  0.57390  1.0000 -0.1037075393
C   C52       1.0  0.69950  0.02710  0.69950  1.0000 -0.1037075393
C   C53       1.0  0.02710  0.57390  0.69950  1.0000 -0.1037075393
C   C54       1.0  0.69950  0.69950  0.57390  1.0000 -0.1037075393
C   C55       1.0  0.57390  0.02710  0.69950  1.0000 -0.1037075393
C   C56       1.0  0.69950  0.69950  0.02710  1.0000 -0.1037075393
C   C57       1.0  0.69950  0.02710  0.57390  1.0000 -0.1037075393
C   C58       1.0  0.57390  0.69950  0.69950  1.0000 -0.1037075393
C   C59       1.0  0.69950  0.57390  0.02710  1.0000 -0.1037075393
C   C60       1.0  0.02710  0.69950  0.69950  1.0000 -0.1037075393
C   C61       1.0  0.42610  0.30050  0.30050  1.0000 -0.1037075393
C   C62       1.0  0.30050  0.42610  0.97290  1.0000 -0.1037075393
C   C63       1.0  0.97290  0.30050  0.30050  1.0000 -0.1037075393
C   C64       1.0  0.30050  0.97290  0.42610  1.0000 -0.1037075393
C   C65       1.0  0.97290  0.42610  0.30050  1.0000 -0.1037075393
C   C66       1.0  0.30050  0.30050  0.97290  1.0000 -0.1037075393
C   C67       1.0  0.42610  0.97290  0.30050  1.0000 -0.1037075393
C   C68       1.0  0.30050  0.30050  0.42610  1.0000 -0.1037075393
C   C69       1.0  0.30050  0.97290  0.30050  1.0000 -0.1037075393
C   C70       1.0  0.42610  0.30050  0.97290  1.0000 -0.1037075393
C   C71       1.0  0.30050  0.42610  0.30050  1.0000 -0.1037075393
C   C72       1.0  0.97290  0.30050  0.42610  1.0000 -0.1037075393
O   O1        1.0  0.61230  0.49130  0.02210  1.0000 -0.5362795775
O   O2        1.0  0.49130  0.61230  0.87430  1.0000 -0.5362795775
O   O3        1.0  0.02210  0.87430  0.61230  1.0000 -0.5362795775
O   O4        1.0  0.87430  0.02210  0.49130  1.0000 -0.5362795775
O   O5        1.0  0.02210  0.61230  0.49130  1.0000 -0.5362795775
O   O6        1.0  0.87430  0.49130  0.61230  1.0000 -0.5362795775
O   O7        1.0  0.61230  0.02210  0.87430  1.0000 -0.5362795775
O   O8        1.0  0.49130  0.87430  0.02210  1.0000 -0.5362795775
O   O9        1.0  0.49130  0.02210  0.61230  1.0000 -0.5362795775
O   O10       1.0  0.61230  0.87430  0.49130  1.0000 -0.5362795775
O   O11       1.0  0.87430  0.61230  0.02210  1.0000 -0.5362795775
O   O12       1.0  0.02210  0.49130  0.87430  1.0000 -0.5362795775
O   O13       1.0  0.38770  0.50870  0.12570  1.0000 -0.5362795775
O   O14       1.0  0.50870  0.38770  0.97790  1.0000 -0.5362795775
O   O15       1.0  0.97790  0.12570  0.50870  1.0000 -0.5362795775
O   O16       1.0  0.12570  0.97790  0.38770  1.0000 -0.5362795775
O   O17       1.0  0.97790  0.38770  0.12570  1.0000 -0.5362795775
O   O18       1.0  0.12570  0.50870  0.97790  1.0000 -0.5362795775
O   O19       1.0  0.38770  0.97790  0.50870  1.0000 -0.5362795775
O   O20       1.0  0.50870  0.12570  0.38770  1.0000 -0.5362795775
O   O21       1.0  0.50870  0.97790  0.12570  1.0000 -0.5362795775
O   O22       1.0  0.38770  0.12570  0.97790  1.0000 -0.5362795775
O   O23       1.0  0.12570  0.38770  0.50870  1.0000 -0.5362795775
O   O24       1.0  0.97790  0.50870  0.38770  1.0000 -0.5362795775
O   O25       1.0  0.38770  0.50870  0.97790  1.0000 -0.5362795775
O   O26       1.0  0.50870  0.38770  0.12570  1.0000 -0.5362795775
O   O27       1.0  0.97790  0.12570  0.38770  1.0000 -0.5362795775
O   O28       1.0  0.12570  0.97790  0.50870  1.0000 -0.5362795775
O   O29       1.0  0.97790  0.38770  0.50870  1.0000 -0.5362795775
O   O30       1.0  0.12570  0.50870  0.38770  1.0000 -0.5362795775
O   O31       1.0  0.38770  0.97790  0.12570  1.0000 -0.5362795775
O   O32       1.0  0.50870  0.12570  0.97790  1.0000 -0.5362795775
O   O33       1.0  0.50870  0.97790  0.38770  1.0000 -0.5362795775
O   O34       1.0  0.38770  0.12570  0.50870  1.0000 -0.5362795775
O   O35       1.0  0.12570  0.38770  0.97790  1.0000 -0.5362795775
O   O36       1.0  0.97790  0.50870  0.12570  1.0000 -0.5362795775
O   O37       1.0  0.61230  0.49130  0.87430  1.0000 -0.5362795775
O   O38       1.0  0.49130  0.61230  0.02210  1.0000 -0.5362795775
O   O39       1.0  0.02210  0.87430  0.49130  1.0000 -0.5362795775
O   O40       1.0  0.87430  0.02210  0.61230  1.0000 -0.5362795775
O   O41       1.0  0.02210  0.61230  0.87430  1.0000 -0.5362795775
O   O42       1.0  0.87430  0.49130  0.02210  1.0000 -0.5362795775
O   O43       1.0  0.61230  0.02210  0.49130  1.0000 -0.5362795775
O   O44       1.0  0.49130  0.87430  0.61230  1.0000 -0.5362795775
O   O45       1.0  0.49130  0.02210  0.87430  1.0000 -0.5362795775
O   O46       1.0  0.61230  0.87430  0.02210  1.0000 -0.5362795775
O   O47       1.0  0.87430  0.61230  0.49130  1.0000 -0.5362795775
O   O48       1.0  0.02210  0.49130  0.61230  1.0000 -0.5362795775
O   O49       1.0  0.68560  0.31440  0.00000  1.0000 -0.7145068109
O   O50       1.0  0.31440  0.68560  0.00000  1.0000 -0.7162538362
O   O51       1.0  0.00000  0.00000  0.68560  1.0000 -0.7162538362
O   O52       1.0  0.00000  0.00000  0.31440  1.0000 -0.7162538362
O   O53       1.0  0.00000  0.68560  0.31440  1.0000 -0.7162538362
O   O54       1.0  0.00000  0.31440  0.68560  1.0000 -0.7162538362
O   O55       1.0  0.68560  0.00000  0.00000  1.0000 -0.7145068109
O   O56       1.0  0.31440  0.00000  0.00000  1.0000 -0.7145068109
O   O57       1.0  0.31440  0.00000  0.68560  1.0000 -0.7162538362
O   O58       1.0  0.68560  0.00000  0.31440  1.0000 -0.7162538362
O   O59       1.0  0.00000  0.68560  0.00000  1.0000 -0.7162538362
O   O60       1.0  0.00000  0.31440  0.00000  1.0000 -0.7162538362
