# DDEC6 charges by PACMAN v1.1 (https://github.com/mtap-research/PACMAN-charge/)
data_2022[Ce][nan]3[FSR]2
_chemical_formula_sum              "Ce4 H56 C128 O52"
_cell_length_a       31.85
_cell_length_b       31.85
_cell_length_c       4.0652
_cell_angle_alpha    90
_cell_angle_beta     90
_cell_angle_gamma    90

_symmetry_space_group_name_H-M    "P 1"
_symmetry_Int_Tables_number       1

loop_
  _symmetry_equiv_pos_as_xyz
  'x, y, z'

loop_
  _atom_site_type_symbol
  _atom_site_label
  _atom_site_symmetry_multiplicity
  _atom_site_fract_x
  _atom_site_fract_y
  _atom_site_fract_z
  _atom_site_occupancy
  _atom_site_charge
Ce  Ce1       1.0  0.23385  0.23385  0.00000  1.0000 1.9714899317
Ce  Ce2       1.0  0.76615  0.76615  0.00000  1.0000 1.9714899317
Ce  Ce3       1.0  0.73385  0.26615  0.50000  1.0000 1.9714899317
Ce  Ce4       1.0  0.26615  0.73385  0.50000  1.0000 1.9714899317
H   H1        1.0  0.62445  0.28290  0.96572  1.0000 0.3472691581
H   H2        1.0  0.33405  0.16295  0.24064  1.0000 0.12555338
H   H3        1.0  0.39918  0.13701  0.09972  1.0000 0.1220423472
H   H4        1.0  0.39046  0.25831  0.73287  1.0000 0.1387133293
H   H5        1.0  0.55579  0.14960  0.09689  1.0000 0.1220423472
H   H6        1.0  0.61657  0.18798  0.24121  1.0000 0.1220423472
H   H7        1.0  0.54349  0.27411  0.71629  1.0000 0.12555338
H   H8        1.0  0.37555  0.71710  0.96572  1.0000 0.3472691581
H   H9        1.0  0.66595  0.83705  0.24064  1.0000 0.12555338
H   H10       1.0  0.60082  0.86299  0.09972  1.0000 0.1220423472
H   H11       1.0  0.60954  0.74169  0.73287  1.0000 0.1387133293
H   H12       1.0  0.44421  0.85040  0.09689  1.0000 0.12555338
H   H13       1.0  0.38343  0.81202  0.24121  1.0000 0.1220423472
H   H14       1.0  0.45651  0.72589  0.71629  1.0000 0.12555338
H   H15       1.0  0.78290  0.87555  0.46572  1.0000 0.3472691581
H   H16       1.0  0.66295  0.16595  0.74064  1.0000 0.12555338
H   H17       1.0  0.63701  0.10082  0.59972  1.0000 0.1220423472
H   H18       1.0  0.75831  0.10954  0.23287  1.0000 0.1387133293
H   H19       1.0  0.64960  0.94421  0.59689  1.0000 0.12555338
H   H20       1.0  0.68798  0.88343  0.74121  1.0000 0.1220423472
H   H21       1.0  0.77411  0.95651  0.21629  1.0000 0.12555338
H   H22       1.0  0.21710  0.12445  0.46572  1.0000 0.3472691581
H   H23       1.0  0.33705  0.83405  0.74064  1.0000 0.12555338
H   H24       1.0  0.36299  0.89918  0.59972  1.0000 0.1220423472
H   H25       1.0  0.24169  0.89046  0.23287  1.0000 0.1387133293
H   H26       1.0  0.35040  0.05579  0.59689  1.0000 0.1220423472
H   H27       1.0  0.31202  0.11657  0.74121  1.0000 0.1220423472
H   H28       1.0  0.22589  0.04349  0.21629  1.0000 0.12555338
H   H29       1.0  0.12445  0.21710  0.53428  1.0000 0.3472691581
H   H30       1.0  0.83405  0.33705  0.25936  1.0000 0.12555338
H   H31       1.0  0.89918  0.36299  0.40028  1.0000 0.1220423472
H   H32       1.0  0.89046  0.24169  0.76713  1.0000 0.1387133293
H   H33       1.0  0.05579  0.35040  0.40311  1.0000 0.1220423472
H   H34       1.0  0.11657  0.31202  0.25879  1.0000 0.1220423472
H   H35       1.0  0.04349  0.22589  0.78371  1.0000 0.12555338
H   H36       1.0  0.87555  0.78290  0.53428  1.0000 0.3472691581
H   H37       1.0  0.16595  0.66295  0.25936  1.0000 0.12555338
H   H38       1.0  0.10082  0.63701  0.40028  1.0000 0.1220423472
H   H39       1.0  0.10954  0.75831  0.76713  1.0000 0.1387133293
H   H40       1.0  0.94421  0.64960  0.40311  1.0000 0.12555338
H   H41       1.0  0.88343  0.68798  0.25879  1.0000 0.1220423472
H   H42       1.0  0.95651  0.77411  0.78371  1.0000 0.12555338
H   H43       1.0  0.28290  0.62445  0.03428  1.0000 0.3472691581
H   H44       1.0  0.16295  0.33405  0.75936  1.0000 0.12555338
H   H45       1.0  0.13701  0.39918  0.90028  1.0000 0.1220423472
H   H46       1.0  0.25831  0.39046  0.26713  1.0000 0.1387133293
H   H47       1.0  0.14960  0.55579  0.90311  1.0000 0.12555338
H   H48       1.0  0.18798  0.61657  0.75879  1.0000 0.1220423472
H   H49       1.0  0.27411  0.54349  0.28371  1.0000 0.12555338
H   H50       1.0  0.71710  0.37555  0.03428  1.0000 0.3472691581
H   H51       1.0  0.83705  0.66595  0.75936  1.0000 0.12555338
H   H52       1.0  0.86299  0.60082  0.90028  1.0000 0.1220423472
H   H53       1.0  0.74169  0.60954  0.26713  1.0000 0.1387133293
H   H54       1.0  0.85040  0.44421  0.90311  1.0000 0.12555338
H   H55       1.0  0.81202  0.38343  0.75879  1.0000 0.1220423472
H   H56       1.0  0.72589  0.45651  0.28371  1.0000 0.12555338
C   C1        1.0  0.31350  0.22910  0.61300  1.0000 0.5917380482
C   C2        1.0  0.35590  0.21350  0.49900  1.0000 0.0183040212
C   C3        1.0  0.35850  0.17700  0.30800  1.0000 -0.1008452269
C   C4        1.0  0.39750  0.16200  0.22200  1.0000 -0.1008452269
C   C5        1.0  0.43420  0.18230  0.30900  1.0000 -0.038594524
C   C6        1.0  0.43070  0.21960  0.49300  1.0000 -0.0223470011
C   C7        1.0  0.39220  0.23440  0.59700  1.0000 -0.1075980452
C   C8        1.0  0.46900  0.24380  0.60400  1.0000 0.3433409885
C   C9        1.0  0.51060  0.22670  0.49400  1.0000 -0.0100235469
C   C10       1.0  0.51390  0.18950  0.31400  1.0000 -0.0223470011
C   C11       1.0  0.47580  0.16650  0.21500  1.0000 0.3226711109
C   C12       1.0  0.55340  0.17460  0.21800  1.0000 -0.1075980452
C   C13       1.0  0.58990  0.19750  0.30600  1.0000 -0.1008452269
C   C14       1.0  0.58590  0.23450  0.48900  1.0000 -0.038594524
C   C15       1.0  0.54600  0.24950  0.59000  1.0000 -0.1494592604
C   C16       1.0  0.62450  0.25910  0.59500  1.0000 0.5618403807
C   C17       1.0  0.68650  0.77090  0.61300  1.0000 0.5917380482
C   C18       1.0  0.64410  0.78650  0.49900  1.0000 0.0183040212
C   C19       1.0  0.64150  0.82300  0.30800  1.0000 -0.1008452269
C   C20       1.0  0.60250  0.83800  0.22200  1.0000 -0.1008452269
C   C21       1.0  0.56580  0.81770  0.30900  1.0000 -0.038594524
C   C22       1.0  0.56930  0.78040  0.49300  1.0000 -0.0223470011
C   C23       1.0  0.60780  0.76560  0.59700  1.0000 -0.1075980452
C   C24       1.0  0.53100  0.75620  0.60400  1.0000 0.3433409885
C   C25       1.0  0.48940  0.77330  0.49400  1.0000 -0.0100235469
C   C26       1.0  0.48610  0.81050  0.31400  1.0000 -0.0223470011
C   C27       1.0  0.52420  0.83350  0.21500  1.0000 0.3226711109
C   C28       1.0  0.44660  0.82540  0.21800  1.0000 -0.1075980452
C   C29       1.0  0.41010  0.80250  0.30600  1.0000 -0.1008452269
C   C30       1.0  0.41410  0.76550  0.48900  1.0000 -0.038594524
C   C31       1.0  0.45400  0.75050  0.59000  1.0000 -0.1494592604
C   C32       1.0  0.37550  0.74090  0.59500  1.0000 0.5618403807
C   C33       1.0  0.72910  0.18650  0.11300  1.0000 0.5917380482
C   C34       1.0  0.71350  0.14410  0.99900  1.0000 0.0183040212
C   C35       1.0  0.67700  0.14150  0.80800  1.0000 -0.1008452269
C   C36       1.0  0.66200  0.10250  0.72200  1.0000 -0.1008452269
C   C37       1.0  0.68230  0.06580  0.80900  1.0000 -0.038594524
C   C38       1.0  0.71960  0.06930  0.99300  1.0000 -0.0223470011
C   C39       1.0  0.73440  0.10780  0.09700  1.0000 -0.1075980452
C   C40       1.0  0.74380  0.03100  0.10400  1.0000 0.3433409885
C   C41       1.0  0.72670  0.98940  0.99400  1.0000 -0.0100235469
C   C42       1.0  0.68950  0.98610  0.81400  1.0000 -0.0223470011
C   C43       1.0  0.66650  0.02420  0.71500  1.0000 0.3226711109
C   C44       1.0  0.67460  0.94660  0.71800  1.0000 -0.1075980452
C   C45       1.0  0.69750  0.91010  0.80600  1.0000 -0.1075980452
C   C46       1.0  0.73450  0.91410  0.98900  1.0000 -0.038594524
C   C47       1.0  0.74950  0.95400  0.09000  1.0000 -0.1494592604
C   C48       1.0  0.75910  0.87550  0.09500  1.0000 0.5618403807
C   C49       1.0  0.27090  0.81350  0.11300  1.0000 0.5917380482
C   C50       1.0  0.28650  0.85590  0.99900  1.0000 0.0183040212
C   C51       1.0  0.32300  0.85850  0.80800  1.0000 -0.1008452269
C   C52       1.0  0.33800  0.89750  0.72200  1.0000 -0.1008452269
C   C53       1.0  0.31770  0.93420  0.80900  1.0000 -0.038594524
C   C54       1.0  0.28040  0.93070  0.99300  1.0000 -0.0223470011
C   C55       1.0  0.26560  0.89220  0.09700  1.0000 -0.1075980452
C   C56       1.0  0.25620  0.96900  0.10400  1.0000 0.3433409885
C   C57       1.0  0.27330  0.01060  0.99400  1.0000 -0.0100235469
C   C58       1.0  0.31050  0.01390  0.81400  1.0000 -0.0223470011
C   C59       1.0  0.33350  0.97580  0.71500  1.0000 0.3226711109
C   C60       1.0  0.32540  0.05340  0.71800  1.0000 -0.1075980452
C   C61       1.0  0.30250  0.08990  0.80600  1.0000 -0.1075980452
C   C62       1.0  0.26550  0.08590  0.98900  1.0000 -0.038594524
C   C63       1.0  0.25050  0.04600  0.09000  1.0000 -0.1494592604
C   C64       1.0  0.24090  0.12450  0.09500  1.0000 0.5618403807
C   C65       1.0  0.81350  0.27090  0.88700  1.0000 0.5917380482
C   C66       1.0  0.85590  0.28650  0.00100  1.0000 0.0183040212
C   C67       1.0  0.85850  0.32300  0.19200  1.0000 -0.1008452269
C   C68       1.0  0.89750  0.33800  0.27800  1.0000 -0.1008452269
C   C69       1.0  0.93420  0.31770  0.19100  1.0000 -0.038594524
C   C70       1.0  0.93070  0.28040  0.00700  1.0000 -0.0223470011
C   C71       1.0  0.89220  0.26560  0.90300  1.0000 -0.1075980452
C   C72       1.0  0.96900  0.25620  0.89600  1.0000 0.3433409885
C   C73       1.0  0.01060  0.27330  0.00600  1.0000 -0.0100235469
C   C74       1.0  0.01390  0.31050  0.18600  1.0000 -0.0223470011
C   C75       1.0  0.97580  0.33350  0.28500  1.0000 0.3226711109
C   C76       1.0  0.05340  0.32540  0.28200  1.0000 -0.1075980452
C   C77       1.0  0.08990  0.30250  0.19400  1.0000 -0.1075980452
C   C78       1.0  0.08590  0.26550  0.01100  1.0000 -0.038594524
C   C79       1.0  0.04600  0.25050  0.91000  1.0000 -0.1494592604
C   C80       1.0  0.12450  0.24090  0.90500  1.0000 0.5618403807
C   C81       1.0  0.18650  0.72910  0.88700  1.0000 0.5917380482
C   C82       1.0  0.14410  0.71350  0.00100  1.0000 0.0183040212
C   C83       1.0  0.14150  0.67700  0.19200  1.0000 -0.1008452269
C   C84       1.0  0.10250  0.66200  0.27800  1.0000 -0.1008452269
C   C85       1.0  0.06580  0.68230  0.19100  1.0000 -0.038594524
C   C86       1.0  0.06930  0.71960  0.00700  1.0000 -0.0223470011
C   C87       1.0  0.10780  0.73440  0.90300  1.0000 -0.1075980452
C   C88       1.0  0.03100  0.74380  0.89600  1.0000 0.3433409885
C   C89       1.0  0.98940  0.72670  0.00600  1.0000 -0.0100235469
C   C90       1.0  0.98610  0.68950  0.18600  1.0000 -0.0223470011
C   C91       1.0  0.02420  0.66650  0.28500  1.0000 0.3226711109
C   C92       1.0  0.94660  0.67460  0.28200  1.0000 -0.1075980452
C   C93       1.0  0.91010  0.69750  0.19400  1.0000 -0.1075980452
C   C94       1.0  0.91410  0.73450  0.01100  1.0000 -0.038594524
C   C95       1.0  0.95400  0.74950  0.91000  1.0000 -0.1494592604
C   C96       1.0  0.87550  0.75910  0.90500  1.0000 0.5618403807
C   C97       1.0  0.22910  0.31350  0.38700  1.0000 0.5917380482
C   C98       1.0  0.21350  0.35590  0.50100  1.0000 0.0183040212
C   C99       1.0  0.17700  0.35850  0.69200  1.0000 -0.1008452269
C   C100      1.0  0.16200  0.39750  0.77800  1.0000 -0.1008452269
C   C101      1.0  0.18230  0.43420  0.69100  1.0000 -0.038594524
C   C102      1.0  0.21960  0.43070  0.50700  1.0000 -0.0223470011
C   C103      1.0  0.23440  0.39220  0.40300  1.0000 -0.1075980452
C   C104      1.0  0.24380  0.46900  0.39600  1.0000 0.3433409885
C   C105      1.0  0.22670  0.51060  0.50600  1.0000 -0.0100235469
C   C106      1.0  0.18950  0.51390  0.68600  1.0000 -0.0223470011
C   C107      1.0  0.16650  0.47580  0.78500  1.0000 0.3226711109
C   C108      1.0  0.17460  0.55340  0.78200  1.0000 -0.1075980452
C   C109      1.0  0.19750  0.58990  0.69400  1.0000 -0.1075980452
C   C110      1.0  0.23450  0.58590  0.51100  1.0000 -0.038594524
C   C111      1.0  0.24950  0.54600  0.41000  1.0000 -0.1494592604
C   C112      1.0  0.25910  0.62450  0.40500  1.0000 0.5618403807
C   C113      1.0  0.77090  0.68650  0.38700  1.0000 0.5917380482
C   C114      1.0  0.78650  0.64410  0.50100  1.0000 0.0183040212
C   C115      1.0  0.82300  0.64150  0.69200  1.0000 -0.1008452269
C   C116      1.0  0.83800  0.60250  0.77800  1.0000 -0.1008452269
C   C117      1.0  0.81770  0.56580  0.69100  1.0000 -0.038594524
C   C118      1.0  0.78040  0.56930  0.50700  1.0000 -0.0223470011
C   C119      1.0  0.76560  0.60780  0.40300  1.0000 -0.1075980452
C   C120      1.0  0.75620  0.53100  0.39600  1.0000 0.3433409885
C   C121      1.0  0.77330  0.48940  0.50600  1.0000 -0.0100235469
C   C122      1.0  0.81050  0.48610  0.68600  1.0000 -0.0223470011
C   C123      1.0  0.83350  0.52420  0.78500  1.0000 0.3226711109
C   C124      1.0  0.82540  0.44660  0.78200  1.0000 -0.1075980452
C   C125      1.0  0.80250  0.41010  0.69400  1.0000 -0.1008452269
C   C126      1.0  0.76550  0.41410  0.51100  1.0000 -0.038594524
C   C127      1.0  0.75050  0.45400  0.41000  1.0000 -0.1494592604
C   C128      1.0  0.74090  0.37550  0.40500  1.0000 0.5618403807
O   O1        1.0  0.28068  0.21660  0.47300  1.0000 -0.6340128079
O   O2        1.0  0.31250  0.25360  0.86040  1.0000 -0.5492173851
O   O3        1.0  0.65907  0.24650  0.48600  1.0000 -0.5585023806
O   O4        1.0  0.61930  0.28950  0.77200  1.0000 -0.3518675036
O   O5        1.0  0.47820  0.13530  0.03900  1.0000 -0.3518675036
O   O6        1.0  0.46630  0.27380  0.78400  1.0000 -0.3415883154
O   O7        1.0  0.71932  0.78340  0.47300  1.0000 -0.6340128079
O   O8        1.0  0.68750  0.74640  0.86040  1.0000 -0.5492173851
O   O9        1.0  0.34093  0.75350  0.48600  1.0000 -0.5585023806
O   O10       1.0  0.38070  0.71050  0.77200  1.0000 -0.3518675036
O   O11       1.0  0.52180  0.86470  0.03900  1.0000 -0.3518675036
O   O12       1.0  0.53370  0.72620  0.78400  1.0000 -0.3415883154
O   O13       1.0  0.71660  0.21932  0.97300  1.0000 -0.6340128079
O   O14       1.0  0.75360  0.18750  0.36040  1.0000 -0.5492173851
O   O15       1.0  0.74650  0.84093  0.98600  1.0000 -0.5585023806
O   O16       1.0  0.78950  0.88070  0.27200  1.0000 -0.3518675036
O   O17       1.0  0.63530  0.02180  0.53900  1.0000 -0.3518675036
O   O18       1.0  0.77380  0.03370  0.28400  1.0000 -0.3415883154
O   O19       1.0  0.28340  0.78068  0.97300  1.0000 -0.6340128079
O   O20       1.0  0.24640  0.81250  0.36040  1.0000 -0.5492173851
O   O21       1.0  0.25350  0.15907  0.98600  1.0000 -0.5585023806
O   O22       1.0  0.21050  0.11930  0.27200  1.0000 -0.3518675036
O   O23       1.0  0.36470  0.97820  0.53900  1.0000 -0.3551930234
O   O24       1.0  0.22620  0.96630  0.28400  1.0000 -0.3415883154
O   O25       1.0  0.78068  0.28340  0.02700  1.0000 -0.6340128079
O   O26       1.0  0.81250  0.24640  0.63960  1.0000 -0.5492173851
O   O27       1.0  0.15907  0.25350  0.01400  1.0000 -0.5585023806
O   O28       1.0  0.11930  0.21050  0.72800  1.0000 -0.3518675036
O   O29       1.0  0.97820  0.36470  0.46100  1.0000 -0.3551930234
O   O30       1.0  0.96630  0.22620  0.71600  1.0000 -0.3415883154
O   O31       1.0  0.21932  0.71660  0.02700  1.0000 -0.6340128079
O   O32       1.0  0.18750  0.75360  0.63960  1.0000 -0.5492173851
O   O33       1.0  0.84093  0.74650  0.01400  1.0000 -0.5585023806
O   O34       1.0  0.88070  0.78950  0.72800  1.0000 -0.3518675036
O   O35       1.0  0.02180  0.63530  0.46100  1.0000 -0.3518675036
O   O36       1.0  0.03370  0.77380  0.71600  1.0000 -0.3415883154
O   O37       1.0  0.21660  0.28068  0.52700  1.0000 -0.6340128079
O   O38       1.0  0.25360  0.31250  0.13960  1.0000 -0.5492173851
O   O39       1.0  0.24650  0.65907  0.51400  1.0000 -0.5585023806
O   O40       1.0  0.28950  0.61930  0.22800  1.0000 -0.3518675036
O   O41       1.0  0.13530  0.47820  0.96100  1.0000 -0.3518675036
O   O42       1.0  0.27380  0.46630  0.21600  1.0000 -0.3415883154
O   O43       1.0  0.78340  0.71932  0.52700  1.0000 -0.6340128079
O   O44       1.0  0.74640  0.68750  0.13960  1.0000 -0.5492173851
O   O45       1.0  0.75350  0.34093  0.51400  1.0000 -0.5585023806
O   O46       1.0  0.71050  0.38070  0.22800  1.0000 -0.3518675036
O   O47       1.0  0.86470  0.52180  0.96100  1.0000 -0.3518675036
O   O48       1.0  0.72620  0.53370  0.21600  1.0000 -0.3415883154
O   O49       1.0  0.19644  0.19644  0.50000  1.0000 -0.6738495673
O   O50       1.0  0.80356  0.80356  0.50000  1.0000 -0.6812095687
O   O51       1.0  0.69644  0.30356  0.00000  1.0000 -0.6738495673
O   O52       1.0  0.30356  0.69644  0.00000  1.0000 -0.6738495673
