# DDEC6 charges by PACMAN v1.1 (https://github.com/mtap-research/PACMAN-charge/)
data_2022[Zn][nan]3[FSR]1
_chemical_formula_sum              "Zn6 H16 C28 N12 O12"
_cell_length_a       11.037
_cell_length_b       11.037
_cell_length_c       11.1013
_cell_angle_alpha    87.1162
_cell_angle_beta     92.8838
_cell_angle_gamma    108.55

_symmetry_space_group_name_H-M    "P 1"
_symmetry_Int_Tables_number       1

loop_
  _symmetry_equiv_pos_as_xyz
  'x, y, z'

loop_
  _atom_site_type_symbol
  _atom_site_label
  _atom_site_symmetry_multiplicity
  _atom_site_fract_x
  _atom_site_fract_y
  _atom_site_fract_z
  _atom_site_occupancy
  _atom_site_charge
Zn  Zn1       1.0  0.13160  0.97038  0.50139  1.0000 0.8245522592
Zn  Zn2       1.0  0.97038  0.13160  0.99861  1.0000 0.8245522592
Zn  Zn3       1.0  0.86840  0.02962  0.49861  1.0000 0.8245522592
Zn  Zn4       1.0  0.02962  0.86840  0.00139  1.0000 0.8245522592
Zn  Zn5       1.0  0.10289  0.10289  0.75000  1.0000 0.8807860825
Zn  Zn6       1.0  0.89711  0.89711  0.25000  1.0000 0.8807860825
H   H1        1.0  0.56482  0.06274  0.56566  1.0000 0.1387221206
H   H2        1.0  0.11148  0.18654  0.52874  1.0000 0.3944894735
H   H3        1.0  0.45480  0.12668  0.89198  1.0000 0.1195095319
H   H4        1.0  0.64655  0.12685  0.98248  1.0000 0.1387221206
H   H5        1.0  0.06274  0.56482  0.93434  1.0000 0.1387221206
H   H6        1.0  0.18654  0.11148  0.97126  1.0000 0.3944894735
H   H7        1.0  0.12668  0.45480  0.60802  1.0000 0.1195095319
H   H8        1.0  0.12685  0.64655  0.51752  1.0000 0.1387221206
H   H9        1.0  0.43518  0.93726  0.43434  1.0000 0.1387221206
H   H10       1.0  0.88852  0.81346  0.47126  1.0000 0.3944894735
H   H11       1.0  0.54520  0.87332  0.10802  1.0000 0.1195095319
H   H12       1.0  0.35345  0.87315  0.01752  1.0000 0.1387221206
H   H13       1.0  0.93726  0.43518  0.06566  1.0000 0.1387221206
H   H14       1.0  0.81346  0.88852  0.02874  1.0000 0.3944894735
H   H15       1.0  0.87332  0.54520  0.39198  1.0000 0.1195095319
H   H16       1.0  0.87315  0.35345  0.48248  1.0000 0.1387221206
C   C1        1.0  0.69980  0.07700  0.70380  1.0000 0.1195095319
C   C2        1.0  0.58100  0.07500  0.64790  1.0000 -0.1565539476
C   C3        1.0  0.49130  0.09170  0.72010  1.0000 -0.0182027483
C   C4        1.0  0.51720  0.11340  0.84600  1.0000 -0.1123515435
C   C5        1.0  0.35890  0.08790  0.66990  1.0000 0.5880026135
C   C6        1.0  0.72320  0.09820  0.82660  1.0000 0.1195095319
C   C7        1.0  0.63080  0.11500  0.90010  1.0000 -0.1729836215
C   C8        1.0  0.07700  0.69980  0.79620  1.0000 0.1195095319
C   C9        1.0  0.07500  0.58100  0.85210  1.0000 -0.1565539476
C   C10       1.0  0.09170  0.49130  0.77990  1.0000 -0.0182027483
C   C11       1.0  0.11340  0.51720  0.65400  1.0000 -0.1123515435
C   C12       1.0  0.08790  0.35890  0.83010  1.0000 0.5880026135
C   C13       1.0  0.09820  0.72320  0.67340  1.0000 0.1195095319
C   C14       1.0  0.11500  0.63080  0.59990  1.0000 -0.1729836215
C   C15       1.0  0.30020  0.92300  0.29620  1.0000 0.1195095319
C   C16       1.0  0.41900  0.92500  0.35210  1.0000 -0.1565539476
C   C17       1.0  0.50870  0.90830  0.27990  1.0000 -0.0182027483
C   C18       1.0  0.48280  0.88660  0.15400  1.0000 -0.1123515435
C   C19       1.0  0.64110  0.91210  0.33010  1.0000 0.5880026135
C   C20       1.0  0.27680  0.90180  0.17340  1.0000 0.1195095319
C   C21       1.0  0.36920  0.88500  0.09990  1.0000 -0.1729836215
C   C22       1.0  0.92300  0.30020  0.20380  1.0000 0.1195095319
C   C23       1.0  0.92500  0.41900  0.14790  1.0000 -0.1565539476
C   C24       1.0  0.90830  0.50870  0.22010  1.0000 -0.0182027483
C   C25       1.0  0.88660  0.48280  0.34600  1.0000 -0.1123515435
C   C26       1.0  0.91210  0.64110  0.16990  1.0000 0.5880026135
C   C27       1.0  0.90180  0.27680  0.32660  1.0000 0.1195095319
C   C28       1.0  0.88500  0.36920  0.40010  1.0000 -0.1729836215
N   N1        1.0  0.84338  0.09462  0.85460  1.0000 -0.2303294886
N   N2        1.0  0.89177  0.07303  0.75360  1.0000 -0.0272725795
N   N3        1.0  0.80830  0.06230  0.66030  1.0000 -0.2249029812
N   N4        1.0  0.09462  0.84338  0.64540  1.0000 -0.2303294886
N   N5        1.0  0.07303  0.89177  0.74640  1.0000 -0.0272725795
N   N6        1.0  0.06230  0.80830  0.83970  1.0000 -0.2249029812
N   N7        1.0  0.15662  0.90538  0.14540  1.0000 -0.2303294886
N   N8        1.0  0.10823  0.92697  0.24640  1.0000 -0.0272725795
N   N9        1.0  0.19170  0.93770  0.33970  1.0000 -0.2249029812
N   N10       1.0  0.90538  0.15662  0.35460  1.0000 -0.2303294886
N   N11       1.0  0.92697  0.10823  0.25360  1.0000 -0.0272725795
N   N12       1.0  0.93770  0.19170  0.16030  1.0000 -0.2249029812
O   O1        1.0  0.06833  0.10227  0.56580  1.0000 -0.825873473
O   O2        1.0  0.32584  0.04376  0.56710  1.0000 -0.564352506
O   O3        1.0  0.29427  0.12793  0.73860  1.0000 -0.5505873349
O   O4        1.0  0.10227  0.06833  0.93420  1.0000 -0.825873473
O   O5        1.0  0.04376  0.32584  0.93290  1.0000 -0.564352506
O   O6        1.0  0.12793  0.29427  0.76140  1.0000 -0.5505873349
O   O7        1.0  0.93167  0.89773  0.43420  1.0000 -0.825873473
O   O8        1.0  0.67416  0.95624  0.43290  1.0000 -0.564352506
O   O9        1.0  0.70573  0.87207  0.26140  1.0000 -0.5505873349
O   O10       1.0  0.89773  0.93167  0.06580  1.0000 -0.825873473
O   O11       1.0  0.95624  0.67416  0.06710  1.0000 -0.564352506
O   O12       1.0  0.87207  0.70573  0.23860  1.0000 -0.5505873349
