# DDEC6 charges by PACMAN v1.1 (https://github.com/mtap-research/PACMAN-charge/)
data_2022[Ni][nan]3[FSR]4
_chemical_formula_sum              "Ni9 H96 C108 N6 O48"
_cell_length_a       18.8639
_cell_length_b       18.8639
_cell_length_c       18.8639
_cell_angle_alpha    113.266
_cell_angle_beta     113.266
_cell_angle_gamma    113.266

_symmetry_space_group_name_H-M    "P 1"
_symmetry_Int_Tables_number       1

loop_
  _symmetry_equiv_pos_as_xyz
  'x, y, z'

loop_
  _atom_site_type_symbol
  _atom_site_label
  _atom_site_symmetry_multiplicity
  _atom_site_fract_x
  _atom_site_fract_y
  _atom_site_fract_z
  _atom_site_occupancy
  _atom_site_charge
Ni  Ni1       1.0  0.88710  0.59489  0.92590  1.0000 0.9340626838
Ni  Ni2       1.0  0.59489  0.92590  0.88710  1.0000 0.9340626838
Ni  Ni3       1.0  0.92590  0.88710  0.59489  1.0000 0.9340626838
Ni  Ni4       1.0  0.11290  0.40511  0.07410  1.0000 0.9340626838
Ni  Ni5       1.0  0.40511  0.07410  0.11290  1.0000 0.9340626838
Ni  Ni6       1.0  0.07410  0.11290  0.40511  1.0000 0.9340626838
Ni  Ni7       1.0  0.00000  0.00000  0.50000  1.0000 1.014054382
Ni  Ni8       1.0  0.00000  0.50000  0.00000  1.0000 1.014054382
Ni  Ni9       1.0  0.50000  0.00000  0.00000  1.0000 1.014054382
H   H1        1.0  0.72970  0.50210  0.72810  1.0000 0.4124910823
H   H2        1.0  0.76610  0.44260  0.71670  1.0000 0.3989263417
H   H3        1.0  0.62030  0.40120  0.85380  1.0000 0.1122338118
H   H4        1.0  0.47290  0.28910  0.81480  1.0000 0.1122338118
H   H5        1.0  0.56550  0.13850  0.85150  1.0000 0.119597531
H   H6        1.0  0.71200  0.24960  0.88730  1.0000 0.1122338118
H   H7        1.0  0.31160  0.12160  0.70950  1.0000 0.119597531
H   H8        1.0  0.21200  0.02840  0.83300  1.0000 0.1257606823
H   H9        1.0  0.49450  0.14500  0.93820  1.0000 0.1257606823
H   H10       1.0  0.79380  0.62780  0.00720  1.0000 0.1017054709
H   H11       1.0  0.87070  0.83240  0.02270  1.0000 0.1404433863
H   H12       1.0  0.78720  0.83150  0.02220  1.0000 0.1404433863
H   H13       1.0  0.89520  0.89680  0.12580  1.0000 0.1484760286
H   H14       1.0  0.74850  0.68110  0.09550  1.0000 0.1404433863
H   H15       1.0  0.83540  0.79960  0.18230  1.0000 0.1484760286
H   H16       1.0  0.72710  0.75290  0.09370  1.0000 0.1404433863
H   H17       1.0  0.50210  0.72810  0.72970  1.0000 0.4124910823
H   H18       1.0  0.44260  0.71670  0.76610  1.0000 0.3989263417
H   H19       1.0  0.40120  0.85380  0.62030  1.0000 0.1122338118
H   H20       1.0  0.28910  0.81480  0.47290  1.0000 0.1122338118
H   H21       1.0  0.13850  0.85150  0.56550  1.0000 0.119597531
H   H22       1.0  0.24960  0.88730  0.71200  1.0000 0.1122338118
H   H23       1.0  0.12160  0.70950  0.31160  1.0000 0.119597531
H   H24       1.0  0.02840  0.83300  0.21200  1.0000 0.1257606823
H   H25       1.0  0.14500  0.93820  0.49450  1.0000 0.1257606823
H   H26       1.0  0.62780  0.00720  0.79380  1.0000 0.1017054709
H   H27       1.0  0.83240  0.02270  0.87070  1.0000 0.1404433863
H   H28       1.0  0.83150  0.02220  0.78720  1.0000 0.1404433863
H   H29       1.0  0.89680  0.12580  0.89520  1.0000 0.1484760286
H   H30       1.0  0.68110  0.09550  0.74850  1.0000 0.1404433863
H   H31       1.0  0.79960  0.18230  0.83540  1.0000 0.1484760286
H   H32       1.0  0.75290  0.09370  0.72710  1.0000 0.1404433863
H   H33       1.0  0.72810  0.72970  0.50210  1.0000 0.4124910823
H   H34       1.0  0.71670  0.76610  0.44260  1.0000 0.3989263417
H   H35       1.0  0.85380  0.62030  0.40120  1.0000 0.1122338118
H   H36       1.0  0.81480  0.47290  0.28910  1.0000 0.1122338118
H   H37       1.0  0.85150  0.56550  0.13850  1.0000 0.119597531
H   H38       1.0  0.88730  0.71200  0.24960  1.0000 0.1122338118
H   H39       1.0  0.70950  0.31160  0.12160  1.0000 0.119597531
H   H40       1.0  0.83300  0.21200  0.02840  1.0000 0.1257606823
H   H41       1.0  0.93820  0.49450  0.14500  1.0000 0.1257606823
H   H42       1.0  0.00720  0.79380  0.62780  1.0000 0.1017054709
H   H43       1.0  0.02270  0.87070  0.83240  1.0000 0.1404433863
H   H44       1.0  0.02220  0.78720  0.83150  1.0000 0.1404433863
H   H45       1.0  0.12580  0.89520  0.89680  1.0000 0.1484760286
H   H46       1.0  0.09550  0.74850  0.68110  1.0000 0.1404433863
H   H47       1.0  0.18230  0.83540  0.79960  1.0000 0.1484760286
H   H48       1.0  0.09370  0.72710  0.75290  1.0000 0.1404433863
H   H49       1.0  0.27030  0.49790  0.27190  1.0000 0.4124910823
H   H50       1.0  0.23390  0.55740  0.28330  1.0000 0.3989263417
H   H51       1.0  0.37970  0.59880  0.14620  1.0000 0.1122338118
H   H52       1.0  0.52710  0.71090  0.18520  1.0000 0.1122338118
H   H53       1.0  0.43450  0.86150  0.14850  1.0000 0.119597531
H   H54       1.0  0.28800  0.75040  0.11270  1.0000 0.1122338118
H   H55       1.0  0.68840  0.87840  0.29050  1.0000 0.119597531
H   H56       1.0  0.78800  0.97160  0.16700  1.0000 0.1257606823
H   H57       1.0  0.50550  0.85500  0.06180  1.0000 0.1257606823
H   H58       1.0  0.20620  0.37220  0.99280  1.0000 0.1017054709
H   H59       1.0  0.12930  0.16760  0.97730  1.0000 0.1404433863
H   H60       1.0  0.21280  0.16850  0.97780  1.0000 0.1404433863
H   H61       1.0  0.10480  0.10320  0.87420  1.0000 0.1484760286
H   H62       1.0  0.25150  0.31890  0.90450  1.0000 0.1404433863
H   H63       1.0  0.16460  0.20040  0.81770  1.0000 0.1484760286
H   H64       1.0  0.27290  0.24710  0.90630  1.0000 0.1404433863
H   H65       1.0  0.49790  0.27190  0.27030  1.0000 0.4124910823
H   H66       1.0  0.55740  0.28330  0.23390  1.0000 0.3989263417
H   H67       1.0  0.59880  0.14620  0.37970  1.0000 0.1122338118
H   H68       1.0  0.71090  0.18520  0.52710  1.0000 0.1122338118
H   H69       1.0  0.86150  0.14850  0.43450  1.0000 0.119597531
H   H70       1.0  0.75040  0.11270  0.28800  1.0000 0.1122338118
H   H71       1.0  0.87840  0.29050  0.68840  1.0000 0.119597531
H   H72       1.0  0.97160  0.16700  0.78800  1.0000 0.1257606823
H   H73       1.0  0.85500  0.06180  0.50550  1.0000 0.1257606823
H   H74       1.0  0.37220  0.99280  0.20620  1.0000 0.1017054709
H   H75       1.0  0.16760  0.97730  0.12930  1.0000 0.1404433863
H   H76       1.0  0.16850  0.97780  0.21280  1.0000 0.1404433863
H   H77       1.0  0.10320  0.87420  0.10480  1.0000 0.1484760286
H   H78       1.0  0.31890  0.90450  0.25150  1.0000 0.1404433863
H   H79       1.0  0.20040  0.81770  0.16460  1.0000 0.1484760286
H   H80       1.0  0.24710  0.90630  0.27290  1.0000 0.1404433863
H   H81       1.0  0.27190  0.27030  0.49790  1.0000 0.4124910823
H   H82       1.0  0.28330  0.23390  0.55740  1.0000 0.3989263417
H   H83       1.0  0.14620  0.37970  0.59880  1.0000 0.1122338118
H   H84       1.0  0.18520  0.52710  0.71090  1.0000 0.1122338118
H   H85       1.0  0.14850  0.43450  0.86150  1.0000 0.119597531
H   H86       1.0  0.11270  0.28800  0.75040  1.0000 0.1122338118
H   H87       1.0  0.29050  0.68840  0.87840  1.0000 0.119597531
H   H88       1.0  0.16700  0.78800  0.97160  1.0000 0.1257606823
H   H89       1.0  0.06180  0.50550  0.85500  1.0000 0.1257606823
H   H90       1.0  0.99280  0.20620  0.37220  1.0000 0.1017054709
H   H91       1.0  0.97730  0.12930  0.16760  1.0000 0.1404433863
H   H92       1.0  0.97780  0.21280  0.16850  1.0000 0.1404433863
H   H93       1.0  0.87420  0.10480  0.10320  1.0000 0.1484760286
H   H94       1.0  0.90450  0.25150  0.31890  1.0000 0.1404433863
H   H95       1.0  0.81770  0.16460  0.20040  1.0000 0.1484760286
H   H96       1.0  0.90630  0.27290  0.24710  1.0000 0.1404433863
C   C1        1.0  0.78326  0.41854  0.91140  1.0000 0.5757140161
C   C2        1.0  0.68420  0.33975  0.87865  1.0000 -0.0271409872
C   C3        1.0  0.61005  0.34915  0.85460  1.0000 -0.1121777354
C   C4        1.0  0.52199  0.28252  0.83199  1.0000 -0.1540883017
C   C5        1.0  0.50560  0.20472  0.83468  1.0000 0.0795489939
C   C6        1.0  0.57704  0.19220  0.85346  1.0000 -0.1377440434
C   C7        1.0  0.66500  0.25908  0.87502  1.0000 -0.100420302
C   C8        1.0  0.41826  0.14497  0.82637  1.0000 0.0691452701
C   C9        1.0  0.32279  0.11267  0.75674  1.0000 -0.1540883017
C   C10       1.0  0.24506  0.06752  0.75782  1.0000 -0.0271409872
C   C11       1.0  0.26291  0.05617  0.83022  1.0000 -0.1377440434
C   C12       1.0  0.35623  0.08609  0.89778  1.0000 -0.0134411617
C   C13       1.0  0.43319  0.12818  0.89483  1.0000 -0.1377440434
C   C14       1.0  0.14068  0.02835  0.68147  1.0000 0.5692395411
C   C15       1.0  0.37366  0.07808  0.97716  1.0000 0.5564732196
C   C16       1.0  0.81070  0.67780  0.00180  1.0000 0.2765206438
C   C17       1.0  0.84320  0.83460  0.05610  1.0000 -0.3211242962
C   C18       1.0  0.77720  0.74510  0.11080  1.0000 -0.3343372502
C   C19       1.0  0.41854  0.91140  0.78326  1.0000 0.5757140161
C   C20       1.0  0.33975  0.87865  0.68420  1.0000 -0.0271409872
C   C21       1.0  0.34915  0.85460  0.61005  1.0000 -0.1121777354
C   C22       1.0  0.28252  0.83199  0.52199  1.0000 -0.1540883017
C   C23       1.0  0.20472  0.83468  0.50560  1.0000 0.0795489939
C   C24       1.0  0.19220  0.85346  0.57704  1.0000 -0.1377440434
C   C25       1.0  0.25908  0.87502  0.66500  1.0000 -0.100420302
C   C26       1.0  0.14497  0.82637  0.41826  1.0000 0.0691452701
C   C27       1.0  0.11267  0.75674  0.32279  1.0000 -0.1540883017
C   C28       1.0  0.06752  0.75782  0.24506  1.0000 -0.0271409872
C   C29       1.0  0.05617  0.83022  0.26291  1.0000 -0.1377440434
C   C30       1.0  0.08609  0.89778  0.35623  1.0000 -0.0134411617
C   C31       1.0  0.12818  0.89483  0.43319  1.0000 -0.1377440434
C   C32       1.0  0.02835  0.68147  0.14068  1.0000 0.5692395411
C   C33       1.0  0.07808  0.97716  0.37366  1.0000 0.5564732196
C   C34       1.0  0.67780  0.00180  0.81070  1.0000 0.2765206438
C   C35       1.0  0.83460  0.05610  0.84320  1.0000 -0.3211242962
C   C36       1.0  0.74510  0.11080  0.77720  1.0000 -0.3343372502
C   C37       1.0  0.91140  0.78326  0.41854  1.0000 0.5757140161
C   C38       1.0  0.87865  0.68420  0.33975  1.0000 -0.0271409872
C   C39       1.0  0.85460  0.61005  0.34915  1.0000 -0.1121777354
C   C40       1.0  0.83199  0.52199  0.28252  1.0000 -0.1540883017
C   C41       1.0  0.83468  0.50560  0.20472  1.0000 0.0795489939
C   C42       1.0  0.85346  0.57704  0.19220  1.0000 -0.1377440434
C   C43       1.0  0.87502  0.66500  0.25908  1.0000 -0.100420302
C   C44       1.0  0.82637  0.41826  0.14497  1.0000 0.0691452701
C   C45       1.0  0.75674  0.32279  0.11267  1.0000 -0.1540883017
C   C46       1.0  0.75782  0.24506  0.06752  1.0000 -0.0271409872
C   C47       1.0  0.83022  0.26291  0.05617  1.0000 -0.1377440434
C   C48       1.0  0.89778  0.35623  0.08609  1.0000 -0.0134411617
C   C49       1.0  0.89483  0.43319  0.12818  1.0000 -0.1377440434
C   C50       1.0  0.68147  0.14068  0.02835  1.0000 0.5692395411
C   C51       1.0  0.97716  0.37366  0.07808  1.0000 0.5564732196
C   C52       1.0  0.00180  0.81070  0.67780  1.0000 0.2765206438
C   C53       1.0  0.05610  0.84320  0.83460  1.0000 -0.3211242962
C   C54       1.0  0.11080  0.77720  0.74510  1.0000 -0.3343372502
C   C55       1.0  0.21674  0.58146  0.08860  1.0000 0.5757140161
C   C56       1.0  0.31580  0.66025  0.12135  1.0000 -0.0271409872
C   C57       1.0  0.38995  0.65085  0.14540  1.0000 -0.1121777354
C   C58       1.0  0.47801  0.71748  0.16801  1.0000 -0.1540883017
C   C59       1.0  0.49440  0.79528  0.16532  1.0000 0.0795489939
C   C60       1.0  0.42296  0.80780  0.14654  1.0000 -0.1377440434
C   C61       1.0  0.33500  0.74092  0.12498  1.0000 -0.100420302
C   C62       1.0  0.58174  0.85503  0.17363  1.0000 0.0691452701
C   C63       1.0  0.67721  0.88733  0.24326  1.0000 -0.1540883017
C   C64       1.0  0.75494  0.93248  0.24218  1.0000 -0.0271409872
C   C65       1.0  0.73709  0.94383  0.16978  1.0000 -0.1377440434
C   C66       1.0  0.64377  0.91391  0.10222  1.0000 -0.0134411617
C   C67       1.0  0.56681  0.87182  0.10517  1.0000 -0.1377440434
C   C68       1.0  0.85932  0.97165  0.31853  1.0000 0.5692395411
C   C69       1.0  0.62634  0.92192  0.02284  1.0000 0.5564732196
C   C70       1.0  0.18930  0.32220  0.99820  1.0000 0.2765206438
C   C71       1.0  0.15680  0.16540  0.94390  1.0000 -0.3211242962
C   C72       1.0  0.22280  0.25490  0.88920  1.0000 -0.3343372502
C   C73       1.0  0.58146  0.08860  0.21674  1.0000 0.5757140161
C   C74       1.0  0.66025  0.12135  0.31580  1.0000 -0.0271409872
C   C75       1.0  0.65085  0.14540  0.38995  1.0000 -0.1121777354
C   C76       1.0  0.71748  0.16801  0.47801  1.0000 -0.1540883017
C   C77       1.0  0.79528  0.16532  0.49440  1.0000 0.0795489939
C   C78       1.0  0.80780  0.14654  0.42296  1.0000 -0.1377440434
C   C79       1.0  0.74092  0.12498  0.33500  1.0000 -0.100420302
C   C80       1.0  0.85503  0.17363  0.58174  1.0000 0.0691452701
C   C81       1.0  0.88733  0.24326  0.67721  1.0000 -0.1540883017
C   C82       1.0  0.93248  0.24218  0.75494  1.0000 -0.0271409872
C   C83       1.0  0.94383  0.16978  0.73709  1.0000 -0.1377440434
C   C84       1.0  0.91391  0.10222  0.64377  1.0000 -0.0134411617
C   C85       1.0  0.87182  0.10517  0.56681  1.0000 -0.1377440434
C   C86       1.0  0.97165  0.31853  0.85932  1.0000 0.5692395411
C   C87       1.0  0.92192  0.02284  0.62634  1.0000 0.5564732196
C   C88       1.0  0.32220  0.99820  0.18930  1.0000 0.2765206438
C   C89       1.0  0.16540  0.94390  0.15680  1.0000 -0.3211242962
C   C90       1.0  0.25490  0.88920  0.22280  1.0000 -0.3343372502
C   C91       1.0  0.08860  0.21674  0.58146  1.0000 0.5757140161
C   C92       1.0  0.12135  0.31580  0.66025  1.0000 -0.0271409872
C   C93       1.0  0.14540  0.38995  0.65085  1.0000 -0.1121777354
C   C94       1.0  0.16801  0.47801  0.71748  1.0000 -0.1540883017
C   C95       1.0  0.16532  0.49440  0.79528  1.0000 0.0795489939
C   C96       1.0  0.14654  0.42296  0.80780  1.0000 -0.1377440434
C   C97       1.0  0.12498  0.33500  0.74092  1.0000 -0.100420302
C   C98       1.0  0.17363  0.58174  0.85503  1.0000 0.0691452701
C   C99       1.0  0.24326  0.67721  0.88733  1.0000 -0.1540883017
C   C100      1.0  0.24218  0.75494  0.93248  1.0000 -0.0271409872
C   C101      1.0  0.16978  0.73709  0.94383  1.0000 -0.1377440434
C   C102      1.0  0.10222  0.64377  0.91391  1.0000 -0.0134411617
C   C103      1.0  0.10517  0.56681  0.87182  1.0000 -0.1377440434
C   C104      1.0  0.31853  0.85932  0.97165  1.0000 0.5692395411
C   C105      1.0  0.02284  0.62634  0.92192  1.0000 0.5564732196
C   C106      1.0  0.99820  0.18930  0.32220  1.0000 0.2765206438
C   C107      1.0  0.94390  0.15680  0.16540  1.0000 -0.3211242962
C   C108      1.0  0.88920  0.22280  0.25490  1.0000 -0.3343372502
N   N1        1.0  0.80811  0.74809  0.05230  1.0000 0.0460589582
N   N2        1.0  0.74809  0.05230  0.80811  1.0000 0.0460589582
N   N3        1.0  0.05230  0.80811  0.74809  1.0000 0.0460589582
N   N4        1.0  0.19189  0.25191  0.94770  1.0000 0.0460589582
N   N5        1.0  0.25191  0.94770  0.19189  1.0000 0.0460589582
N   N6        1.0  0.94770  0.19189  0.25191  1.0000 0.0460589582
O   O1        1.0  0.79339  0.49328  0.92163  1.0000 -0.5766013074
O   O2        1.0  0.84586  0.40563  0.92618  1.0000 -0.5503750799
O   O3        1.0  0.12419  0.03525  0.61420  1.0000 -0.5503750799
O   O4        1.0  0.07861  0.99143  0.69337  1.0000 -0.5637559253
O   O5        1.0  0.31875  0.07335  0.00014  1.0000 -0.5191260336
O   O6        1.0  0.44670  0.08133  0.02594  1.0000 -0.5766013074
O   O7        1.0  0.83481  0.67313  0.94576  1.0000 -0.4851538299
O   O8        1.0  0.77943  0.49999  0.76838  1.0000 -0.73387686
O   O9        1.0  0.49328  0.92163  0.79339  1.0000 -0.5766013074
O   O10       1.0  0.40563  0.92618  0.84586  1.0000 -0.5503750799
O   O11       1.0  0.03525  0.61420  0.12419  1.0000 -0.5503750799
O   O12       1.0  0.99143  0.69337  0.07861  1.0000 -0.5637559253
O   O13       1.0  0.07335  0.00014  0.31875  1.0000 -0.5191260336
O   O14       1.0  0.08133  0.02594  0.44670  1.0000 -0.5766013074
O   O15       1.0  0.67313  0.94576  0.83481  1.0000 -0.4851538299
O   O16       1.0  0.49999  0.76838  0.77943  1.0000 -0.73387686
O   O17       1.0  0.92163  0.79339  0.49328  1.0000 -0.5766013074
O   O18       1.0  0.92618  0.84586  0.40563  1.0000 -0.5503750799
O   O19       1.0  0.61420  0.12419  0.03525  1.0000 -0.5503750799
O   O20       1.0  0.69337  0.07861  0.99143  1.0000 -0.5637559253
O   O21       1.0  0.00014  0.31875  0.07335  1.0000 -0.5191260336
O   O22       1.0  0.02594  0.44670  0.08133  1.0000 -0.5766013074
O   O23       1.0  0.94576  0.83481  0.67313  1.0000 -0.4851538299
O   O24       1.0  0.76838  0.77943  0.49999  1.0000 -0.73387686
O   O25       1.0  0.20661  0.50672  0.07837  1.0000 -0.5766013074
O   O26       1.0  0.15414  0.59437  0.07382  1.0000 -0.5503750799
O   O27       1.0  0.87581  0.96475  0.38580  1.0000 -0.5503750799
O   O28       1.0  0.92139  0.00857  0.30663  1.0000 -0.5637559253
O   O29       1.0  0.68125  0.92665  0.99986  1.0000 -0.5191260336
O   O30       1.0  0.55330  0.91867  0.97406  1.0000 -0.5766013074
O   O31       1.0  0.16519  0.32687  0.05424  1.0000 -0.4851538299
O   O32       1.0  0.22057  0.50001  0.23162  1.0000 -0.73387686
O   O33       1.0  0.50672  0.07837  0.20661  1.0000 -0.5766013074
O   O34       1.0  0.59437  0.07382  0.15414  1.0000 -0.5503750799
O   O35       1.0  0.96475  0.38580  0.87581  1.0000 -0.5503750799
O   O36       1.0  0.00857  0.30663  0.92139  1.0000 -0.5637559253
O   O37       1.0  0.92665  0.99986  0.68125  1.0000 -0.5191260336
O   O38       1.0  0.91867  0.97406  0.55330  1.0000 -0.5766013074
O   O39       1.0  0.32687  0.05424  0.16519  1.0000 -0.4851538299
O   O40       1.0  0.50001  0.23162  0.22057  1.0000 -0.73387686
O   O41       1.0  0.07837  0.20661  0.50672  1.0000 -0.5766013074
O   O42       1.0  0.07382  0.15414  0.59437  1.0000 -0.5503750799
O   O43       1.0  0.38580  0.87581  0.96475  1.0000 -0.5503750799
O   O44       1.0  0.30663  0.92139  0.00857  1.0000 -0.5637559253
O   O45       1.0  0.99986  0.68125  0.92665  1.0000 -0.5191260336
O   O46       1.0  0.97406  0.55330  0.91867  1.0000 -0.5766013074
O   O47       1.0  0.05424  0.16519  0.32687  1.0000 -0.4851538299
O   O48       1.0  0.23162  0.22057  0.50001  1.0000 -0.73387686
