# DDEC6 charges by PACMAN v1.1 (https://github.com/mtap-research/PACMAN-charge/)
data_2022[Zn][hcb]2[FSR]1
_chemical_formula_sum              "Zn8 H136 C144 N32 O40"
_cell_length_a       11.2089
_cell_length_b       15.0413
_cell_length_c       26.774
_cell_angle_alpha    90
_cell_angle_beta     90
_cell_angle_gamma    90

_symmetry_space_group_name_H-M    "P 1"
_symmetry_Int_Tables_number       1

loop_
  _symmetry_equiv_pos_as_xyz
  'x, y, z'

loop_
  _atom_site_type_symbol
  _atom_site_label
  _atom_site_symmetry_multiplicity
  _atom_site_fract_x
  _atom_site_fract_y
  _atom_site_fract_z
  _atom_site_occupancy
  _atom_site_charge
Zn  Zn1       1.0  0.18214  0.59376  0.85139  1.0000 0.7814347075
Zn  Zn2       1.0  0.68214  0.40624  0.64861  1.0000 0.7814347075
Zn  Zn3       1.0  0.81786  0.40624  0.14861  1.0000 0.7814347075
Zn  Zn4       1.0  0.31786  0.59376  0.35139  1.0000 0.7814347075
Zn  Zn5       1.0  0.81786  0.90624  0.35139  1.0000 0.7814347075
Zn  Zn6       1.0  0.31786  0.09376  0.14861  1.0000 0.7814347075
Zn  Zn7       1.0  0.18214  0.09376  0.64861  1.0000 0.7814347075
Zn  Zn8       1.0  0.68214  0.90624  0.85139  1.0000 0.7814347075
H   H1        1.0  0.60219  0.58919  0.05545  1.0000 0.1207054051
H   H2        1.0  0.37625  0.49112  0.78823  1.0000 0.1207054051
H   H3        1.0  0.04358  0.76628  0.88359  1.0000 0.1076517218
H   H4        1.0  0.06716  0.91798  0.87865  1.0000 0.1207054051
H   H5        1.0  0.22474  0.97558  0.83252  1.0000 0.1207054051
H   H6        1.0  0.35448  0.87838  0.79184  1.0000 0.1304211119
H   H7        1.0  0.46393  0.78223  0.75325  1.0000 0.1400598121
H   H8        1.0  0.57194  0.67017  0.71443  1.0000 0.1304211119
H   H9        1.0  0.00133  0.48264  0.89969  1.0000 0.1076517218
H   H10       1.0  0.77467  0.47262  0.98710  1.0000 0.1400598121
H   H11       1.0  0.89793  0.42481  0.98045  1.0000 0.1304211119
H   H12       1.0  0.80444  0.42375  0.93690  1.0000 0.1304211119
H   H13       1.0  0.77928  0.61331  0.98672  1.0000 0.1207054051
H   H14       1.0  0.81248  0.65957  0.93613  1.0000 0.1304211119
H   H15       1.0  0.90581  0.65590  0.97969  1.0000 0.1207054051
H   H16       1.0  0.52071  0.70917  0.01809  1.0000 0.2935569958
H   H17       1.0  0.43515  0.70487  0.97559  1.0000 0.3042796777
H   H18       1.0  0.10219  0.41081  0.44455  1.0000 0.1207054051
H   H19       1.0  0.87625  0.50888  0.71177  1.0000 0.1207054051
H   H20       1.0  0.54358  0.23372  0.61641  1.0000 0.1076517218
H   H21       1.0  0.56716  0.08202  0.62135  1.0000 0.1207054051
H   H22       1.0  0.72474  0.02442  0.66748  1.0000 0.1207054051
H   H23       1.0  0.85448  0.12162  0.70816  1.0000 0.1304211119
H   H24       1.0  0.96393  0.21777  0.74675  1.0000 0.1400598121
H   H25       1.0  0.07194  0.32983  0.78557  1.0000 0.1304211119
H   H26       1.0  0.50133  0.51736  0.60031  1.0000 0.1076517218
H   H27       1.0  0.27467  0.52738  0.51290  1.0000 0.1400598121
H   H28       1.0  0.39793  0.57519  0.51955  1.0000 0.1304211119
H   H29       1.0  0.30444  0.57625  0.56310  1.0000 0.1304211119
H   H30       1.0  0.27928  0.38669  0.51328  1.0000 0.1207054051
H   H31       1.0  0.31248  0.34043  0.56387  1.0000 0.1304211119
H   H32       1.0  0.40581  0.34410  0.52031  1.0000 0.1207054051
H   H33       1.0  0.02071  0.29083  0.48191  1.0000 0.2935569958
H   H34       1.0  0.93515  0.29513  0.52441  1.0000 0.3042796777
H   H35       1.0  0.39781  0.41081  0.94455  1.0000 0.1207054051
H   H36       1.0  0.62375  0.50888  0.21177  1.0000 0.1207054051
H   H37       1.0  0.95642  0.23372  0.11641  1.0000 0.1076517218
H   H38       1.0  0.93284  0.08202  0.12135  1.0000 0.1207054051
H   H39       1.0  0.77526  0.02442  0.16748  1.0000 0.1207054051
H   H40       1.0  0.64552  0.12162  0.20816  1.0000 0.1304211119
H   H41       1.0  0.53607  0.21777  0.24675  1.0000 0.1400598121
H   H42       1.0  0.42806  0.32983  0.28557  1.0000 0.1304211119
H   H43       1.0  0.99867  0.51736  0.10031  1.0000 0.1076517218
H   H44       1.0  0.22533  0.52738  0.01290  1.0000 0.1400598121
H   H45       1.0  0.10207  0.57519  0.01955  1.0000 0.1304211119
H   H46       1.0  0.19556  0.57625  0.06310  1.0000 0.1304211119
H   H47       1.0  0.22072  0.38669  0.01328  1.0000 0.1207054051
H   H48       1.0  0.18752  0.34043  0.06387  1.0000 0.1304211119
H   H49       1.0  0.09419  0.34410  0.02031  1.0000 0.1207054051
H   H50       1.0  0.47929  0.29083  0.98191  1.0000 0.2935569958
H   H51       1.0  0.56485  0.29513  0.02441  1.0000 0.3042796777
H   H52       1.0  0.89781  0.58919  0.55545  1.0000 0.1207054051
H   H53       1.0  0.12375  0.49112  0.28823  1.0000 0.1207054051
H   H54       1.0  0.45642  0.76628  0.38359  1.0000 0.1076517218
H   H55       1.0  0.43284  0.91798  0.37865  1.0000 0.1207054051
H   H56       1.0  0.27526  0.97558  0.33252  1.0000 0.1207054051
H   H57       1.0  0.14552  0.87838  0.29184  1.0000 0.1304211119
H   H58       1.0  0.03607  0.78223  0.25325  1.0000 0.1400598121
H   H59       1.0  0.92806  0.67017  0.21443  1.0000 0.1304211119
H   H60       1.0  0.49867  0.48264  0.39969  1.0000 0.1076517218
H   H61       1.0  0.72533  0.47262  0.48710  1.0000 0.1400598121
H   H62       1.0  0.60207  0.42481  0.48045  1.0000 0.1304211119
H   H63       1.0  0.69556  0.42375  0.43690  1.0000 0.1304211119
H   H64       1.0  0.72072  0.61331  0.48672  1.0000 0.1207054051
H   H65       1.0  0.68752  0.65957  0.43613  1.0000 0.1304211119
H   H66       1.0  0.59419  0.65590  0.47969  1.0000 0.1207054051
H   H67       1.0  0.97929  0.70917  0.51809  1.0000 0.2935569958
H   H68       1.0  0.06485  0.70487  0.47559  1.0000 0.3042796777
H   H69       1.0  0.39781  0.91081  0.55545  1.0000 0.1207054051
H   H70       1.0  0.62375  0.00888  0.28823  1.0000 0.1207054051
H   H71       1.0  0.95642  0.73372  0.38359  1.0000 0.1076517218
H   H72       1.0  0.93284  0.58202  0.37865  1.0000 0.1207054051
H   H73       1.0  0.77526  0.52442  0.33252  1.0000 0.1207054051
H   H74       1.0  0.64552  0.62162  0.29184  1.0000 0.1304211119
H   H75       1.0  0.53607  0.71777  0.25325  1.0000 0.1400598121
H   H76       1.0  0.42806  0.82983  0.21443  1.0000 0.1304211119
H   H77       1.0  0.99867  0.01736  0.39969  1.0000 0.1076517218
H   H78       1.0  0.22533  0.02738  0.48710  1.0000 0.1400598121
H   H79       1.0  0.10207  0.07519  0.48045  1.0000 0.1304211119
H   H80       1.0  0.19556  0.07625  0.43690  1.0000 0.1304211119
H   H81       1.0  0.22072  0.88669  0.48672  1.0000 0.1207054051
H   H82       1.0  0.18752  0.84043  0.43613  1.0000 0.1304211119
H   H83       1.0  0.09419  0.84410  0.47969  1.0000 0.1207054051
H   H84       1.0  0.47929  0.79083  0.51809  1.0000 0.2935569958
H   H85       1.0  0.56485  0.79513  0.47559  1.0000 0.3042796777
H   H86       1.0  0.89781  0.08919  0.94455  1.0000 0.1207054051
H   H87       1.0  0.12375  0.99112  0.21177  1.0000 0.1207054051
H   H88       1.0  0.45642  0.26628  0.11641  1.0000 0.1076517218
H   H89       1.0  0.43284  0.41798  0.12135  1.0000 0.1207054051
H   H90       1.0  0.27526  0.47558  0.16748  1.0000 0.1207054051
H   H91       1.0  0.14552  0.37838  0.20816  1.0000 0.1304211119
H   H92       1.0  0.03607  0.28223  0.24675  1.0000 0.1400598121
H   H93       1.0  0.92806  0.17017  0.28557  1.0000 0.1304211119
H   H94       1.0  0.49867  0.98264  0.10031  1.0000 0.1076517218
H   H95       1.0  0.72533  0.97262  0.01290  1.0000 0.1400598121
H   H96       1.0  0.60207  0.92481  0.01955  1.0000 0.1304211119
H   H97       1.0  0.69556  0.92375  0.06310  1.0000 0.1304211119
H   H98       1.0  0.72072  0.11331  0.01328  1.0000 0.1207054051
H   H99       1.0  0.68752  0.15957  0.06387  1.0000 0.1304211119
H   H100      1.0  0.59419  0.15590  0.02031  1.0000 0.1207054051
H   H101      1.0  0.97929  0.20917  0.98191  1.0000 0.2935569958
H   H102      1.0  0.06485  0.20487  0.02441  1.0000 0.3042796777
H   H103      1.0  0.60219  0.08919  0.44455  1.0000 0.1207054051
H   H104      1.0  0.37625  0.99112  0.71177  1.0000 0.1207054051
H   H105      1.0  0.04358  0.26628  0.61641  1.0000 0.1076517218
H   H106      1.0  0.06716  0.41798  0.62135  1.0000 0.1207054051
H   H107      1.0  0.22474  0.47558  0.66748  1.0000 0.1207054051
H   H108      1.0  0.35448  0.37838  0.70816  1.0000 0.1304211119
H   H109      1.0  0.46393  0.28223  0.74675  1.0000 0.1400598121
H   H110      1.0  0.57194  0.17017  0.78557  1.0000 0.1304211119
H   H111      1.0  0.00133  0.98264  0.60031  1.0000 0.1076517218
H   H112      1.0  0.77467  0.97262  0.51290  1.0000 0.1400598121
H   H113      1.0  0.89793  0.92481  0.51955  1.0000 0.1304211119
H   H114      1.0  0.80444  0.92375  0.56310  1.0000 0.1304211119
H   H115      1.0  0.77928  0.11331  0.51328  1.0000 0.1207054051
H   H116      1.0  0.81248  0.15957  0.56387  1.0000 0.1304211119
H   H117      1.0  0.90581  0.15590  0.52031  1.0000 0.1207054051
H   H118      1.0  0.52071  0.20917  0.48191  1.0000 0.2935569958
H   H119      1.0  0.43515  0.20487  0.52441  1.0000 0.3042796777
H   H120      1.0  0.10219  0.91081  0.05545  1.0000 0.1207054051
H   H121      1.0  0.87625  0.00888  0.78823  1.0000 0.1207054051
H   H122      1.0  0.54358  0.73372  0.88359  1.0000 0.1076517218
H   H123      1.0  0.56716  0.58202  0.87865  1.0000 0.1207054051
H   H124      1.0  0.72474  0.52442  0.83252  1.0000 0.1207054051
H   H125      1.0  0.85448  0.62162  0.79184  1.0000 0.1304211119
H   H126      1.0  0.96393  0.71777  0.75325  1.0000 0.1400598121
H   H127      1.0  0.07194  0.82983  0.71443  1.0000 0.1304211119
H   H128      1.0  0.50133  0.01736  0.89969  1.0000 0.1076517218
H   H129      1.0  0.27467  0.02738  0.98710  1.0000 0.1400598121
H   H130      1.0  0.39793  0.07519  0.98045  1.0000 0.1304211119
H   H131      1.0  0.30444  0.07625  0.93690  1.0000 0.1304211119
H   H132      1.0  0.27928  0.88669  0.98672  1.0000 0.1207054051
H   H133      1.0  0.31248  0.84043  0.93613  1.0000 0.1304211119
H   H134      1.0  0.40581  0.84410  0.97969  1.0000 0.1207054051
H   H135      1.0  0.02071  0.79083  0.01809  1.0000 0.2935569958
H   H136      1.0  0.93515  0.79513  0.97559  1.0000 0.3042796777
C   C1        1.0  0.56110  0.55330  0.03302  1.0000 -0.2700305952
C   C2        1.0  0.48650  0.59350  0.99742  1.0000 0.2641385571
C   C3        1.0  0.42460  0.53780  0.96416  1.0000 -0.1321220173
C   C4        1.0  0.34170  0.57770  0.92597  1.0000 0.540723689
C   C5        1.0  0.55500  0.49215  0.72427  1.0000 0.540723689
C   C6        1.0  0.48580  0.56733  0.74726  1.0000 -0.0739979165
C   C7        1.0  0.39280  0.54995  0.78011  1.0000 0.0663160543
C   C8        1.0  0.35130  0.69940  0.79075  1.0000 0.1772760042
C   C9        1.0  0.27170  0.76600  0.81513  1.0000 0.1725679116
C   C10       1.0  0.10630  0.78930  0.86490  1.0000 0.0905704202
C   C11       1.0  0.12000  0.88030  0.86225  1.0000 -0.1454886457
C   C12       1.0  0.21360  0.91440  0.83480  1.0000 -0.0371406524
C   C13       1.0  0.29100  0.85670  0.81064  1.0000 -0.1609463448
C   C14       1.0  0.44560  0.72280  0.75907  1.0000 -0.1609463448
C   C15       1.0  0.51100  0.65596  0.73663  1.0000 -0.0499531122
C   C16       1.0  0.97550  0.53780  0.91101  1.0000 0.2816903518
C   C17       1.0  0.83690  0.45840  0.96379  1.0000 -0.3422330244
C   C18       1.0  0.84240  0.62440  0.96331  1.0000 -0.3455054684
C   C19       1.0  0.06110  0.44670  0.46698  1.0000 -0.2700305952
C   C20       1.0  0.98650  0.40650  0.50258  1.0000 0.2641385571
C   C21       1.0  0.92460  0.46220  0.53584  1.0000 -0.1321220173
C   C22       1.0  0.84170  0.42230  0.57403  1.0000 0.540723689
C   C23       1.0  0.05500  0.50785  0.77573  1.0000 0.540723689
C   C24       1.0  0.98580  0.43267  0.75274  1.0000 -0.0739979165
C   C25       1.0  0.89280  0.45005  0.71989  1.0000 0.0663160543
C   C26       1.0  0.85130  0.30060  0.70925  1.0000 0.1772760042
C   C27       1.0  0.77170  0.23400  0.68487  1.0000 0.1725679116
C   C28       1.0  0.60630  0.21070  0.63510  1.0000 0.0905704202
C   C29       1.0  0.62000  0.11970  0.63775  1.0000 -0.1454886457
C   C30       1.0  0.71360  0.08560  0.66520  1.0000 -0.0371406524
C   C31       1.0  0.79100  0.14330  0.68936  1.0000 -0.1609463448
C   C32       1.0  0.94560  0.27720  0.74093  1.0000 -0.1609463448
C   C33       1.0  0.01100  0.34404  0.76337  1.0000 -0.0499531122
C   C34       1.0  0.47550  0.46220  0.58899  1.0000 0.2816903518
C   C35       1.0  0.33690  0.54160  0.53621  1.0000 -0.3422330244
C   C36       1.0  0.34240  0.37560  0.53669  1.0000 -0.3455054684
C   C37       1.0  0.43890  0.44670  0.96698  1.0000 -0.2700305952
C   C38       1.0  0.51350  0.40650  0.00258  1.0000 0.2641385571
C   C39       1.0  0.57540  0.46220  0.03584  1.0000 -0.1321220173
C   C40       1.0  0.65830  0.42230  0.07403  1.0000 0.540723689
C   C41       1.0  0.44500  0.50785  0.27573  1.0000 0.540723689
C   C42       1.0  0.51420  0.43267  0.25274  1.0000 -0.0739979165
C   C43       1.0  0.60720  0.45005  0.21989  1.0000 0.0663160543
C   C44       1.0  0.64870  0.30060  0.20925  1.0000 0.1772760042
C   C45       1.0  0.72830  0.23400  0.18487  1.0000 0.1725679116
C   C46       1.0  0.89370  0.21070  0.13510  1.0000 0.0905704202
C   C47       1.0  0.88000  0.11970  0.13775  1.0000 -0.1454886457
C   C48       1.0  0.78640  0.08560  0.16520  1.0000 -0.0371406524
C   C49       1.0  0.70900  0.14330  0.18936  1.0000 -0.1609463448
C   C50       1.0  0.55440  0.27720  0.24093  1.0000 -0.1609463448
C   C51       1.0  0.48900  0.34404  0.26337  1.0000 -0.0499531122
C   C52       1.0  0.02450  0.46220  0.08899  1.0000 0.2816903518
C   C53       1.0  0.16310  0.54160  0.03621  1.0000 -0.3422330244
C   C54       1.0  0.15760  0.37560  0.03669  1.0000 -0.3455054684
C   C55       1.0  0.93890  0.55330  0.53302  1.0000 -0.2700305952
C   C56       1.0  0.01350  0.59350  0.49742  1.0000 0.2641385571
C   C57       1.0  0.07540  0.53780  0.46416  1.0000 -0.1321220173
C   C58       1.0  0.15830  0.57770  0.42597  1.0000 0.540723689
C   C59       1.0  0.94500  0.49215  0.22427  1.0000 0.540723689
C   C60       1.0  0.01420  0.56733  0.24726  1.0000 -0.0739979165
C   C61       1.0  0.10720  0.54995  0.28011  1.0000 0.0663160543
C   C62       1.0  0.14870  0.69940  0.29075  1.0000 0.1772760042
C   C63       1.0  0.22830  0.76600  0.31513  1.0000 0.1725679116
C   C64       1.0  0.39370  0.78930  0.36490  1.0000 0.0905704202
C   C65       1.0  0.38000  0.88030  0.36225  1.0000 -0.1454886457
C   C66       1.0  0.28640  0.91440  0.33480  1.0000 -0.0371406524
C   C67       1.0  0.20900  0.85670  0.31064  1.0000 -0.1609463448
C   C68       1.0  0.05440  0.72280  0.25907  1.0000 -0.1609463448
C   C69       1.0  0.98900  0.65596  0.23663  1.0000 -0.0499531122
C   C70       1.0  0.52450  0.53780  0.41101  1.0000 0.2816903518
C   C71       1.0  0.66310  0.45840  0.46379  1.0000 -0.3422330244
C   C72       1.0  0.65760  0.62440  0.46331  1.0000 -0.3455054684
C   C73       1.0  0.43890  0.94670  0.53302  1.0000 -0.2700305952
C   C74       1.0  0.51350  0.90650  0.49742  1.0000 0.2641385571
C   C75       1.0  0.57540  0.96220  0.46416  1.0000 -0.1321220173
C   C76       1.0  0.65830  0.92230  0.42597  1.0000 0.540723689
C   C77       1.0  0.44500  0.00785  0.22427  1.0000 0.540723689
C   C78       1.0  0.51420  0.93267  0.24726  1.0000 -0.0739979165
C   C79       1.0  0.60720  0.95005  0.28011  1.0000 0.0663160543
C   C80       1.0  0.64870  0.80060  0.29075  1.0000 0.1772760042
C   C81       1.0  0.72830  0.73400  0.31513  1.0000 0.1725679116
C   C82       1.0  0.89370  0.71070  0.36490  1.0000 0.0905704202
C   C83       1.0  0.88000  0.61970  0.36225  1.0000 -0.1454886457
C   C84       1.0  0.78640  0.58560  0.33480  1.0000 -0.0371406524
C   C85       1.0  0.70900  0.64330  0.31064  1.0000 -0.1609463448
C   C86       1.0  0.55440  0.77720  0.25907  1.0000 -0.1609463448
C   C87       1.0  0.48900  0.84404  0.23663  1.0000 -0.0499531122
C   C88       1.0  0.02450  0.96220  0.41101  1.0000 0.2816903518
C   C89       1.0  0.16310  0.04160  0.46379  1.0000 -0.3422330244
C   C90       1.0  0.15760  0.87560  0.46331  1.0000 -0.3455054684
C   C91       1.0  0.93890  0.05330  0.96698  1.0000 -0.2700305952
C   C92       1.0  0.01350  0.09350  0.00258  1.0000 0.2641385571
C   C93       1.0  0.07540  0.03780  0.03584  1.0000 -0.1321220173
C   C94       1.0  0.15830  0.07770  0.07403  1.0000 0.540723689
C   C95       1.0  0.94500  0.99215  0.27573  1.0000 0.540723689
C   C96       1.0  0.01420  0.06733  0.25274  1.0000 -0.0739979165
C   C97       1.0  0.10720  0.04995  0.21989  1.0000 0.0663160543
C   C98       1.0  0.14870  0.19940  0.20925  1.0000 0.1772760042
C   C99       1.0  0.22830  0.26600  0.18487  1.0000 0.1725679116
C   C100      1.0  0.39370  0.28930  0.13510  1.0000 0.0905704202
C   C101      1.0  0.38000  0.38030  0.13775  1.0000 -0.1454886457
C   C102      1.0  0.28640  0.41440  0.16520  1.0000 -0.0371406524
C   C103      1.0  0.20900  0.35670  0.18936  1.0000 -0.1609463448
C   C104      1.0  0.05440  0.22280  0.24093  1.0000 -0.1609463448
C   C105      1.0  0.98900  0.15596  0.26337  1.0000 -0.0499531122
C   C106      1.0  0.52450  0.03780  0.08899  1.0000 0.2816903518
C   C107      1.0  0.66310  0.95840  0.03621  1.0000 -0.3422330244
C   C108      1.0  0.65760  0.12440  0.03669  1.0000 -0.3455054684
C   C109      1.0  0.56110  0.05330  0.46698  1.0000 -0.2700305952
C   C110      1.0  0.48650  0.09350  0.50258  1.0000 0.2641385571
C   C111      1.0  0.42460  0.03780  0.53584  1.0000 -0.1321220173
C   C112      1.0  0.34170  0.07770  0.57403  1.0000 0.540723689
C   C113      1.0  0.55500  0.99215  0.77573  1.0000 0.540723689
C   C114      1.0  0.48580  0.06733  0.75274  1.0000 -0.0739979165
C   C115      1.0  0.39280  0.04995  0.71989  1.0000 0.0663160543
C   C116      1.0  0.35130  0.19940  0.70925  1.0000 0.1772760042
C   C117      1.0  0.27170  0.26600  0.68487  1.0000 0.1725679116
C   C118      1.0  0.10630  0.28930  0.63510  1.0000 0.0905704202
C   C119      1.0  0.12000  0.38030  0.63775  1.0000 -0.1454886457
C   C120      1.0  0.21360  0.41440  0.66520  1.0000 -0.0371406524
C   C121      1.0  0.29100  0.35670  0.68936  1.0000 -0.1609463448
C   C122      1.0  0.44560  0.22280  0.74093  1.0000 -0.1609463448
C   C123      1.0  0.51100  0.15596  0.76337  1.0000 -0.0499531122
C   C124      1.0  0.97550  0.03780  0.58899  1.0000 0.2816903518
C   C125      1.0  0.83690  0.95840  0.53621  1.0000 -0.3422330244
C   C126      1.0  0.84240  0.12440  0.53669  1.0000 -0.3455054684
C   C127      1.0  0.06110  0.94670  0.03302  1.0000 -0.2700305952
C   C128      1.0  0.98650  0.90650  0.99742  1.0000 0.2641385571
C   C129      1.0  0.92460  0.96220  0.96416  1.0000 -0.1321220173
C   C130      1.0  0.84170  0.92230  0.92597  1.0000 0.540723689
C   C131      1.0  0.05500  0.00785  0.72427  1.0000 0.540723689
C   C132      1.0  0.98580  0.93267  0.74726  1.0000 -0.0739979165
C   C133      1.0  0.89280  0.95005  0.78011  1.0000 0.0663160543
C   C134      1.0  0.85130  0.80060  0.79075  1.0000 0.1772760042
C   C135      1.0  0.77170  0.73400  0.81513  1.0000 0.1725679116
C   C136      1.0  0.60630  0.71070  0.86490  1.0000 0.0905704202
C   C137      1.0  0.62000  0.61970  0.86225  1.0000 -0.1454886457
C   C138      1.0  0.71360  0.58560  0.83480  1.0000 -0.0371406524
C   C139      1.0  0.79100  0.64330  0.81064  1.0000 -0.1609463448
C   C140      1.0  0.94560  0.77720  0.75907  1.0000 -0.1609463448
C   C141      1.0  0.01100  0.84404  0.73663  1.0000 -0.0499531122
C   C142      1.0  0.47550  0.96220  0.91101  1.0000 0.2816903518
C   C143      1.0  0.33690  0.04160  0.96379  1.0000 -0.3422330244
C   C144      1.0  0.34240  0.87560  0.96331  1.0000 -0.3455054684
N   N1        1.0  0.32590  0.61410  0.80064  1.0000 -0.2592626697
N   N2        1.0  0.18010  0.73280  0.84152  1.0000 -0.2592626697
N   N3        1.0  0.48010  0.67850  0.99700  1.0000 -0.5164898856
N   N4        1.0  0.88760  0.53970  0.94407  1.0000 0.0187666548
N   N5        1.0  0.82590  0.38590  0.69936  1.0000 -0.2592626697
N   N6        1.0  0.68010  0.26720  0.65848  1.0000 -0.2592626697
N   N7        1.0  0.98010  0.32150  0.50300  1.0000 -0.5164898856
N   N8        1.0  0.38760  0.46030  0.55593  1.0000 0.0187666548
N   N9        1.0  0.67410  0.38590  0.19936  1.0000 -0.2592626697
N   N10       1.0  0.81990  0.26720  0.15848  1.0000 -0.2592626697
N   N11       1.0  0.51990  0.32150  0.00300  1.0000 -0.5164898856
N   N12       1.0  0.11240  0.46030  0.05593  1.0000 0.0187666548
N   N13       1.0  0.17410  0.61410  0.30064  1.0000 -0.2592626697
N   N14       1.0  0.31990  0.73280  0.34152  1.0000 -0.2592626697
N   N15       1.0  0.01990  0.67850  0.49700  1.0000 -0.5164898856
N   N16       1.0  0.61240  0.53970  0.44407  1.0000 0.0187666548
N   N17       1.0  0.67410  0.88590  0.30064  1.0000 -0.2592626697
N   N18       1.0  0.81990  0.76720  0.34152  1.0000 -0.2592626697
N   N19       1.0  0.51990  0.82150  0.49700  1.0000 -0.5164898856
N   N20       1.0  0.11240  0.96030  0.44407  1.0000 0.0187666548
N   N21       1.0  0.17410  0.11410  0.19936  1.0000 -0.2592626697
N   N22       1.0  0.31990  0.23280  0.15848  1.0000 -0.2592626697
N   N23       1.0  0.01990  0.17850  0.00300  1.0000 -0.5164898856
N   N24       1.0  0.61240  0.03970  0.05593  1.0000 0.0187666548
N   N25       1.0  0.32590  0.11410  0.69936  1.0000 -0.2592626697
N   N26       1.0  0.18010  0.23280  0.65848  1.0000 -0.2592626697
N   N27       1.0  0.48010  0.17850  0.50300  1.0000 -0.5164898856
N   N28       1.0  0.88760  0.03970  0.55593  1.0000 0.0187666548
N   N29       1.0  0.82590  0.88590  0.80064  1.0000 -0.2592626697
N   N30       1.0  0.68010  0.76720  0.84152  1.0000 -0.2592626697
N   N31       1.0  0.98010  0.82150  0.99700  1.0000 -0.5164898856
N   N32       1.0  0.38760  0.96030  0.94407  1.0000 0.0187666548
O   O1        1.0  0.27490  0.52431  0.90195  1.0000 -0.5394338927
O   O2        1.0  0.34240  0.65852  0.91843  1.0000 -0.5394338927
O   O3        1.0  0.61524  0.51250  0.68549  1.0000 -0.5583800449
O   O4        1.0  0.54920  0.41739  0.74353  1.0000 -0.5583800449
O   O5        1.0  0.02550  0.60484  0.89424  1.0000 -0.4547985493
O   O6        1.0  0.77490  0.47569  0.59805  1.0000 -0.5394338927
O   O7        1.0  0.84240  0.34148  0.58157  1.0000 -0.5394338927
O   O8        1.0  0.11524  0.48750  0.81451  1.0000 -0.5583800449
O   O9        1.0  0.04920  0.58261  0.75647  1.0000 -0.5583800449
O   O10       1.0  0.52550  0.39516  0.60576  1.0000 -0.4547985493
O   O11       1.0  0.72510  0.47569  0.09805  1.0000 -0.5394338927
O   O12       1.0  0.65760  0.34148  0.08157  1.0000 -0.5394338927
O   O13       1.0  0.38476  0.48750  0.31451  1.0000 -0.5583800449
O   O14       1.0  0.45080  0.58261  0.25647  1.0000 -0.5583800449
O   O15       1.0  0.97450  0.39516  0.10576  1.0000 -0.4547985493
O   O16       1.0  0.22510  0.52431  0.40195  1.0000 -0.5394338927
O   O17       1.0  0.15760  0.65852  0.41843  1.0000 -0.5394338927
O   O18       1.0  0.88476  0.51250  0.18549  1.0000 -0.5583800449
O   O19       1.0  0.95080  0.41739  0.24353  1.0000 -0.5583800449
O   O20       1.0  0.47450  0.60484  0.39424  1.0000 -0.4547985493
O   O21       1.0  0.72510  0.97569  0.40195  1.0000 -0.5394338927
O   O22       1.0  0.65760  0.84148  0.41843  1.0000 -0.5394338927
O   O23       1.0  0.38476  0.98750  0.18549  1.0000 -0.5583800449
O   O24       1.0  0.45080  0.08261  0.24353  1.0000 -0.5583800449
O   O25       1.0  0.97450  0.89516  0.39424  1.0000 -0.4547985493
O   O26       1.0  0.22510  0.02431  0.09805  1.0000 -0.5394338927
O   O27       1.0  0.15760  0.15852  0.08157  1.0000 -0.5394338927
O   O28       1.0  0.88476  0.01250  0.31451  1.0000 -0.5583800449
O   O29       1.0  0.95080  0.91739  0.25647  1.0000 -0.5583800449
O   O30       1.0  0.47450  0.10484  0.10576  1.0000 -0.4547985493
O   O31       1.0  0.27490  0.02431  0.59805  1.0000 -0.5394338927
O   O32       1.0  0.34240  0.15852  0.58157  1.0000 -0.5394338927
O   O33       1.0  0.61524  0.01250  0.81451  1.0000 -0.5583800449
O   O34       1.0  0.54920  0.91739  0.75647  1.0000 -0.5583800449
O   O35       1.0  0.02550  0.10484  0.60576  1.0000 -0.4547985493
O   O36       1.0  0.77490  0.97569  0.90195  1.0000 -0.5394338927
O   O37       1.0  0.84240  0.84148  0.91843  1.0000 -0.5394338927
O   O38       1.0  0.11524  0.98750  0.68549  1.0000 -0.5583800449
O   O39       1.0  0.04920  0.08261  0.74353  1.0000 -0.5583800449
O   O40       1.0  0.52550  0.89516  0.89424  1.0000 -0.4547985493
