# DDEC6 charges by PACMAN v1.1 (https://github.com/mtap-research/PACMAN-charge/)
data_2022[FeNi][nan]3[FSR]1
_chemical_formula_sum              "Fe3 Ni6 H96 C108 N6 O48"
_cell_length_a       18.8003
_cell_length_b       18.8003
_cell_length_c       18.8003
_cell_angle_alpha    113.059
_cell_angle_beta     113.059
_cell_angle_gamma    113.059

_symmetry_space_group_name_H-M    "P 1"
_symmetry_Int_Tables_number       1

loop_
  _symmetry_equiv_pos_as_xyz
  'x, y, z'

loop_
  _atom_site_type_symbol
  _atom_site_label
  _atom_site_symmetry_multiplicity
  _atom_site_fract_x
  _atom_site_fract_y
  _atom_site_fract_z
  _atom_site_occupancy
  _atom_site_charge
Fe  Fe1       1.0  0.50000  0.50000  0.00000  1.0000 1.0803699619
Fe  Fe2       1.0  0.50000  0.00000  0.50000  1.0000 1.0803699619
Fe  Fe3       1.0  0.00000  0.50000  0.50000  1.0000 1.0803699619
Ni  Ni1       1.0  0.42597  0.38548  0.09624  1.0000 0.8833636569
Ni  Ni2       1.0  0.38548  0.09624  0.42597  1.0000 0.8833636569
Ni  Ni3       1.0  0.09624  0.42597  0.38548  1.0000 0.8833636569
Ni  Ni4       1.0  0.57403  0.61452  0.90376  1.0000 0.8833636569
Ni  Ni5       1.0  0.61452  0.90376  0.57403  1.0000 0.8833636569
Ni  Ni6       1.0  0.90376  0.57403  0.61452  1.0000 0.8833636569
H   H1        1.0  0.24830  0.28520  0.03750  1.0000 0.362024069
H   H2        1.0  0.24100  0.29340  0.96520  1.0000 0.362024069
H   H3        1.0  0.35280  0.12030  0.90440  1.0000 0.1191795023
H   H4        1.0  0.30630  0.96630  0.78660  1.0000 0.1116644171
H   H5        1.0  0.35710  0.06460  0.64110  1.0000 0.1116644171
H   H6        1.0  0.39180  0.21460  0.75340  1.0000 0.1116644171
H   H7        1.0  0.20960  0.81110  0.62300  1.0000 0.1191795023
H   H8        1.0  0.33280  0.71000  0.52650  1.0000 0.1260925086
H   H9        1.0  0.44170  0.99570  0.64880  1.0000 0.1260925086
H   H10       1.0  0.50180  0.28730  0.12090  1.0000 0.0985932551
H   H11       1.0  0.51170  0.35600  0.32850  1.0000 0.1384159887
H   H12       1.0  0.54170  0.29250  0.34700  1.0000 0.1384159887
H   H13       1.0  0.62810  0.40630  0.39910  1.0000 0.1481618138
H   H14       1.0  0.68460  0.33520  0.29790  1.0000 0.1481618138
H   H15       1.0  0.59710  0.22570  0.25310  1.0000 0.1384159887
H   H16       1.0  0.59720  0.24640  0.17830  1.0000 0.1384159887
H   H17       1.0  0.28520  0.03750  0.24830  1.0000 0.362024069
H   H18       1.0  0.29340  0.96520  0.24100  1.0000 0.362024069
H   H19       1.0  0.12030  0.90440  0.35280  1.0000 0.1191795023
H   H20       1.0  0.96630  0.78660  0.30630  1.0000 0.1116644171
H   H21       1.0  0.06460  0.64110  0.35710  1.0000 0.1116644171
H   H22       1.0  0.21460  0.75340  0.39180  1.0000 0.1116644171
H   H23       1.0  0.81110  0.62300  0.20960  1.0000 0.1191795023
H   H24       1.0  0.71000  0.52650  0.33280  1.0000 0.1260925086
H   H25       1.0  0.99570  0.64880  0.44170  1.0000 0.1260925086
H   H26       1.0  0.28730  0.12090  0.50180  1.0000 0.0985932551
H   H27       1.0  0.35600  0.32850  0.51170  1.0000 0.1384159887
H   H28       1.0  0.29250  0.34700  0.54170  1.0000 0.1384159887
H   H29       1.0  0.40630  0.39910  0.62810  1.0000 0.1481618138
H   H30       1.0  0.33520  0.29790  0.68460  1.0000 0.1481618138
H   H31       1.0  0.22570  0.25310  0.59710  1.0000 0.1384159887
H   H32       1.0  0.24640  0.17830  0.59720  1.0000 0.1384159887
H   H33       1.0  0.03750  0.24830  0.28520  1.0000 0.362024069
H   H34       1.0  0.96520  0.24100  0.29340  1.0000 0.362024069
H   H35       1.0  0.90440  0.35280  0.12030  1.0000 0.1191795023
H   H36       1.0  0.78660  0.30630  0.96630  1.0000 0.1116644171
H   H37       1.0  0.64110  0.35710  0.06460  1.0000 0.1116644171
H   H38       1.0  0.75340  0.39180  0.21460  1.0000 0.1116644171
H   H39       1.0  0.62300  0.20960  0.81110  1.0000 0.1191795023
H   H40       1.0  0.52650  0.33280  0.71000  1.0000 0.1260925086
H   H41       1.0  0.64880  0.44170  0.99570  1.0000 0.1260925086
H   H42       1.0  0.12090  0.50180  0.28730  1.0000 0.0985932551
H   H43       1.0  0.32850  0.51170  0.35600  1.0000 0.1384159887
H   H44       1.0  0.34700  0.54170  0.29250  1.0000 0.1384159887
H   H45       1.0  0.39910  0.62810  0.40630  1.0000 0.1481618138
H   H46       1.0  0.29790  0.68460  0.33520  1.0000 0.1481618138
H   H47       1.0  0.25310  0.59710  0.22570  1.0000 0.1384159887
H   H48       1.0  0.17830  0.59720  0.24640  1.0000 0.1384159887
H   H49       1.0  0.75170  0.71480  0.96250  1.0000 0.362024069
H   H50       1.0  0.75900  0.70660  0.03480  1.0000 0.362024069
H   H51       1.0  0.64720  0.87970  0.09560  1.0000 0.1191795023
H   H52       1.0  0.69370  0.03370  0.21340  1.0000 0.1116644171
H   H53       1.0  0.64290  0.93540  0.35890  1.0000 0.1116644171
H   H54       1.0  0.60820  0.78540  0.24660  1.0000 0.1116644171
H   H55       1.0  0.79040  0.18890  0.37700  1.0000 0.1191795023
H   H56       1.0  0.66720  0.29000  0.47350  1.0000 0.1260925086
H   H57       1.0  0.55830  0.00430  0.35120  1.0000 0.1260925086
H   H58       1.0  0.49820  0.71270  0.87910  1.0000 0.0985932551
H   H59       1.0  0.48830  0.64400  0.67150  1.0000 0.1384159887
H   H60       1.0  0.45830  0.70750  0.65300  1.0000 0.1384159887
H   H61       1.0  0.37190  0.59370  0.60090  1.0000 0.1481618138
H   H62       1.0  0.31540  0.66480  0.70210  1.0000 0.1481618138
H   H63       1.0  0.40290  0.77430  0.74690  1.0000 0.1384159887
H   H64       1.0  0.40280  0.75360  0.82170  1.0000 0.1384159887
H   H65       1.0  0.71480  0.96250  0.75170  1.0000 0.362024069
H   H66       1.0  0.70660  0.03480  0.75900  1.0000 0.362024069
H   H67       1.0  0.87970  0.09560  0.64720  1.0000 0.1191795023
H   H68       1.0  0.03370  0.21340  0.69370  1.0000 0.1116644171
H   H69       1.0  0.93540  0.35890  0.64290  1.0000 0.1116644171
H   H70       1.0  0.78540  0.24660  0.60820  1.0000 0.1116644171
H   H71       1.0  0.18890  0.37700  0.79040  1.0000 0.1191795023
H   H72       1.0  0.29000  0.47350  0.66720  1.0000 0.1260925086
H   H73       1.0  0.00430  0.35120  0.55830  1.0000 0.1260925086
H   H74       1.0  0.71270  0.87910  0.49820  1.0000 0.0985932551
H   H75       1.0  0.64400  0.67150  0.48830  1.0000 0.1384159887
H   H76       1.0  0.70750  0.65300  0.45830  1.0000 0.1384159887
H   H77       1.0  0.59370  0.60090  0.37190  1.0000 0.1481618138
H   H78       1.0  0.66480  0.70210  0.31540  1.0000 0.1481618138
H   H79       1.0  0.77430  0.74690  0.40290  1.0000 0.1384159887
H   H80       1.0  0.75360  0.82170  0.40280  1.0000 0.1384159887
H   H81       1.0  0.96250  0.75170  0.71480  1.0000 0.362024069
H   H82       1.0  0.03480  0.75900  0.70660  1.0000 0.362024069
H   H83       1.0  0.09560  0.64720  0.87970  1.0000 0.1191795023
H   H84       1.0  0.21340  0.69370  0.03370  1.0000 0.1116644171
H   H85       1.0  0.35890  0.64290  0.93540  1.0000 0.1116644171
H   H86       1.0  0.24660  0.60820  0.78540  1.0000 0.1116644171
H   H87       1.0  0.37700  0.79040  0.18890  1.0000 0.1191795023
H   H88       1.0  0.47350  0.66720  0.29000  1.0000 0.1260925086
H   H89       1.0  0.35120  0.55830  0.00430  1.0000 0.1260925086
H   H90       1.0  0.87910  0.49820  0.71270  1.0000 0.0985932551
H   H91       1.0  0.67150  0.48830  0.64400  1.0000 0.1384159887
H   H92       1.0  0.65300  0.45830  0.70750  1.0000 0.1384159887
H   H93       1.0  0.60090  0.37190  0.59370  1.0000 0.1481618138
H   H94       1.0  0.70210  0.31540  0.66480  1.0000 0.1481618138
H   H95       1.0  0.74690  0.40290  0.77430  1.0000 0.1384159887
H   H96       1.0  0.82170  0.40280  0.75360  1.0000 0.1384159887
C   C1        1.0  0.41260  0.28230  0.92170  1.0000 0.5785420663
C   C2        1.0  0.37850  0.18220  0.84050  1.0000 -0.023025044
C   C3        1.0  0.35320  0.10900  0.85080  1.0000 -0.1105031369
C   C4        1.0  0.32820  0.01820  0.78240  1.0000 -0.1571331469
C   C5        1.0  0.33580  0.00450  0.70750  1.0000 0.0802252294
C   C6        1.0  0.35670  0.07570  0.69490  1.0000 -0.1433031781
C   C7        1.0  0.37800  0.16600  0.76240  1.0000 -0.1039773745
C   C8        1.0  0.32830  0.91750  0.64750  1.0000 0.0802252294
C   C9        1.0  0.25840  0.82280  0.61440  1.0000 -0.1571331469
C   C10       1.0  0.26000  0.74580  0.56920  1.0000 -0.023025044
C   C11       1.0  0.33140  0.76290  0.55690  1.0000 -0.1347736342
C   C12       1.0  0.40090  0.85650  0.58850  1.0000 -0.0131116489
C   C13       1.0  0.39730  0.93290  0.63090  1.0000 -0.1453560663
C   C14       1.0  0.18170  0.64060  0.52800  1.0000 0.5785420663
C   C15       1.0  0.47950  0.87240  0.57920  1.0000 0.5455106225
C   C16       1.0  0.49960  0.30660  0.17430  1.0000 0.2815883087
C   C17       1.0  0.55930  0.34340  0.33850  1.0000 -0.3459355904
C   C18       1.0  0.61270  0.27570  0.24360  1.0000 -0.3410255783
C   C19       1.0  0.28230  0.92170  0.41260  1.0000 0.5785420663
C   C20       1.0  0.18220  0.84050  0.37850  1.0000 -0.023025044
C   C21       1.0  0.10900  0.85080  0.35320  1.0000 -0.1105031369
C   C22       1.0  0.01820  0.78240  0.32820  1.0000 -0.1571331469
C   C23       1.0  0.00450  0.70750  0.33580  1.0000 0.0802252294
C   C24       1.0  0.07570  0.69490  0.35670  1.0000 -0.1433031781
C   C25       1.0  0.16600  0.76240  0.37800  1.0000 -0.1039773745
C   C26       1.0  0.91750  0.64750  0.32830  1.0000 0.0802252294
C   C27       1.0  0.82280  0.61440  0.25840  1.0000 -0.1571331469
C   C28       1.0  0.74580  0.56920  0.26000  1.0000 -0.023025044
C   C29       1.0  0.76290  0.55690  0.33140  1.0000 -0.1347736342
C   C30       1.0  0.85650  0.58850  0.40090  1.0000 -0.0131116489
C   C31       1.0  0.93290  0.63090  0.39730  1.0000 -0.1453560663
C   C32       1.0  0.64060  0.52800  0.18170  1.0000 0.5785420663
C   C33       1.0  0.87240  0.57920  0.47950  1.0000 0.5455106225
C   C34       1.0  0.30660  0.17430  0.49960  1.0000 0.2815883087
C   C35       1.0  0.34340  0.33850  0.55930  1.0000 -0.3459355904
C   C36       1.0  0.27570  0.24360  0.61270  1.0000 -0.3410255783
C   C37       1.0  0.92170  0.41260  0.28230  1.0000 0.5785420663
C   C38       1.0  0.84050  0.37850  0.18220  1.0000 -0.023025044
C   C39       1.0  0.85080  0.35320  0.10900  1.0000 -0.1105031369
C   C40       1.0  0.78240  0.32820  0.01820  1.0000 -0.1571331469
C   C41       1.0  0.70750  0.33580  0.00450  1.0000 0.0802252294
C   C42       1.0  0.69490  0.35670  0.07570  1.0000 -0.1433031781
C   C43       1.0  0.76240  0.37800  0.16600  1.0000 -0.1039773745
C   C44       1.0  0.64750  0.32830  0.91750  1.0000 0.0802252294
C   C45       1.0  0.61440  0.25840  0.82280  1.0000 -0.1571331469
C   C46       1.0  0.56920  0.26000  0.74580  1.0000 -0.023025044
C   C47       1.0  0.55690  0.33140  0.76290  1.0000 -0.1347736342
C   C48       1.0  0.58850  0.40090  0.85650  1.0000 -0.0131116489
C   C49       1.0  0.63090  0.39730  0.93290  1.0000 -0.1453560663
C   C50       1.0  0.52800  0.18170  0.64060  1.0000 0.5785420663
C   C51       1.0  0.57920  0.47950  0.87240  1.0000 0.5455106225
C   C52       1.0  0.17430  0.49960  0.30660  1.0000 0.2815883087
C   C53       1.0  0.33850  0.55930  0.34340  1.0000 -0.3459355904
C   C54       1.0  0.24360  0.61270  0.27570  1.0000 -0.3410255783
C   C55       1.0  0.58740  0.71770  0.07830  1.0000 0.5785420663
C   C56       1.0  0.62150  0.81780  0.15950  1.0000 -0.023025044
C   C57       1.0  0.64680  0.89100  0.14920  1.0000 -0.1105031369
C   C58       1.0  0.67180  0.98180  0.21760  1.0000 -0.1571331469
C   C59       1.0  0.66420  0.99550  0.29250  1.0000 0.0802252294
C   C60       1.0  0.64330  0.92430  0.30510  1.0000 -0.1433031781
C   C61       1.0  0.62200  0.83400  0.23760  1.0000 -0.1039773745
C   C62       1.0  0.67170  0.08250  0.35250  1.0000 0.0802252294
C   C63       1.0  0.74160  0.17720  0.38560  1.0000 -0.1571331469
C   C64       1.0  0.74000  0.25420  0.43080  1.0000 -0.023025044
C   C65       1.0  0.66860  0.23710  0.44310  1.0000 -0.1347736342
C   C66       1.0  0.59910  0.14350  0.41150  1.0000 -0.0131116489
C   C67       1.0  0.60270  0.06710  0.36910  1.0000 -0.1453560663
C   C68       1.0  0.81830  0.35940  0.47200  1.0000 0.5785420663
C   C69       1.0  0.52050  0.12760  0.42080  1.0000 0.5455106225
C   C70       1.0  0.50040  0.69340  0.82570  1.0000 0.2815883087
C   C71       1.0  0.44070  0.65660  0.66150  1.0000 -0.3459355904
C   C72       1.0  0.38730  0.72430  0.75640  1.0000 -0.3410255783
C   C73       1.0  0.71770  0.07830  0.58740  1.0000 0.5785420663
C   C74       1.0  0.81780  0.15950  0.62150  1.0000 -0.023025044
C   C75       1.0  0.89100  0.14920  0.64680  1.0000 -0.1105031369
C   C76       1.0  0.98180  0.21760  0.67180  1.0000 -0.1571331469
C   C77       1.0  0.99550  0.29250  0.66420  1.0000 0.0802252294
C   C78       1.0  0.92430  0.30510  0.64330  1.0000 -0.1433031781
C   C79       1.0  0.83400  0.23760  0.62200  1.0000 -0.1039773745
C   C80       1.0  0.08250  0.35250  0.67170  1.0000 0.0802252294
C   C81       1.0  0.17720  0.38560  0.74160  1.0000 -0.1571331469
C   C82       1.0  0.25420  0.43080  0.74000  1.0000 -0.023025044
C   C83       1.0  0.23710  0.44310  0.66860  1.0000 -0.1347736342
C   C84       1.0  0.14350  0.41150  0.59910  1.0000 -0.0131116489
C   C85       1.0  0.06710  0.36910  0.60270  1.0000 -0.1453560663
C   C86       1.0  0.35940  0.47200  0.81830  1.0000 0.5785420663
C   C87       1.0  0.12760  0.42080  0.52050  1.0000 0.5455106225
C   C88       1.0  0.69340  0.82570  0.50040  1.0000 0.2815883087
C   C89       1.0  0.65660  0.66150  0.44070  1.0000 -0.3459355904
C   C90       1.0  0.72430  0.75640  0.38730  1.0000 -0.3410255783
C   C91       1.0  0.07830  0.58740  0.71770  1.0000 0.5785420663
C   C92       1.0  0.15950  0.62150  0.81780  1.0000 -0.023025044
C   C93       1.0  0.14920  0.64680  0.89100  1.0000 -0.1105031369
C   C94       1.0  0.21760  0.67180  0.98180  1.0000 -0.1571331469
C   C95       1.0  0.29250  0.66420  0.99550  1.0000 0.0802252294
C   C96       1.0  0.30510  0.64330  0.92430  1.0000 -0.1433031781
C   C97       1.0  0.23760  0.62200  0.83400  1.0000 -0.1039773745
C   C98       1.0  0.35250  0.67170  0.08250  1.0000 0.0802252294
C   C99       1.0  0.38560  0.74160  0.17720  1.0000 -0.1571331469
C   C100      1.0  0.43080  0.74000  0.25420  1.0000 -0.023025044
C   C101      1.0  0.44310  0.66860  0.23710  1.0000 -0.1347736342
C   C102      1.0  0.41150  0.59910  0.14350  1.0000 -0.0131116489
C   C103      1.0  0.36910  0.60270  0.06710  1.0000 -0.1453560663
C   C104      1.0  0.47200  0.81830  0.35940  1.0000 0.5785420663
C   C105      1.0  0.42080  0.52050  0.12760  1.0000 0.5455106225
C   C106      1.0  0.82570  0.50040  0.69340  1.0000 0.2815883087
C   C107      1.0  0.66150  0.44070  0.65660  1.0000 -0.3459355904
C   C108      1.0  0.75640  0.38730  0.72430  1.0000 -0.3410255783
N   N1        1.0  0.55360  0.30470  0.24580  1.0000 0.0651846083
N   N2        1.0  0.30470  0.24580  0.55360  1.0000 0.0651846083
N   N3        1.0  0.24580  0.55360  0.30470  1.0000 0.0651846083
N   N4        1.0  0.44640  0.69530  0.75420  1.0000 0.0651846083
N   N5        1.0  0.69530  0.75420  0.44640  1.0000 0.0651846083
N   N6        1.0  0.75420  0.44640  0.69530  1.0000 0.0651846083
O   O1        1.0  0.42140  0.29160  0.99390  1.0000 -0.546687491
O   O2        1.0  0.42910  0.34590  0.90880  1.0000 -0.5590868797
O   O3        1.0  0.11440  0.62460  0.53540  1.0000 -0.5590868797
O   O4        1.0  0.19240  0.57830  0.48840  1.0000 -0.5590868797
O   O5        1.0  0.50180  0.81740  0.57350  1.0000 -0.5171032918
O   O6        1.0  0.52870  0.94710  0.58430  1.0000 -0.594909556
O   O7        1.0  0.44470  0.33310  0.17360  1.0000 -0.4756213499
O   O8        1.0  0.26820  0.27940  0.00180  1.0000 -0.6216481003
O   O9        1.0  0.29160  0.99390  0.42140  1.0000 -0.546687491
O   O10       1.0  0.34590  0.90880  0.42910  1.0000 -0.5590868797
O   O11       1.0  0.62460  0.53540  0.11440  1.0000 -0.5590868797
O   O12       1.0  0.57830  0.48840  0.19240  1.0000 -0.5590868797
O   O13       1.0  0.81740  0.57350  0.50180  1.0000 -0.5171032918
O   O14       1.0  0.94710  0.58430  0.52870  1.0000 -0.594909556
O   O15       1.0  0.33310  0.17360  0.44470  1.0000 -0.4756213499
O   O16       1.0  0.27940  0.00180  0.26820  1.0000 -0.6216481003
O   O17       1.0  0.99390  0.42140  0.29160  1.0000 -0.546687491
O   O18       1.0  0.90880  0.42910  0.34590  1.0000 -0.5590868797
O   O19       1.0  0.53540  0.11440  0.62460  1.0000 -0.5590868797
O   O20       1.0  0.48840  0.19240  0.57830  1.0000 -0.5590868797
O   O21       1.0  0.57350  0.50180  0.81740  1.0000 -0.5171032918
O   O22       1.0  0.58430  0.52870  0.94710  1.0000 -0.594909556
O   O23       1.0  0.17360  0.44470  0.33310  1.0000 -0.4756213499
O   O24       1.0  0.00180  0.26820  0.27940  1.0000 -0.6216481003
O   O25       1.0  0.57860  0.70840  0.00610  1.0000 -0.546687491
O   O26       1.0  0.57090  0.65410  0.09120  1.0000 -0.5590868797
O   O27       1.0  0.88560  0.37540  0.46460  1.0000 -0.5590868797
O   O28       1.0  0.80760  0.42170  0.51160  1.0000 -0.5590868797
O   O29       1.0  0.49820  0.18260  0.42650  1.0000 -0.5171032918
O   O30       1.0  0.47130  0.05290  0.41570  1.0000 -0.594909556
O   O31       1.0  0.55530  0.66690  0.82640  1.0000 -0.4756213499
O   O32       1.0  0.73180  0.72060  0.99820  1.0000 -0.6216481003
O   O33       1.0  0.70840  0.00610  0.57860  1.0000 -0.546687491
O   O34       1.0  0.65410  0.09120  0.57090  1.0000 -0.5590868797
O   O35       1.0  0.37540  0.46460  0.88560  1.0000 -0.5590868797
O   O36       1.0  0.42170  0.51160  0.80760  1.0000 -0.5590868797
O   O37       1.0  0.18260  0.42650  0.49820  1.0000 -0.5171032918
O   O38       1.0  0.05290  0.41570  0.47130  1.0000 -0.594909556
O   O39       1.0  0.66690  0.82640  0.55530  1.0000 -0.4756213499
O   O40       1.0  0.72060  0.99820  0.73180  1.0000 -0.6216481003
O   O41       1.0  0.00610  0.57860  0.70840  1.0000 -0.546687491
O   O42       1.0  0.09120  0.57090  0.65410  1.0000 -0.5590868797
O   O43       1.0  0.46460  0.88560  0.37540  1.0000 -0.5590868797
O   O44       1.0  0.51160  0.80760  0.42170  1.0000 -0.5590868797
O   O45       1.0  0.42650  0.49820  0.18260  1.0000 -0.5171032918
O   O46       1.0  0.41570  0.47130  0.05290  1.0000 -0.594909556
O   O47       1.0  0.82640  0.55530  0.66690  1.0000 -0.4756213499
O   O48       1.0  0.99820  0.73180  0.72060  1.0000 -0.6216481003
