# DDEC6 charges by PACMAN v1.1 (https://github.com/mtap-research/PACMAN-charge/)
data_2022[Cu][tbo]3[FSR]9
_chemical_formula_sum              "Cu12 H48 C72 O60"
_cell_length_a       18.6669
_cell_length_b       18.6669
_cell_length_c       18.6669
_cell_angle_alpha    60
_cell_angle_beta     60
_cell_angle_gamma    60

_symmetry_space_group_name_H-M    "P 1"
_symmetry_Int_Tables_number       1

loop_
  _symmetry_equiv_pos_as_xyz
  'x, y, z'

loop_
  _atom_site_type_symbol
  _atom_site_label
  _atom_site_symmetry_multiplicity
  _atom_site_fract_x
  _atom_site_fract_y
  _atom_site_fract_z
  _atom_site_occupancy
  _atom_site_charge
Cu  Cu1       1.0  0.57010  0.42990  0.00000  1.0000 0.8513335246
Cu  Cu2       1.0  0.42990  0.57010  0.00000  1.0000 0.8513335246
Cu  Cu3       1.0  1.00000  0.00000  0.57010  1.0000 0.8513335246
Cu  Cu4       1.0  0.00000  0.00000  0.42990  1.0000 0.8513335246
Cu  Cu5       1.0  0.00000  0.57010  0.42990  1.0000 0.8513335246
Cu  Cu6       1.0  1.00000  0.42990  0.57010  1.0000 0.8513335246
Cu  Cu7       1.0  0.57010  0.00000  0.00000  1.0000 0.8513335246
Cu  Cu8       1.0  0.42990  0.00000  0.00000  1.0000 0.8513335246
Cu  Cu9       1.0  0.42990  0.00000  0.57010  1.0000 0.8513335246
Cu  Cu10      1.0  0.57010  0.00000  0.42990  1.0000 0.8513335246
Cu  Cu11      1.0  0.00000  0.57010  0.00000  1.0000 0.8513335246
Cu  Cu12      1.0  0.00000  0.42990  0.00000  1.0000 0.8513335246
H   H1        1.0  0.51512  0.72908  0.02672  1.0000 0.1286833821
H   H2        1.0  0.72908  0.51512  0.72908  1.0000 0.1286833821
H   H3        1.0  0.02672  0.72908  0.51512  1.0000 0.1286833821
H   H4        1.0  0.72908  0.02672  0.72908  1.0000 0.1286833821
H   H5        1.0  0.02672  0.51512  0.72908  1.0000 0.1286833821
H   H6        1.0  0.72908  0.72908  0.51512  1.0000 0.1286833821
H   H7        1.0  0.51512  0.02672  0.72908  1.0000 0.1286833821
H   H8        1.0  0.72908  0.72908  0.02672  1.0000 0.1286833821
H   H9        1.0  0.72908  0.02672  0.51512  1.0000 0.1286833821
H   H10       1.0  0.51512  0.72908  0.72908  1.0000 0.1286833821
H   H11       1.0  0.72908  0.51512  0.02672  1.0000 0.1286833821
H   H12       1.0  0.02672  0.72908  0.72908  1.0000 0.1286833821
H   H13       1.0  0.48488  0.27092  0.27092  1.0000 0.1286833821
H   H14       1.0  0.27092  0.48488  0.97328  1.0000 0.1286833821
H   H15       1.0  0.97328  0.27092  0.27092  1.0000 0.1286833821
H   H16       1.0  0.27092  0.97328  0.48488  1.0000 0.1286833821
H   H17       1.0  0.97328  0.48488  0.27092  1.0000 0.1286833821
H   H18       1.0  0.27092  0.27092  0.97328  1.0000 0.1286833821
H   H19       1.0  0.48488  0.97328  0.27092  1.0000 0.1286833821
H   H20       1.0  0.27092  0.27092  0.48488  1.0000 0.1286833821
H   H21       1.0  0.27092  0.97328  0.27092  1.0000 0.1286833821
H   H22       1.0  0.48488  0.27092  0.97328  1.0000 0.1286833821
H   H23       1.0  0.27092  0.48488  0.27092  1.0000 0.1286833821
H   H24       1.0  0.97328  0.27092  0.48488  1.0000 0.1286833821
H   H25       1.0  0.71190  0.28810  0.95930  1.0000 0.4068720374
H   H26       1.0  0.28810  0.71190  0.04070  1.0000 0.4068720374
H   H27       1.0  0.95930  0.04070  0.71190  1.0000 0.4068720374
H   H28       1.0  0.04070  0.95930  0.28810  1.0000 0.4068720374
H   H29       1.0  0.95930  0.71190  0.28810  1.0000 0.4068720374
H   H30       1.0  0.04070  0.28810  0.71190  1.0000 0.4068720374
H   H31       1.0  0.71190  0.95930  0.04070  1.0000 0.4068720374
H   H32       1.0  0.28810  0.04070  0.95930  1.0000 0.4068720374
H   H33       1.0  0.28810  0.95930  0.71190  1.0000 0.4068720374
H   H34       1.0  0.71190  0.04070  0.28810  1.0000 0.4068720374
H   H35       1.0  0.04070  0.71190  0.95930  1.0000 0.4068720374
H   H36       1.0  0.95930  0.28810  0.04070  1.0000 0.4068720374
H   H37       1.0  0.28810  0.71190  0.95930  1.0000 0.4068720374
H   H38       1.0  0.71190  0.28810  0.04070  1.0000 0.4068720374
H   H39       1.0  0.04070  0.95930  0.71190  1.0000 0.4068720374
H   H40       1.0  0.95930  0.04070  0.28810  1.0000 0.4068720374
H   H41       1.0  0.04070  0.28810  0.95930  1.0000 0.4068720374
H   H42       1.0  0.95930  0.71190  0.04070  1.0000 0.4068720374
H   H43       1.0  0.28810  0.04070  0.71190  1.0000 0.4068720374
H   H44       1.0  0.71190  0.95930  0.28810  1.0000 0.4068720374
H   H45       1.0  0.71190  0.04070  0.95930  1.0000 0.4068720374
H   H46       1.0  0.28810  0.95930  0.04070  1.0000 0.4068720374
H   H47       1.0  0.95930  0.28810  0.71190  1.0000 0.4068720374
H   H48       1.0  0.04070  0.71190  0.28810  1.0000 0.4068720374
C   C1        1.0  0.56980  0.56980  0.02240  1.0000 0.5743316221
C   C2        1.0  0.61350  0.61350  0.03090  1.0000 -0.0228893384
C   C3        1.0  0.56980  0.56980  0.83800  1.0000 0.5743316221
C   C4        1.0  0.61350  0.61350  0.74210  1.0000 -0.0228893384
C   C5        1.0  0.02240  0.83800  0.56980  1.0000 0.5743316221
C   C6        1.0  0.03090  0.74210  0.61350  1.0000 -0.0228893384
C   C7        1.0  0.83800  0.02240  0.56980  1.0000 0.5743316221
C   C8        1.0  0.74210  0.03090  0.61350  1.0000 -0.0228893384
C   C9        1.0  0.02240  0.56980  0.56980  1.0000 0.5743316221
C   C10       1.0  0.03090  0.61350  0.61350  1.0000 -0.0228893384
C   C11       1.0  0.83800  0.56980  0.56980  1.0000 0.5743316221
C   C12       1.0  0.74210  0.61350  0.61350  1.0000 -0.0228893384
C   C13       1.0  0.56980  0.02240  0.83800  1.0000 0.5743316221
C   C14       1.0  0.61350  0.03090  0.74210  1.0000 -0.0228893384
C   C15       1.0  0.56980  0.83800  0.02240  1.0000 0.5743316221
C   C16       1.0  0.61350  0.74210  0.03090  1.0000 -0.0228893384
C   C17       1.0  0.56980  0.02240  0.56980  1.0000 0.5743316221
C   C18       1.0  0.61350  0.03090  0.61350  1.0000 -0.0228893384
C   C19       1.0  0.56980  0.83800  0.56980  1.0000 0.5743316221
C   C20       1.0  0.61350  0.74210  0.61350  1.0000 -0.0228893384
C   C21       1.0  0.83800  0.56980  0.02240  1.0000 0.5743316221
C   C22       1.0  0.74210  0.61350  0.03090  1.0000 -0.0228893384
C   C23       1.0  0.02240  0.56980  0.83800  1.0000 0.5743316221
C   C24       1.0  0.03090  0.61350  0.74210  1.0000 -0.0228893384
C   C25       1.0  0.43020  0.43020  0.16200  1.0000 0.5743316221
C   C26       1.0  0.38650  0.38650  0.25790  1.0000 -0.0228893384
C   C27       1.0  0.43020  0.43020  0.97760  1.0000 0.5743316221
C   C28       1.0  0.38650  0.38650  0.96910  1.0000 -0.0228893384
C   C29       1.0  0.97760  0.16200  0.43020  1.0000 0.5743316221
C   C30       1.0  0.96910  0.25790  0.38650  1.0000 -0.0228893384
C   C31       1.0  0.16200  0.97760  0.43020  1.0000 0.5743316221
C   C32       1.0  0.25790  0.96910  0.38650  1.0000 -0.0228893384
C   C33       1.0  0.97760  0.43020  0.16200  1.0000 0.5743316221
C   C34       1.0  0.96910  0.38650  0.25790  1.0000 -0.0228893384
C   C35       1.0  0.16200  0.43020  0.97760  1.0000 0.5743316221
C   C36       1.0  0.25790  0.38650  0.96910  1.0000 -0.0228893384
C   C37       1.0  0.43020  0.97760  0.43020  1.0000 0.5743316221
C   C38       1.0  0.38650  0.96910  0.38650  1.0000 -0.0228893384
C   C39       1.0  0.43020  0.16200  0.43020  1.0000 0.5743316221
C   C40       1.0  0.38650  0.25790  0.38650  1.0000 -0.0228893384
C   C41       1.0  0.43020  0.97760  0.16200  1.0000 0.5743316221
C   C42       1.0  0.38650  0.96910  0.25790  1.0000 -0.0228893384
C   C43       1.0  0.43020  0.16200  0.97760  1.0000 0.5743316221
C   C44       1.0  0.38650  0.25790  0.96910  1.0000 -0.0228893384
C   C45       1.0  0.16200  0.43020  0.43020  1.0000 0.5743316221
C   C46       1.0  0.25790  0.38650  0.38650  1.0000 -0.0228893384
C   C47       1.0  0.97760  0.43020  0.43020  1.0000 0.5743316221
C   C48       1.0  0.96910  0.38650  0.38650  1.0000 -0.0228893384
C   C49       1.0  0.57190  0.69950  0.02910  1.0000 -0.0994526972
C   C50       1.0  0.69950  0.57190  0.69950  1.0000 -0.0994526972
C   C51       1.0  0.02910  0.69950  0.57190  1.0000 -0.0994526972
C   C52       1.0  0.69950  0.02910  0.69950  1.0000 -0.0994526972
C   C53       1.0  0.02910  0.57190  0.69950  1.0000 -0.0994526972
C   C54       1.0  0.69950  0.69950  0.57190  1.0000 -0.0994526972
C   C55       1.0  0.57190  0.02910  0.69950  1.0000 -0.0994526972
C   C56       1.0  0.69950  0.69950  0.02910  1.0000 -0.0994526972
C   C57       1.0  0.69950  0.02910  0.57190  1.0000 -0.0994526972
C   C58       1.0  0.57190  0.69950  0.69950  1.0000 -0.0994526972
C   C59       1.0  0.69950  0.57190  0.02910  1.0000 -0.0994526972
C   C60       1.0  0.02910  0.69950  0.69950  1.0000 -0.0994526972
C   C61       1.0  0.42810  0.30050  0.30050  1.0000 -0.0994526972
C   C62       1.0  0.30050  0.42810  0.97090  1.0000 -0.0994526972
C   C63       1.0  0.97090  0.30050  0.30050  1.0000 -0.0994526972
C   C64       1.0  0.30050  0.97090  0.42810  1.0000 -0.0994526972
C   C65       1.0  0.97090  0.42810  0.30050  1.0000 -0.0994526972
C   C66       1.0  0.30050  0.30050  0.97090  1.0000 -0.0994526972
C   C67       1.0  0.42810  0.97090  0.30050  1.0000 -0.0994526972
C   C68       1.0  0.30050  0.30050  0.42810  1.0000 -0.0994526972
C   C69       1.0  0.30050  0.97090  0.30050  1.0000 -0.0994526972
C   C70       1.0  0.42810  0.30050  0.97090  1.0000 -0.0994526972
C   C71       1.0  0.30050  0.42810  0.30050  1.0000 -0.0994526972
C   C72       1.0  0.97090  0.30050  0.42810  1.0000 -0.0994526972
O   O1        1.0  0.61250  0.49290  0.02110  1.0000 -0.5298373964
O   O2        1.0  0.49290  0.61250  0.87350  1.0000 -0.5298373964
O   O3        1.0  0.02110  0.87350  0.61250  1.0000 -0.5298373964
O   O4        1.0  0.87350  0.02110  0.49290  1.0000 -0.5298373964
O   O5        1.0  0.02110  0.61250  0.49290  1.0000 -0.5298373964
O   O6        1.0  0.87350  0.49290  0.61250  1.0000 -0.5298373964
O   O7        1.0  0.61250  0.02110  0.87350  1.0000 -0.5298373964
O   O8        1.0  0.49290  0.87350  0.02110  1.0000 -0.5298373964
O   O9        1.0  0.49290  0.02110  0.61250  1.0000 -0.5298373964
O   O10       1.0  0.61250  0.87350  0.49290  1.0000 -0.5298373964
O   O11       1.0  0.87350  0.61250  0.02110  1.0000 -0.5298373964
O   O12       1.0  0.02110  0.49290  0.87350  1.0000 -0.5298373964
O   O13       1.0  0.38750  0.50710  0.12650  1.0000 -0.5298373964
O   O14       1.0  0.50710  0.38750  0.97890  1.0000 -0.5298373964
O   O15       1.0  0.97890  0.12650  0.50710  1.0000 -0.5298373964
O   O16       1.0  0.12650  0.97890  0.38750  1.0000 -0.5298373964
O   O17       1.0  0.97890  0.38750  0.12650  1.0000 -0.5298373964
O   O18       1.0  0.12650  0.50710  0.97890  1.0000 -0.5298373964
O   O19       1.0  0.38750  0.97890  0.50710  1.0000 -0.5298373964
O   O20       1.0  0.50710  0.12650  0.38750  1.0000 -0.5298373964
O   O21       1.0  0.50710  0.97890  0.12650  1.0000 -0.5298373964
O   O22       1.0  0.38750  0.12650  0.97890  1.0000 -0.5298373964
O   O23       1.0  0.12650  0.38750  0.50710  1.0000 -0.5298373964
O   O24       1.0  0.97890  0.50710  0.38750  1.0000 -0.5298373964
O   O25       1.0  0.38750  0.50710  0.97890  1.0000 -0.5298373964
O   O26       1.0  0.50710  0.38750  0.12650  1.0000 -0.5298373964
O   O27       1.0  0.97890  0.12650  0.38750  1.0000 -0.5298373964
O   O28       1.0  0.12650  0.97890  0.50710  1.0000 -0.5298373964
O   O29       1.0  0.97890  0.38750  0.50710  1.0000 -0.5298373964
O   O30       1.0  0.12650  0.50710  0.38750  1.0000 -0.5298373964
O   O31       1.0  0.38750  0.97890  0.12650  1.0000 -0.5298373964
O   O32       1.0  0.50710  0.12650  0.97890  1.0000 -0.5298373964
O   O33       1.0  0.50710  0.97890  0.38750  1.0000 -0.5298373964
O   O34       1.0  0.38750  0.12650  0.50710  1.0000 -0.5298373964
O   O35       1.0  0.12650  0.38750  0.97890  1.0000 -0.5298373964
O   O36       1.0  0.97890  0.50710  0.12650  1.0000 -0.5298373964
O   O37       1.0  0.61250  0.49290  0.87350  1.0000 -0.5298373964
O   O38       1.0  0.49290  0.61250  0.02110  1.0000 -0.5298373964
O   O39       1.0  0.02110  0.87350  0.49290  1.0000 -0.5298373964
O   O40       1.0  0.87350  0.02110  0.61250  1.0000 -0.5298373964
O   O41       1.0  0.02110  0.61250  0.87350  1.0000 -0.5298373964
O   O42       1.0  0.87350  0.49290  0.02110  1.0000 -0.5298373964
O   O43       1.0  0.61250  0.02110  0.49290  1.0000 -0.5298373964
O   O44       1.0  0.49290  0.87350  0.61250  1.0000 -0.5298373964
O   O45       1.0  0.49290  0.02110  0.87350  1.0000 -0.5298373964
O   O46       1.0  0.61250  0.87350  0.02110  1.0000 -0.5298373964
O   O47       1.0  0.87350  0.61250  0.49290  1.0000 -0.5298373964
O   O48       1.0  0.02110  0.49290  0.61250  1.0000 -0.5298373964
O   O49       1.0  0.68420  0.31580  0.00000  1.0000 -0.7049814802
O   O50       1.0  0.31580  0.68420  0.00000  1.0000 -0.7072641756
O   O51       1.0  0.00000  0.00000  0.68420  1.0000 -0.7072641756
O   O52       1.0  0.00000  0.00000  0.31580  1.0000 -0.7072641756
O   O53       1.0  0.00000  0.68420  0.31580  1.0000 -0.7072641756
O   O54       1.0  0.00000  0.31580  0.68420  1.0000 -0.7072641756
O   O55       1.0  0.68420  0.00000  0.00000  1.0000 -0.7072641756
O   O56       1.0  0.31580  0.00000  0.00000  1.0000 -0.7072641756
O   O57       1.0  0.31580  0.00000  0.68420  1.0000 -0.7072641756
O   O58       1.0  0.68420  0.00000  0.31580  1.0000 -0.7072641756
O   O59       1.0  0.00000  0.68420  0.00000  1.0000 -0.7072641756
O   O60       1.0  0.00000  0.31580  0.00000  1.0000 -0.7072641756
