# DDEC6 charges by PACMAN v1.1 (https://github.com/mtap-research/PACMAN-charge/)
data_2023[Co][pcu]3[FSR]1
_chemical_formula_sum              "Co4 H72 C100 N16 O20"
_cell_length_a       10.7124
_cell_length_b       21.0705
_cell_length_c       12.0672
_cell_angle_alpha    90
_cell_angle_beta     99.579
_cell_angle_gamma    90

_symmetry_space_group_name_H-M    "P 1"
_symmetry_Int_Tables_number       1

loop_
  _symmetry_equiv_pos_as_xyz
  'x, y, z'

loop_
  _atom_site_type_symbol
  _atom_site_label
  _atom_site_symmetry_multiplicity
  _atom_site_fract_x
  _atom_site_fract_y
  _atom_site_fract_z
  _atom_site_occupancy
  _atom_site_charge
Co  Co1       1.0  0.07101  0.55581  0.90284  1.0000 0.8625388619
Co  Co2       1.0  0.92899  0.05581  0.59716  1.0000 0.8625388619
Co  Co3       1.0  0.92899  0.44419  0.09716  1.0000 0.8625388619
Co  Co4       1.0  0.07101  0.94419  0.40284  1.0000 0.8625388619
H   H1        1.0  0.58240  0.48755  0.27910  1.0000 0.2855637845
H   H2        1.0  0.41760  0.98755  0.22090  1.0000 0.2855637845
H   H3        1.0  0.41760  0.51245  0.72090  1.0000 0.2855637845
H   H4        1.0  0.58240  0.01245  0.77910  1.0000 0.2855637845
H   H5        1.0  0.72800  0.49600  0.41000  1.0000 0.2855637845
H   H6        1.0  0.27200  0.99600  0.09000  1.0000 0.2855637845
H   H7        1.0  0.27200  0.50400  0.59000  1.0000 0.2855637845
H   H8        1.0  0.72800  0.00400  0.91000  1.0000 0.2855637845
H   H9        1.0  0.02960  0.48177  0.69050  1.0000 0.111183572
H   H10       1.0  0.97040  0.98177  0.80950  1.0000 0.111183572
H   H11       1.0  0.97040  0.51823  0.30950  1.0000 0.111183572
H   H12       1.0  0.02960  0.01823  0.19050  1.0000 0.111183572
H   H13       1.0  0.66510  0.59862  0.61900  1.0000 0.1404802478
H   H14       1.0  0.33490  0.09862  0.88100  1.0000 0.1404802478
H   H15       1.0  0.33490  0.40138  0.38100  1.0000 0.1404802478
H   H16       1.0  0.66510  0.90138  0.11900  1.0000 0.1404802478
H   H17       1.0  0.32940  0.59122  0.30510  1.0000 0.1453622904
H   H18       1.0  0.67060  0.09122  0.19490  1.0000 0.1453622904
H   H19       1.0  0.67060  0.40878  0.69490  1.0000 0.1453622904
H   H20       1.0  0.32940  0.90878  0.80510  1.0000 0.1453622904
H   H21       1.0  0.89610  0.46566  0.52620  1.0000 0.1404802478
H   H22       1.0  0.10390  0.96566  0.97380  1.0000 0.1404802478
H   H23       1.0  0.10390  0.53434  0.47380  1.0000 0.1404802478
H   H24       1.0  0.89610  0.03434  0.02620  1.0000 0.1404802478
H   H25       1.0  0.48060  0.47210  0.10270  1.0000 0.1404802478
H   H26       1.0  0.51940  0.97210  0.39730  1.0000 0.1404802478
H   H27       1.0  0.51940  0.52790  0.89730  1.0000 0.1404802478
H   H28       1.0  0.48060  0.02790  0.60270  1.0000 0.1404802478
H   H29       1.0  0.31220  0.49060  0.96670  1.0000 0.1010416139
H   H30       1.0  0.68780  0.99060  0.53330  1.0000 0.1010416139
H   H31       1.0  0.68780  0.50940  0.03330  1.0000 0.1010416139
H   H32       1.0  0.31220  0.00940  0.46670  1.0000 0.1010416139
H   H33       1.0  0.16030  0.60365  0.16170  1.0000 0.111183572
H   H34       1.0  0.83970  0.10365  0.33830  1.0000 0.111183572
H   H35       1.0  0.83970  0.39635  0.83830  1.0000 0.111183572
H   H36       1.0  0.16030  0.89635  0.66170  1.0000 0.111183572
H   H37       1.0  0.80910  0.61252  0.78010  1.0000 0.111183572
H   H38       1.0  0.19090  0.11252  0.71990  1.0000 0.111183572
H   H39       1.0  0.19090  0.38748  0.21990  1.0000 0.111183572
H   H40       1.0  0.80910  0.88748  0.28010  1.0000 0.111183572
H   H41       1.0  0.74400  0.57600  0.20800  1.0000 0.111183572
H   H42       1.0  0.25600  0.07600  0.29200  1.0000 0.111183572
H   H43       1.0  0.25600  0.42400  0.79200  1.0000 0.111183572
H   H44       1.0  0.74400  0.92400  0.70800  1.0000 0.111183572
H   H45       1.0  0.59700  0.64400  0.26700  1.0000 0.1010416139
H   H46       1.0  0.40300  0.14400  0.23300  1.0000 0.1010416139
H   H47       1.0  0.40300  0.35600  0.73300  1.0000 0.1010416139
H   H48       1.0  0.59700  0.85600  0.76700  1.0000 0.1010416139
H   H49       1.0  0.84800  0.70400  0.98200  1.0000 0.1157524643
H   H50       1.0  0.15200  0.20400  0.51800  1.0000 0.1157524643
H   H51       1.0  0.15200  0.29600  0.01800  1.0000 0.1157524643
H   H52       1.0  0.84800  0.79600  0.48200  1.0000 0.1157524643
H   H53       1.0  0.34900  0.88600  0.09300  1.0000 0.111183572
H   H54       1.0  0.65100  0.38600  0.40700  1.0000 0.111183572
H   H55       1.0  0.65100  0.11400  0.90700  1.0000 0.111183572
H   H56       1.0  0.34900  0.61400  0.59300  1.0000 0.111183572
H   H57       1.0  0.49430  0.81266  0.04470  1.0000 0.1157524643
H   H58       1.0  0.50570  0.31266  0.45530  1.0000 0.1157524643
H   H59       1.0  0.50570  0.18734  0.95530  1.0000 0.1157524643
H   H60       1.0  0.49430  0.68734  0.54470  1.0000 0.1157524643
H   H61       1.0  0.68450  0.77690  0.04290  1.0000 0.1157524643
H   H62       1.0  0.31550  0.27690  0.45710  1.0000 0.1157524643
H   H63       1.0  0.31550  0.22310  0.95710  1.0000 0.1157524643
H   H64       1.0  0.68450  0.72310  0.54290  1.0000 0.1157524643
H   H65       1.0  0.36780  0.79510  0.39090  1.0000 0.1289145191
H   H66       1.0  0.63220  0.29510  0.10910  1.0000 0.1289145191
H   H67       1.0  0.63220  0.20490  0.60910  1.0000 0.1289145191
H   H68       1.0  0.36780  0.70490  0.89090  1.0000 0.1289145191
H   H69       1.0  0.51960  0.72800  0.34430  1.0000 0.111183572
H   H70       1.0  0.48040  0.22800  0.15570  1.0000 0.111183572
H   H71       1.0  0.48040  0.27200  0.65570  1.0000 0.111183572
H   H72       1.0  0.51960  0.77200  0.84430  1.0000 0.111183572
C   C1        1.0  0.42670  0.52970  0.22130  1.0000 0.2824063923
C   C2        1.0  0.57330  0.02970  0.27870  1.0000 0.2824063923
C   C3        1.0  0.57330  0.47030  0.77870  1.0000 0.2824063923
C   C4        1.0  0.42670  0.97030  0.72130  1.0000 0.2824063923
C   C5        1.0  0.57350  0.54300  0.40330  1.0000 0.6119812158
C   C6        1.0  0.42650  0.04300  0.09670  1.0000 0.6119812158
C   C7        1.0  0.42650  0.45700  0.59670  1.0000 0.6119812158
C   C8        1.0  0.57350  0.95700  0.90330  1.0000 0.6119812158
C   C9        1.0  0.95620  0.50606  0.67540  1.0000 0.0906960444
C   C10       1.0  0.04380  0.00606  0.82460  1.0000 0.0831072679
C   C11       1.0  0.04380  0.49394  0.32460  1.0000 0.0831072679
C   C12       1.0  0.95620  0.99394  0.17540  1.0000 0.0906960444
C   C13       1.0  0.73950  0.57502  0.63110  1.0000 -0.2462758545
C   C14       1.0  0.26050  0.07502  0.86890  1.0000 -0.2447967801
C   C15       1.0  0.26050  0.42498  0.36890  1.0000 -0.2447967801
C   C16       1.0  0.73950  0.92498  0.13110  1.0000 -0.2447967801
C   C17       1.0  0.80530  0.63675  0.09370  1.0000 -0.0385889348
C   C18       1.0  0.19470  0.13675  0.40630  1.0000 -0.0385889348
C   C19       1.0  0.19470  0.36325  0.90630  1.0000 -0.0385889348
C   C20       1.0  0.80530  0.86325  0.59370  1.0000 -0.0385889348
C   C21       1.0  0.76570  0.53121  0.55130  1.0000 0.2824063923
C   C22       1.0  0.23430  0.03121  0.94870  1.0000 0.2824063923
C   C23       1.0  0.23430  0.46879  0.44870  1.0000 0.2824063923
C   C24       1.0  0.76570  0.96879  0.05130  1.0000 0.2824063923
C   C25       1.0  0.32770  0.56988  0.23740  1.0000 -0.2462758545
C   C26       1.0  0.67230  0.06988  0.26260  1.0000 -0.2462758545
C   C27       1.0  0.67230  0.43012  0.76260  1.0000 -0.2462758545
C   C28       1.0  0.32770  0.93012  0.73740  1.0000 -0.2462758545
C   C29       1.0  0.87650  0.49600  0.57660  1.0000 -0.2588585738
C   C30       1.0  0.12350  0.99600  0.92340  1.0000 -0.2588585738
C   C31       1.0  0.12350  0.50400  0.42340  1.0000 -0.2588585738
C   C32       1.0  0.87650  0.00400  0.07660  1.0000 -0.2588585738
C   C33       1.0  0.41720  0.49960  0.11670  1.0000 -0.2588585738
C   C34       1.0  0.58280  0.99960  0.38330  1.0000 -0.2588585738
C   C35       1.0  0.58280  0.50040  0.88330  1.0000 -0.2588585738
C   C36       1.0  0.41720  0.00040  0.61670  1.0000 -0.2588585738
C   C37       1.0  0.31520  0.51060  0.03580  1.0000 0.0706307178
C   C38       1.0  0.68480  0.01060  0.46420  1.0000 0.0706307178
C   C39       1.0  0.68480  0.48940  0.96420  1.0000 0.0706307178
C   C40       1.0  0.31520  0.98940  0.53580  1.0000 0.0706307178
C   C41       1.0  0.89870  0.59081  0.05740  1.0000 0.5627585527
C   C42       1.0  0.10130  0.09081  0.44260  1.0000 0.5627585527
C   C43       1.0  0.10130  0.40919  0.94260  1.0000 0.5627585527
C   C44       1.0  0.89870  0.90919  0.55740  1.0000 0.5627585527
C   C45       1.0  0.22640  0.57725  0.14990  1.0000 0.111183572
C   C46       1.0  0.77360  0.07725  0.35010  1.0000 0.111183572
C   C47       1.0  0.77360  0.42275  0.85010  1.0000 0.111183572
C   C48       1.0  0.22640  0.92275  0.64990  1.0000 0.111183572
C   C49       1.0  0.82650  0.58254  0.72820  1.0000 0.0906960444
C   C50       1.0  0.17350  0.08254  0.77180  1.0000 0.0906960444
C   C51       1.0  0.17350  0.41746  0.27180  1.0000 0.0906960444
C   C52       1.0  0.82650  0.91746  0.22820  1.0000 0.0906960444
C   C53       1.0  0.25090  0.89471  0.28200  1.0000 0.5488844689
C   C54       1.0  0.74910  0.39471  0.21800  1.0000 0.5488844689
C   C55       1.0  0.74910  0.10529  0.71800  1.0000 0.5488844689
C   C56       1.0  0.25090  0.60529  0.78200  1.0000 0.5488844689
C   C57       1.0  0.73750  0.62030  0.17840  1.0000 -0.1055680562
C   C58       1.0  0.26250  0.12030  0.32160  1.0000 -0.1055680562
C   C59       1.0  0.26250  0.37970  0.82160  1.0000 -0.1055680562
C   C60       1.0  0.73750  0.87970  0.67840  1.0000 -0.1055680562
C   C61       1.0  0.34450  0.84784  0.24940  1.0000 -0.0293291083
C   C62       1.0  0.65550  0.34784  0.25060  1.0000 -0.0293291083
C   C63       1.0  0.65550  0.15216  0.75060  1.0000 -0.0293291083
C   C64       1.0  0.34450  0.65216  0.74940  1.0000 -0.0293291083
C   C65       1.0  0.64780  0.66130  0.20880  1.0000 -0.148350266
C   C66       1.0  0.35220  0.16130  0.29120  1.0000 -0.148350266
C   C67       1.0  0.35220  0.33870  0.79120  1.0000 -0.148350266
C   C68       1.0  0.64780  0.83870  0.70880  1.0000 -0.148350266
C   C69       1.0  0.52590  0.76270  0.18910  1.0000 0.0706307178
C   C70       1.0  0.47410  0.26270  0.31090  1.0000 0.0706307178
C   C71       1.0  0.47410  0.23730  0.81090  1.0000 0.0706307178
C   C72       1.0  0.52590  0.73730  0.68910  1.0000 0.0706307178
C   C73       1.0  0.62370  0.71940  0.15760  1.0000 0.0831072679
C   C74       1.0  0.37630  0.21940  0.34240  1.0000 0.0831072679
C   C75       1.0  0.37630  0.28060  0.84240  1.0000 0.0831072679
C   C76       1.0  0.62370  0.78060  0.65760  1.0000 0.0831072679
C   C77       1.0  0.78540  0.69570  0.04380  1.0000 -0.0819880415
C   C78       1.0  0.21460  0.19570  0.45620  1.0000 -0.0819880415
C   C79       1.0  0.21460  0.30430  0.95620  1.0000 -0.0819880415
C   C80       1.0  0.78540  0.80430  0.54380  1.0000 -0.0819880415
C   C81       1.0  0.38560  0.85250  0.14580  1.0000 -0.1164171222
C   C82       1.0  0.61440  0.35250  0.35420  1.0000 -0.1164171222
C   C83       1.0  0.61440  0.14750  0.85420  1.0000 -0.1164171222
C   C84       1.0  0.38560  0.64750  0.64580  1.0000 -0.1164171222
C   C85       1.0  0.47180  0.80983  0.11570  1.0000 -0.1385423068
C   C86       1.0  0.52820  0.30983  0.38430  1.0000 -0.1385423068
C   C87       1.0  0.52820  0.19017  0.88430  1.0000 -0.1385423068
C   C88       1.0  0.47180  0.69017  0.61570  1.0000 -0.1385423068
C   C89       1.0  0.69610  0.73700  0.07610  1.0000 -0.1572394344
C   C90       1.0  0.30390  0.23700  0.42390  1.0000 -0.1572394344
C   C91       1.0  0.30390  0.26300  0.92390  1.0000 -0.1572394344
C   C92       1.0  0.69610  0.76300  0.57610  1.0000 -0.1572394344
C   C93       1.0  0.39500  0.79980  0.32210  1.0000 -0.1025220279
C   C94       1.0  0.60500  0.29980  0.17790  1.0000 -0.1025220279
C   C95       1.0  0.60500  0.20020  0.67790  1.0000 -0.1025220279
C   C96       1.0  0.39500  0.70020  0.82210  1.0000 -0.1025220279
C   C97       1.0  0.48510  0.75890  0.29320  1.0000 -0.1385423068
C   C98       1.0  0.51490  0.25890  0.20680  1.0000 -0.1385423068
C   C99       1.0  0.51490  0.24110  0.70680  1.0000 -0.1385423068
C   C100      1.0  0.48510  0.74110  0.79320  1.0000 -0.1385423068
N   N1        1.0  0.93460  0.54948  0.75280  1.0000 -0.2677321929
N   N2        1.0  0.06540  0.04948  0.74720  1.0000 -0.2677321929
N   N3        1.0  0.06540  0.45052  0.24720  1.0000 -0.2677321929
N   N4        1.0  0.93460  0.95052  0.25280  1.0000 -0.2677321929
N   N5        1.0  0.21790  0.54884  0.04980  1.0000 -0.2677321929
N   N6        1.0  0.78210  0.04884  0.45020  1.0000 -0.2677321929
N   N7        1.0  0.78210  0.45116  0.95020  1.0000 -0.2677321929
N   N8        1.0  0.21790  0.95116  0.54980  1.0000 -0.2677321929
N   N9        1.0  0.53370  0.51642  0.29870  1.0000 -0.4109912861
N   N10       1.0  0.46630  0.01642  0.20130  1.0000 -0.4109912861
N   N11       1.0  0.46630  0.48358  0.70130  1.0000 -0.4109912861
N   N12       1.0  0.53370  0.98358  0.79870  1.0000 -0.4109912861
N   N13       1.0  0.69150  0.51967  0.44740  1.0000 -0.4038059834
N   N14       1.0  0.30850  0.01967  0.05260  1.0000 -0.4038059834
N   N15       1.0  0.30850  0.48033  0.55260  1.0000 -0.4038059834
N   N16       1.0  0.69150  0.98033  0.94740  1.0000 -0.4038059834
O   O1        1.0  0.91610  0.53893  0.10730  1.0000 -0.5670467738
O   O2        1.0  0.08390  0.03893  0.39270  1.0000 -0.5670467738
O   O3        1.0  0.08390  0.46107  0.89270  1.0000 -0.5670467738
O   O4        1.0  0.91610  0.96107  0.60730  1.0000 -0.5670467738
O   O5        1.0  0.95280  0.60798  0.97670  1.0000 -0.5430432681
O   O6        1.0  0.04720  0.10798  0.52330  1.0000 -0.5430432681
O   O7        1.0  0.04720  0.39202  0.02330  1.0000 -0.5430432681
O   O8        1.0  0.95280  0.89202  0.47670  1.0000 -0.5430432681
O   O9        1.0  0.17970  0.87537  0.34870  1.0000 -0.5262832168
O   O10       1.0  0.82030  0.37537  0.15130  1.0000 -0.5262832168
O   O11       1.0  0.82030  0.12463  0.65130  1.0000 -0.5262832168
O   O12       1.0  0.17970  0.62463  0.84870  1.0000 -0.5262832168
O   O13       1.0  0.51330  0.58063  0.44940  1.0000 -0.506953654
O   O14       1.0  0.48670  0.08063  0.05060  1.0000 -0.506953654
O   O15       1.0  0.48670  0.41937  0.55060  1.0000 -0.506953654
O   O16       1.0  0.51330  0.91937  0.94940  1.0000 -0.506953654
O   O17       1.0  0.24890  0.94965  0.24430  1.0000 -0.5875773105
O   O18       1.0  0.75110  0.44965  0.25570  1.0000 -0.5875773105
O   O19       1.0  0.75110  0.05035  0.75570  1.0000 -0.5875773105
O   O20       1.0  0.24890  0.55035  0.74430  1.0000 -0.5875773105
