# DDEC6 charges by PACMAN v1.1 (https://github.com/mtap-research/PACMAN-charge/)
data_2023[La][nan]2[FSR]1
_chemical_formula_sum              "La4 H128 C138 N8 O32"
_cell_length_a       9.9153
_cell_length_b       16.7994
_cell_length_c       23.2844
_cell_angle_alpha    106.095
_cell_angle_beta     92.981
_cell_angle_gamma    89.42

_symmetry_space_group_name_H-M    "P 1"
_symmetry_Int_Tables_number       1

loop_
  _symmetry_equiv_pos_as_xyz
  'x, y, z'

loop_
  _atom_site_type_symbol
  _atom_site_label
  _atom_site_symmetry_multiplicity
  _atom_site_fract_x
  _atom_site_fract_y
  _atom_site_fract_z
  _atom_site_occupancy
  _atom_site_charge
La  La1       1.0  0.56865  0.43110  0.81864  1.0000 1.9431503678
La  La2       1.0  0.43135  0.56890  0.18136  1.0000 1.9431503678
La  La3       1.0  0.05377  0.42290  0.81899  1.0000 1.9101764822
La  La4       1.0  0.94623  0.57710  0.18101  1.0000 1.9101764822
H   H1        1.0  0.46072  0.53634  0.72532  1.0000 0.4034368808
H   H2        1.0  0.53928  0.46366  0.27468  1.0000 0.4034368808
H   H3        1.0  0.41667  0.44518  0.69278  1.0000 0.4034368808
H   H4        1.0  0.58333  0.55482  0.30722  1.0000 0.4034368808
H   H5        1.0  0.67315  0.47234  0.94668  1.0000 0.3282876873
H   H6        1.0  0.32685  0.52766  0.05332  1.0000 0.3193049694
H   H7        1.0  0.77439  0.49749  0.91926  1.0000 0.3282876873
H   H8        1.0  0.22561  0.50251  0.08074  1.0000 0.3282876873
H   H9        1.0  0.46117  0.71741  0.90628  1.0000 0.1190042891
H   H10       1.0  0.53883  0.28259  0.09372  1.0000 0.1190042891
H   H11       1.0  0.05420  0.69201  0.61832  1.0000 0.1117406276
H   H12       1.0  0.94580  0.30799  0.38168  1.0000 0.1117406276
H   H13       1.0  0.40333  0.99218  0.86924  1.0000 0.1190042891
H   H14       1.0  0.59667  0.00782  0.13076  1.0000 0.1190042891
H   H15       1.0  0.45875  0.02269  0.93584  1.0000 0.1117406276
H   H16       1.0  0.54125  0.97731  0.06416  1.0000 0.1117406276
H   H17       1.0  0.31653  0.13186  0.11687  1.0000 0.1117406276
H   H18       1.0  0.68347  0.86814  0.88313  1.0000 0.1117406276
H   H19       1.0  0.54492  0.27512  0.90759  1.0000 0.1190042891
H   H20       1.0  0.45508  0.72488  0.09241  1.0000 0.1190042891
H   H21       1.0  0.62469  0.17406  0.78364  1.0000 0.1190042891
H   H22       1.0  0.37531  0.82594  0.21636  1.0000 0.1190042891
H   H23       1.0  0.14819  0.03087  0.64584  1.0000 0.1190042891
H   H24       1.0  0.85181  0.96913  0.35416  1.0000 0.1190042891
H   H25       1.0  0.59339  0.76571  0.61881  1.0000 0.1190042891
H   H26       1.0  0.40661  0.23429  0.38119  1.0000 0.1190042891
H   H27       1.0  0.97978  0.85553  0.42949  1.0000 0.1190042891
H   H28       1.0  0.02022  0.14447  0.57051  1.0000 0.1190042891
H   H29       1.0  0.77156  0.92756  0.51163  1.0000 0.101290241
H   H30       1.0  0.22844  0.07244  0.48837  1.0000 0.101290241
H   H31       1.0  0.40785  0.85506  0.91961  1.0000 0.1117406276
H   H32       1.0  0.59215  0.14494  0.08039  1.0000 0.1117406276
H   H33       1.0  0.12033  0.90554  0.98198  1.0000 0.1190042891
H   H34       1.0  0.87967  0.09446  0.01802  1.0000 0.1190042891
H   H35       1.0  0.37984  0.96561  0.54425  1.0000 0.1190042891
H   H36       1.0  0.62016  0.03439  0.45575  1.0000 0.1190042891
H   H37       1.0  0.43382  0.93168  0.59725  1.0000 0.1117406276
H   H38       1.0  0.56618  0.06832  0.40275  1.0000 0.1117406276
H   H39       1.0  0.10583  0.65139  0.81602  1.0000 0.1190042891
H   H40       1.0  0.89417  0.34861  0.18398  1.0000 0.1190042891
H   H41       1.0  0.14262  0.96159  0.51982  1.0000 0.1117406276
H   H42       1.0  0.85738  0.03841  0.48018  1.0000 0.1117406276
H   H43       1.0  0.05232  0.89708  0.53739  1.0000 0.1117406276
H   H44       1.0  0.94768  0.10292  0.46261  1.0000 0.1117406276
H   H45       1.0  0.87969  0.65709  0.90282  1.0000 0.1396150554
H   H46       1.0  0.12031  0.34291  0.09718  1.0000 0.1396150554
H   H47       1.0  0.91248  0.74622  0.94436  1.0000 0.1190042891
H   H48       1.0  0.08752  0.25378  0.05564  1.0000 0.1190042891
H   H49       1.0  0.82371  0.68554  0.96704  1.0000 0.1396150554
H   H50       1.0  0.17629  0.31446  0.03296  1.0000 0.1396150554
H   H51       1.0  0.12812  0.15984  0.71247  1.0000 0.1190042891
H   H52       1.0  0.87188  0.84016  0.28753  1.0000 0.1190042891
H   H53       1.0  0.00545  0.75840  0.33878  1.0000 0.1190042891
H   H54       1.0  0.99455  0.24160  0.66122  1.0000 0.1190042891
H   H55       1.0  0.55886  0.73549  0.51654  1.0000 0.1117406276
H   H56       1.0  0.44114  0.26451  0.48346  1.0000 0.1117406276
H   H57       1.0  0.92321  0.92484  0.68897  1.0000 0.1117406276
H   H58       1.0  0.07679  0.07516  0.31103  1.0000 0.1117406276
H   H59       1.0  0.89052  0.90635  0.74897  1.0000 0.1117406276
H   H60       1.0  0.10948  0.09365  0.25103  1.0000 0.1117406276
H   H61       1.0  0.15718  0.71986  0.70847  1.0000 0.1190042891
H   H62       1.0  0.84282  0.28014  0.29153  1.0000 0.1190042891
H   H63       1.0  0.16290  0.11933  0.90522  1.0000 0.1117406276
H   H64       1.0  0.83710  0.88067  0.09478  1.0000 0.1117406276
H   H65       1.0  0.02595  0.18357  0.81640  1.0000 0.1117406276
H   H66       1.0  0.97405  0.81643  0.18360  1.0000 0.1117406276
H   H67       1.0  0.36125  0.10557  0.01784  1.0000 0.1190042891
H   H68       1.0  0.63875  0.89443  0.98216  1.0000 0.1190042891
H   H69       1.0  0.86830  0.75712  0.69334  1.0000 0.1117406276
H   H70       1.0  0.13170  0.24288  0.30666  1.0000 0.1117406276
H   H71       1.0  0.13112  0.56281  0.96329  1.0000 0.101290241
H   H72       1.0  0.86888  0.43719  0.03671  1.0000 0.101290241
H   H73       1.0  0.54168  0.76303  0.78798  1.0000 0.1190042891
H   H74       1.0  0.45832  0.23697  0.21202  1.0000 0.1190042891
H   H75       1.0  0.93926  0.63866  0.71684  1.0000 0.1190042891
H   H76       1.0  0.06074  0.36134  0.28316  1.0000 0.1190042891
H   H77       1.0  0.14021  0.75837  0.98944  1.0000 0.1261764878
H   H78       1.0  0.85979  0.24163  0.01056  1.0000 0.1261764878
H   H79       1.0  0.19432  0.68778  0.01650  1.0000 0.1396150554
H   H80       1.0  0.80568  0.31222  0.98350  1.0000 0.1396150554
H   H81       1.0  0.07292  0.74271  0.04481  1.0000 0.1396150554
H   H82       1.0  0.92708  0.25729  0.95519  1.0000 0.1396150554
H   H83       1.0  0.52810  0.08450  0.62155  1.0000 0.1190042891
H   H84       1.0  0.47190  0.91550  0.37845  1.0000 0.1190042891
H   H85       1.0  0.38149  0.71839  0.39000  1.0000 0.1190042891
H   H86       1.0  0.61851  0.28161  0.61000  1.0000 0.1190042891
H   H87       1.0  0.61078  0.64433  0.81165  1.0000 0.1190042891
H   H88       1.0  0.38922  0.35567  0.18835  1.0000 0.1190042891
H   H89       1.0  0.08549  0.92912  0.07966  1.0000 0.1117406276
H   H90       1.0  0.91451  0.07088  0.92034  1.0000 0.1117406276
H   H91       1.0  0.03760  0.04322  0.77153  1.0000 0.1190042891
H   H92       1.0  0.96240  0.95678  0.22847  1.0000 0.1190042891
H   H93       1.0  0.19235  0.93875  0.84491  1.0000 0.1190042891
H   H94       1.0  0.80765  0.06125  0.15509  1.0000 0.1190042891
H   H95       1.0  0.09291  0.93337  0.89367  1.0000 0.1117406276
H   H96       1.0  0.90709  0.06663  0.10633  1.0000 0.1117406276
H   H97       1.0  0.35551  0.81362  0.48082  1.0000 0.1117406276
H   H98       1.0  0.64449  0.18638  0.51918  1.0000 0.1117406276
H   H99       1.0  0.50822  0.21280  0.68831  1.0000 0.1190042891
H   H100      1.0  0.49178  0.78720  0.31169  1.0000 0.1190042891
H   H101      1.0  0.34557  0.91453  0.67906  1.0000 0.1117406276
H   H102      1.0  0.65443  0.08547  0.32094  1.0000 0.1117406276
H   H103      1.0  0.14291  0.25631  0.90297  1.0000 0.1190042891
H   H104      1.0  0.85709  0.74369  0.09703  1.0000 0.1190042891
H   H105      1.0  0.07930  0.77690  0.55613  1.0000 0.1190042891
H   H106      1.0  0.92070  0.22310  0.44387  1.0000 0.1190042891
H   H107      1.0  0.81740  0.96375  0.61503  1.0000 0.1190042891
H   H108      1.0  0.18260  0.03625  0.38497  1.0000 0.1190042891
H   H109      1.0  0.05468  0.79007  0.82956  1.0000 0.1190042891
H   H110      1.0  0.94532  0.20993  0.17044  1.0000 0.1190042891
H   H111      1.0  0.18416  0.04112  0.14954  1.0000 0.101290241
H   H112      1.0  0.81584  0.95888  0.85046  1.0000 0.101290241
H   H113      1.0  0.56195  0.84493  0.70785  1.0000 0.1117406276
H   H114      1.0  0.43805  0.15507  0.29215  1.0000 0.1117406276
H   H115      1.0  0.64504  0.89516  0.76506  1.0000 0.1117406276
H   H116      1.0  0.35496  0.10484  0.23494  1.0000 0.1117406276
H   H117      1.0  0.30884  0.82824  0.73991  1.0000 0.101290241
H   H118      1.0  0.69116  0.17176  0.26009  1.0000 0.101290241
H   H119      1.0  0.63840  0.03506  0.73644  1.0000 0.1190042891
H   H120      1.0  0.36160  0.96494  0.26356  1.0000 0.1190042891
H   H121      1.0  0.63938  0.81631  0.46289  1.0000 0.1190042891
H   H122      1.0  0.36062  0.18369  0.53711  1.0000 0.1190042891
H   H123      1.0  0.56534  0.14018  0.91226  1.0000 0.1190042891
H   H124      1.0  0.43466  0.85982  0.08774  1.0000 0.1190042891
H   H125      1.0  0.21818  0.44993  0.70390  1.0000 0.3052993679
H   H126      1.0  0.78182  0.55007  0.29610  1.0000 0.3052993679
H   H127      1.0  0.11394  0.40031  0.67514  1.0000 0.3193049694
H   H128      1.0  0.88606  0.59969  0.32486  1.0000 0.3193049694
C   C1        1.0  0.37930  0.73150  0.89040  1.0000 -0.1103881403
C   C2        1.0  0.62070  0.26850  0.10960  1.0000 -0.1103881403
C   C3        1.0  0.11140  0.73770  0.63090  1.0000 -0.0806744395
C   C4        1.0  0.88860  0.26230  0.36910  1.0000 -0.0806744395
C   C5        1.0  0.38190  0.02540  0.90890  1.0000 -0.180667107
C   C6        1.0  0.61810  0.97460  0.09110  1.0000 -0.180667107
C   C7        1.0  0.29010  0.66920  0.85890  1.0000 -0.0395650936
C   C8        1.0  0.70990  0.33080  0.14110  1.0000 -0.0395650936
C   C9        1.0  0.21960  0.85510  0.61000  1.0000 0.1882831766
C   C10       1.0  0.78040  0.14490  0.39000  1.0000 0.1882831766
C   C11       1.0  0.32600  0.57960  0.84822  1.0000 0.5989690388
C   C12       1.0  0.67400  0.42040  0.15178  1.0000 0.5989690388
C   C13       1.0  0.27890  0.08530  0.08930  1.0000 -0.1002910454
C   C14       1.0  0.72110  0.91470  0.91070  1.0000 -0.1002910454
C   C15       1.0  0.83930  0.02410  0.74788  1.0000 0.101290241
C   C16       1.0  0.16070  0.97590  0.25212  1.0000 0.101290241
C   C17       1.0  0.46780  0.24380  0.90700  1.0000 -0.0901064855
C   C18       1.0  0.53220  0.75620  0.09300  1.0000 -0.0901064855
C   C19       1.0  0.32830  0.36720  0.90088  1.0000 0.6103087107
C   C20       1.0  0.67170  0.63280  0.09912  1.0000 0.6103087107
C   C21       1.0  0.70840  0.14820  0.78110  1.0000 -0.0901064855
C   C22       1.0  0.29160  0.85180  0.21890  1.0000 -0.0901064855
C   C23       1.0  0.22110  0.06740  0.65410  1.0000 -0.157963909
C   C24       1.0  0.77890  0.93260  0.34590  1.0000 -0.157963909
C   C25       1.0  0.63150  0.79920  0.59810  1.0000 -0.2015645092
C   C26       1.0  0.36850  0.20080  0.40190  1.0000 -0.2015645092
C   C27       1.0  0.31580  0.19970  0.70752  1.0000 -0.0247530973
C   C28       1.0  0.68420  0.80030  0.29248  1.0000 -0.0247530973
C   C29       1.0  0.06130  0.82770  0.42200  1.0000 -0.1692479974
C   C30       1.0  0.93870  0.17230  0.57800  1.0000 -0.1692479974
C   C31       1.0  0.82360  0.19460  0.80609  1.0000 -0.0395650936
C   C32       1.0  0.17640  0.80540  0.19391  1.0000 -0.0395650936
C   C33       1.0  0.73570  0.89510  0.53360  1.0000 -0.1103881403
C   C34       1.0  0.26430  0.10490  0.46640  1.0000 -0.1103881403
C   C35       1.0  0.34700  0.81430  0.89850  1.0000 -0.1692479974
C   C36       1.0  0.65300  0.18570  0.10150  1.0000 -0.1692479974
C   C37       1.0  0.16150  0.95120  0.00910  1.0000 -0.2015645092
C   C38       1.0  0.83850  0.04880  0.99090  1.0000 -0.2015645092
C   C39       1.0  0.22650  0.83710  0.87567  1.0000 0.101290241
C   C40       1.0  0.77350  0.16290  0.12433  1.0000 0.101290241
C   C41       1.0  0.71140  0.86750  0.62880  1.0000 0.1882831766
C   C42       1.0  0.28860  0.13250  0.37120  1.0000 0.1882831766
C   C43       1.0  0.34240  0.27860  0.90371  1.0000 -0.0273250638
C   C44       1.0  0.65760  0.72140  0.09629  1.0000 -0.0273250638
C   C45       1.0  0.35770  0.95860  0.58260  1.0000 -0.1871492153
C   C46       1.0  0.64230  0.04140  0.41740  1.0000 -0.1871492153
C   C47       1.0  0.16760  0.69190  0.83660  1.0000 -0.0901064855
C   C48       1.0  0.83240  0.30810  0.16340  1.0000 -0.0901064855
C   C49       1.0  0.14160  0.90640  0.52530  1.0000 -0.1871492153
C   C50       1.0  0.85840  0.09360  0.47470  1.0000 -0.1871492153
C   C51       1.0  0.36480  0.11500  0.90730  1.0000 0.1117406276
C   C52       1.0  0.63520  0.88500  0.09270  1.0000 0.1117406276
C   C53       1.0  0.89860  0.68940  0.94340  1.0000 -0.3303155934
C   C54       1.0  0.10140  0.31060  0.05660  1.0000 -0.3303155934
C   C55       1.0  0.20930  0.14470  0.69420  1.0000 -0.1002910454
C   C56       1.0  0.79070  0.85530  0.30580  1.0000 -0.1103881403
C   C57       1.0  0.07750  0.77010  0.36710  1.0000 -0.1002910454
C   C58       1.0  0.92250  0.22990  0.63290  1.0000 -0.1002910454
C   C59       1.0  0.33940  0.04430  0.62641  1.0000 0.101290241
C   C60       1.0  0.66060  0.95570  0.37359  1.0000 0.101290241
C   C61       1.0  0.60980  0.78210  0.53640  1.0000 -0.0901064855
C   C62       1.0  0.39020  0.21790  0.46360  1.0000 -0.0901064855
C   C63       1.0  0.85570  0.93180  0.71860  1.0000 -0.180667107
C   C64       1.0  0.14430  0.06820  0.28140  1.0000 -0.180667107
C   C65       1.0  0.17350  0.75310  0.68360  1.0000 -0.1281538045
C   C66       1.0  0.82650  0.24690  0.31640  1.0000 -0.1281538045
C   C67       1.0  0.78420  0.62970  0.76802  1.0000 -0.0273250638
C   C68       1.0  0.21580  0.37030  0.23198  1.0000 -0.0273250638
C   C69       1.0  0.24010  0.15040  0.90540  1.0000 -0.1692479974
C   C70       1.0  0.75990  0.84960  0.09460  1.0000 -0.1692479974
C   C71       1.0  0.94730  0.15390  0.80100  1.0000 -0.1103881403
C   C72       1.0  0.05270  0.84610  0.19900  1.0000 -0.1103881403
C   C73       1.0  0.69890  0.77350  0.73896  1.0000 0.101290241
C   C74       1.0  0.30110  0.22650  0.26104  1.0000 0.101290241
C   C75       1.0  0.24360  0.00310  0.98720  1.0000 0.1882831766
C   C76       1.0  0.75640  0.99690  0.01280  1.0000 0.1882831766
C   C77       1.0  0.30380  0.07050  0.02980  1.0000 -0.2096908724
C   C78       1.0  0.69620  0.92950  0.97020  1.0000 -0.2096908724
C   C79       1.0  0.30030  0.28410  0.75079  1.0000 0.6103087107
C   C80       1.0  0.69970  0.71590  0.24921  1.0000 0.6103087107
C   C81       1.0  0.81690  0.73500  0.71750  1.0000 -0.157963909
C   C82       1.0  0.18310  0.26500  0.28250  1.0000 -0.157963909
C   C83       1.0  0.04990  0.58010  0.94900  1.0000 0.2892813945
C   C84       1.0  0.95010  0.41990  0.05100  1.0000 0.2892813945
C   C85       1.0  0.62230  0.73820  0.77400  1.0000 -0.180667107
C   C86       1.0  0.37770  0.26180  0.22600  1.0000 -0.180667107
C   C87       1.0  0.85950  0.66400  0.73170  1.0000 -0.1002910454
C   C88       1.0  0.14050  0.33600  0.26830  1.0000 -0.1002910454
C   C89       1.0  0.11510  0.71680  0.00810  1.0000 -0.3476236796
C   C90       1.0  0.88490  0.28320  0.99190  1.0000 -0.3476236796
C   C91       1.0  0.44700  0.09960  0.63990  1.0000 -0.1692479974
C   C92       1.0  0.55300  0.90040  0.36010  1.0000 -0.1692479974
C   C93       1.0  0.30000  0.74630  0.39750  1.0000 -0.1002910454
C   C94       1.0  0.70000  0.25370  0.60250  1.0000 -0.1002910454
C   C95       1.0  0.66360  0.66710  0.78830  1.0000 -0.1103881403
C   C96       1.0  0.33640  0.33290  0.21170  1.0000 -0.1103881403
C   C97       1.0  0.16450  0.84400  0.46540  1.0000 0.1117406276
C   C98       1.0  0.83550  0.15600  0.53460  1.0000 0.1117406276
C   C99       1.0  0.21280  0.66980  0.29383  1.0000 0.6103087107
C   C100      1.0  0.78720  0.33020  0.70617  1.0000 0.6103087107
C   C101      1.0  0.14030  0.96520  0.06730  1.0000 -0.0806744395
C   C102      1.0  0.85970  0.03480  0.93270  1.0000 -0.0806744395
C   C103      1.0  0.95450  0.06970  0.77320  1.0000 -0.180667107
C   C104      1.0  0.04550  0.93030  0.22680  1.0000 -0.180667107
C   C105      1.0  0.18660  0.92700  0.88320  1.0000 -0.180667107
C   C106      1.0  0.81340  0.07300  0.11680  1.0000 -0.180667107
C   C107      1.0  0.19740  0.73060  0.35404  1.0000 -0.0273250638
C   C108      1.0  0.80260  0.26940  0.64596  1.0000 -0.0273250638
C   C109      1.0  0.28390  0.80300  0.45230  1.0000 -0.157963909
C   C110      1.0  0.71610  0.19700  0.54770  1.0000 -0.157963909
C   C111      1.0  0.43520  0.17640  0.67980  1.0000 -0.1002910454
C   C112      1.0  0.56480  0.82360  0.32020  1.0000 -0.1002910454
C   C113      1.0  0.28590  0.87010  0.66590  1.0000 -0.2280838525
C   C114      1.0  0.71410  0.12990  0.33410  1.0000 -0.2280838525
C   C115      1.0  0.22790  0.23260  0.90390  1.0000 -0.1002910454
C   C116      1.0  0.77210  0.76740  0.09610  1.0000 -0.1002910454
C   C117      1.0  0.12820  0.78790  0.59270  1.0000 -0.2096908724
C   C118      1.0  0.87180  0.21210  0.40730  1.0000 -0.2096908724
C   C119      1.0  0.83450  0.55410  0.78544  1.0000 0.5989690388
C   C120      1.0  0.16550  0.44590  0.21456  1.0000 0.5989690388
C   C121      1.0  0.76470  0.91750  0.59620  1.0000 -0.2468256017
C   C122      1.0  0.23530  0.08250  0.40380  1.0000 -0.2468256017
C   C123      1.0  0.13680  0.77550  0.84490  1.0000 -0.180667107
C   C124      1.0  0.86320  0.22450  0.15510  1.0000 -0.180667107
C   C125      1.0  0.19830  0.03190  0.10900  1.0000 -0.1530231794
C   C126      1.0  0.80170  0.96810  0.89100  1.0000 -0.1530231794
C   C127      1.0  0.65200  0.85380  0.72690  1.0000 -0.180667107
C   C128      1.0  0.34800  0.14620  0.27310  1.0000 -0.180667107
C   C129      1.0  0.26330  0.81840  0.70270  1.0000 -0.1103881403
C   C130      1.0  0.73670  0.18160  0.29730  1.0000 -0.1103881403
C   C131      1.0  0.71670  0.06460  0.75270  1.0000 -0.157963909
C   C132      1.0  0.28330  0.93540  0.24730  1.0000 -0.157963909
C   C133      1.0  0.65810  0.82870  0.50400  1.0000 -0.1356974876
C   C134      1.0  0.34190  0.17130  0.49600  1.0000 -0.1356974876
C   C135      1.0  0.48020  0.16290  0.90930  1.0000 -0.1692479974
C   C136      1.0  0.51980  0.83710  0.09070  1.0000 -0.1692479974
C   C137      1.0  0.81530  0.28560  0.83539  1.0000 0.6103087107
C   C138      1.0  0.18470  0.71440  0.16461  1.0000 0.6103087107
N   N1        1.0  0.02000  0.65790  0.96766  1.0000 0.0383632297
N   N2        1.0  0.98000  0.34210  0.03234  1.0000 0.0383632297
N   N3        1.0  0.73560  0.88750  0.69004  1.0000 -0.0901064855
N   N4        1.0  0.26440  0.11250  0.30996  1.0000 -0.0901064855
N   N5        1.0  0.23960  0.90390  0.57359  1.0000 -0.0901064855
N   N6        1.0  0.76040  0.09610  0.42641  1.0000 -0.0901064855
N   N7        1.0  0.26600  0.98823  0.92756  1.0000 -0.0901064855
N   N8        1.0  0.73400  0.01177  0.07244  1.0000 -0.0901064855
O   O1        1.0  0.23340  0.52680  0.83045  1.0000 -0.6373354431
O   O2        1.0  0.76660  0.47320  0.16955  1.0000 -0.6373354431
O   O3        1.0  0.95500  0.53283  0.77441  1.0000 -0.5954823828
O   O4        1.0  0.04500  0.46717  0.22559  1.0000 -0.5954823828
O   O5        1.0  0.10650  0.64800  0.26175  1.0000 -0.6373354431
O   O6        1.0  0.89350  0.35200  0.73825  1.0000 -0.6373354431
O   O7        1.0  0.70130  0.31815  0.83922  1.0000 -0.6373354431
O   O8        1.0  0.29870  0.68185  0.16078  1.0000 -0.6373354431
O   O9        1.0  0.32770  0.64480  0.27945  1.0000 -0.593637917
O   O10       1.0  0.67230  0.35520  0.72055  1.0000 -0.593637917
O   O11       1.0  0.40270  0.32633  0.76972  1.0000 -0.6102762854
O   O12       1.0  0.59730  0.67367  0.23028  1.0000 -0.6102762854
O   O13       1.0  0.18430  0.30580  0.76618  1.0000 -0.593637917
O   O14       1.0  0.81570  0.69420  0.23382  1.0000 -0.593637917
O   O15       1.0  0.46300  0.47960  0.72954  1.0000 -0.7981116509
O   O16       1.0  0.53700  0.52040  0.27046  1.0000 -0.7981116509
O   O17       1.0  0.43530  0.40760  0.90182  1.0000 -0.6306000387
O   O18       1.0  0.56470  0.59240  0.09818  1.0000 -0.6306000387
O   O19       1.0  0.44730  0.56312  0.85662  1.0000 -0.6102762854
O   O20       1.0  0.55270  0.43688  0.14338  1.0000 -0.6102762854
O   O21       1.0  0.21150  0.39610  0.89830  1.0000 -0.6306000387
O   O22       1.0  0.78850  0.60390  0.10170  1.0000 -0.6306000387
O   O23       1.0  0.68890  0.50052  0.92230  1.0000 -0.6926942205
O   O24       1.0  0.31110  0.49948  0.07770  1.0000 -0.6926942205
O   O25       1.0  0.97740  0.52671  0.91313  1.0000 -0.5259191727
O   O26       1.0  0.02260  0.47329  0.08687  1.0000 -0.5259191727
O   O27       1.0  0.75790  0.51840  0.81094  1.0000 -0.6306000387
O   O28       1.0  0.24210  0.48160  0.18906  1.0000 -0.6306000387
O   O29       1.0  0.92410  0.32446  0.85510  1.0000 -0.6306000387
O   O30       1.0  0.07590  0.67554  0.14490  1.0000 -0.6306000387
O   O31       1.0  0.14780  0.42480  0.71020  1.0000 -0.679477129
O   O32       1.0  0.85220  0.57520  0.28980  1.0000 -0.679477129
