# DDEC6 charges by PACMAN v1.1 (https://github.com/mtap-research/PACMAN-charge/)
data_2023[Cd][eta]3[FSR]2
_chemical_formula_sum              "Cd12 H168 C120 Br12 N36"
_cell_length_a       16.8596
_cell_length_b       16.8596
_cell_length_c       26.6465
_cell_angle_alpha    90
_cell_angle_beta     90
_cell_angle_gamma    120

_symmetry_space_group_name_H-M    "P 1"
_symmetry_Int_Tables_number       1

loop_
  _symmetry_equiv_pos_as_xyz
  'x, y, z'

loop_
  _atom_site_type_symbol
  _atom_site_label
  _atom_site_symmetry_multiplicity
  _atom_site_fract_x
  _atom_site_fract_y
  _atom_site_fract_z
  _atom_site_occupancy
  _atom_site_charge
Cd  Cd1       1.0  0.50336  0.80921  0.36309  1.0000 0.7018375066
Cd  Cd2       1.0  0.19079  0.69415  0.69642  1.0000 0.7018375066
Cd  Cd3       1.0  0.30585  0.49664  0.02976  1.0000 0.7018375066
Cd  Cd4       1.0  0.49664  0.19079  0.86309  1.0000 0.7018375066
Cd  Cd5       1.0  0.80921  0.30585  0.19642  1.0000 0.7018375066
Cd  Cd6       1.0  0.69415  0.50336  0.52976  1.0000 0.7018375066
Cd  Cd7       1.0  0.50537  0.15426  0.37466  1.0000 0.7167374162
Cd  Cd8       1.0  0.84574  0.35111  0.70799  1.0000 0.7167374162
Cd  Cd9       1.0  0.64889  0.49463  0.04133  1.0000 0.7167374162
Cd  Cd10      1.0  0.49463  0.84574  0.87466  1.0000 0.7167374162
Cd  Cd11      1.0  0.15426  0.64889  0.20799  1.0000 0.7167374162
Cd  Cd12      1.0  0.35111  0.50537  0.54133  1.0000 0.7167374162
H   H1        1.0  0.60194  0.58534  0.61167  1.0000 0.0938238817
H   H2        1.0  0.41466  0.01660  0.94500  1.0000 0.0938238817
H   H3        1.0  0.98340  0.39806  0.27834  1.0000 0.0938238817
H   H4        1.0  0.39806  0.41466  0.11167  1.0000 0.0938238817
H   H5        1.0  0.58534  0.98340  0.44500  1.0000 0.0938238817
H   H6        1.0  0.01660  0.60194  0.77834  1.0000 0.0938238817
H   H7        1.0  0.43685  0.54959  0.66031  1.0000 0.1270459296
H   H8        1.0  0.45041  0.88726  0.99364  1.0000 0.1270459296
H   H9        1.0  0.11274  0.56315  0.32698  1.0000 0.1270459296
H   H10       1.0  0.56315  0.45041  0.16031  1.0000 0.1270459296
H   H11       1.0  0.54959  0.11274  0.49364  1.0000 0.1270459296
H   H12       1.0  0.88726  0.43685  0.82698  1.0000 0.1270459296
H   H13       1.0  0.53041  0.64209  0.66328  1.0000 0.1270459296
H   H14       1.0  0.35791  0.88832  0.99661  1.0000 0.1270459296
H   H15       1.0  0.11168  0.46959  0.32995  1.0000 0.1270459296
H   H16       1.0  0.46959  0.35791  0.16328  1.0000 0.1270459296
H   H17       1.0  0.64209  0.11168  0.49661  1.0000 0.1270459296
H   H18       1.0  0.88832  0.53041  0.82995  1.0000 0.1270459296
H   H19       1.0  0.43625  0.41659  0.60762  1.0000 0.0845941571
H   H20       1.0  0.58341  0.01966  0.94095  1.0000 0.0845941571
H   H21       1.0  0.98034  0.56375  0.27429  1.0000 0.0845941571
H   H22       1.0  0.56375  0.58341  0.10762  1.0000 0.0845941571
H   H23       1.0  0.41659  0.98034  0.44095  1.0000 0.0845941571
H   H24       1.0  0.01966  0.43625  0.77429  1.0000 0.0845941571
H   H25       1.0  0.73948  0.43181  0.41593  1.0000 0.1103164383
H   H26       1.0  0.56819  0.30767  0.74926  1.0000 0.1103164383
H   H27       1.0  0.69233  0.26052  0.08260  1.0000 0.1103164383
H   H28       1.0  0.26052  0.56819  0.91593  1.0000 0.1103164383
H   H29       1.0  0.43181  0.69233  0.24926  1.0000 0.1103164383
H   H30       1.0  0.30767  0.73948  0.58260  1.0000 0.1103164383
H   H31       1.0  0.68625  0.35046  0.37815  1.0000 0.1103164383
H   H32       1.0  0.64954  0.33579  0.71148  1.0000 0.1103164383
H   H33       1.0  0.66421  0.31375  0.04482  1.0000 0.1103164383
H   H34       1.0  0.31375  0.64954  0.87815  1.0000 0.1103164383
H   H35       1.0  0.35046  0.66421  0.21148  1.0000 0.1103164383
H   H36       1.0  0.33579  0.68625  0.54482  1.0000 0.1103164383
H   H37       1.0  0.61157  0.68557  0.55409  1.0000 0.1191720514
H   H38       1.0  0.31443  0.92600  0.88742  1.0000 0.1191720514
H   H39       1.0  0.07400  0.38843  0.22076  1.0000 0.1191720514
H   H40       1.0  0.38843  0.31443  0.05409  1.0000 0.1191720514
H   H41       1.0  0.68557  0.07400  0.38742  1.0000 0.1191720514
H   H42       1.0  0.92600  0.61157  0.72076  1.0000 0.1191720514
H   H43       1.0  0.42614  0.40672  0.70338  1.0000 0.1103164383
H   H44       1.0  0.59328  0.01942  0.03671  1.0000 0.1103164383
H   H45       1.0  0.98058  0.57386  0.37005  1.0000 0.1103164383
H   H46       1.0  0.57386  0.59328  0.20338  1.0000 0.1103164383
H   H47       1.0  0.40672  0.98058  0.53671  1.0000 0.1103164383
H   H48       1.0  0.01942  0.42614  0.87005  1.0000 0.1103164383
H   H49       1.0  0.51074  0.41769  0.73406  1.0000 0.1103164383
H   H50       1.0  0.58231  0.09305  0.06739  1.0000 0.1103164383
H   H51       1.0  0.90695  0.48926  0.40073  1.0000 0.1103164383
H   H52       1.0  0.48926  0.58231  0.23406  1.0000 0.1103164383
H   H53       1.0  0.41769  0.90695  0.56739  1.0000 0.1103164383
H   H54       1.0  0.09305  0.51074  0.90073  1.0000 0.1103164383
H   H55       1.0  0.42763  0.32170  0.55257  1.0000 0.1103164383
H   H56       1.0  0.67830  0.10593  0.88590  1.0000 0.1103164383
H   H57       1.0  0.89407  0.57237  0.21924  1.0000 0.1103164383
H   H58       1.0  0.57237  0.67830  0.05257  1.0000 0.1103164383
H   H59       1.0  0.32170  0.89407  0.38590  1.0000 0.1103164383
H   H60       1.0  0.10593  0.42763  0.71924  1.0000 0.1103164383
H   H61       1.0  0.59627  0.57139  0.71002  1.0000 0.1103164383
H   H62       1.0  0.42861  0.02488  0.04335  1.0000 0.1103164383
H   H63       1.0  0.97512  0.40373  0.37669  1.0000 0.1103164383
H   H64       1.0  0.40373  0.42861  0.21002  1.0000 0.1103164383
H   H65       1.0  0.57139  0.97512  0.54335  1.0000 0.1103164383
H   H66       1.0  0.02488  0.59627  0.87669  1.0000 0.1103164383
H   H67       1.0  0.50683  0.55446  0.73755  1.0000 0.1103164383
H   H68       1.0  0.44554  0.95237  0.07088  1.0000 0.1103164383
H   H69       1.0  0.04763  0.49317  0.40422  1.0000 0.1103164383
H   H70       1.0  0.49317  0.44554  0.23755  1.0000 0.1103164383
H   H71       1.0  0.55446  0.04763  0.57088  1.0000 0.1103164383
H   H72       1.0  0.95237  0.50683  0.90422  1.0000 0.1103164383
H   H73       1.0  0.35105  0.15833  0.43805  1.0000 0.1433211614
H   H74       1.0  0.84167  0.19272  0.77138  1.0000 0.1457361191
H   H75       1.0  0.80728  0.64895  0.10472  1.0000 0.1433211614
H   H76       1.0  0.64895  0.84167  0.93805  1.0000 0.1433211614
H   H77       1.0  0.15833  0.80728  0.27138  1.0000 0.1433211614
H   H78       1.0  0.19272  0.35105  0.60472  1.0000 0.1433211614
H   H79       1.0  0.34033  0.19684  0.48959  1.0000 0.1433211614
H   H80       1.0  0.80316  0.14349  0.82292  1.0000 0.1433211614
H   H81       1.0  0.85651  0.65967  0.15626  1.0000 0.1433211614
H   H82       1.0  0.65967  0.80316  0.98959  1.0000 0.1433211614
H   H83       1.0  0.19684  0.85651  0.32292  1.0000 0.1433211614
H   H84       1.0  0.14349  0.34033  0.65626  1.0000 0.1433211614
H   H85       1.0  0.37513  0.12630  0.48815  1.0000 0.1191720514
H   H86       1.0  0.87370  0.24883  0.82148  1.0000 0.1191720514
H   H87       1.0  0.75117  0.62487  0.15482  1.0000 0.1191720514
H   H88       1.0  0.62487  0.87370  0.98815  1.0000 0.1191720514
H   H89       1.0  0.12630  0.75117  0.32148  1.0000 0.1191720514
H   H90       1.0  0.24883  0.37513  0.65482  1.0000 0.1191720514
H   H91       1.0  0.67259  0.84540  0.43440  1.0000 0.1457361191
H   H92       1.0  0.15460  0.82719  0.76773  1.0000 0.1457361191
H   H93       1.0  0.17281  0.32741  0.10107  1.0000 0.1457361191
H   H94       1.0  0.32741  0.15460  0.93440  1.0000 0.1457361191
H   H95       1.0  0.84540  0.17281  0.26773  1.0000 0.1457361191
H   H96       1.0  0.82719  0.67259  0.60107  1.0000 0.1457361191
H   H97       1.0  0.69332  0.80824  0.48368  1.0000 0.1457361191
H   H98       1.0  0.19176  0.88508  0.81701  1.0000 0.1457361191
H   H99       1.0  0.11492  0.30668  0.15035  1.0000 0.1457361191
H   H100      1.0  0.30668  0.19176  0.98368  1.0000 0.1457361191
H   H101      1.0  0.80824  0.11492  0.31701  1.0000 0.1457361191
H   H102      1.0  0.88508  0.69332  0.65035  1.0000 0.1457361191
H   H103      1.0  0.65714  0.87755  0.48686  1.0000 0.1191720514
H   H104      1.0  0.12245  0.77959  0.82019  1.0000 0.1191720514
H   H105      1.0  0.22041  0.34286  0.15353  1.0000 0.1191720514
H   H106      1.0  0.34286  0.12245  0.98686  1.0000 0.1191720514
H   H107      1.0  0.87755  0.22041  0.32019  1.0000 0.1191720514
H   H108      1.0  0.77959  0.65714  0.65353  1.0000 0.1191720514
H   H109      1.0  0.34010  0.62790  0.38463  1.0000 0.1191720514
H   H110      1.0  0.37210  0.71220  0.71796  1.0000 0.1191720514
H   H111      1.0  0.28780  0.65990  0.05130  1.0000 0.1191720514
H   H112      1.0  0.65990  0.37210  0.88463  1.0000 0.1191720514
H   H113      1.0  0.62790  0.28780  0.21796  1.0000 0.1191720514
H   H114      1.0  0.71220  0.34010  0.55130  1.0000 0.1191720514
H   H115      1.0  0.30640  0.67316  0.42420  1.0000 0.1191720514
H   H116      1.0  0.32684  0.63324  0.75753  1.0000 0.1191720514
H   H117      1.0  0.36676  0.69360  0.09087  1.0000 0.1191720514
H   H118      1.0  0.69360  0.32684  0.92420  1.0000 0.1191720514
H   H119      1.0  0.67316  0.36676  0.25753  1.0000 0.1191720514
H   H120      1.0  0.63324  0.30640  0.59087  1.0000 0.1191720514
H   H121      1.0  0.79719  0.32371  0.41126  1.0000 0.1103164383
H   H122      1.0  0.67629  0.47348  0.74459  1.0000 0.1103164383
H   H123      1.0  0.52652  0.20281  0.07793  1.0000 0.1103164383
H   H124      1.0  0.20281  0.67629  0.91126  1.0000 0.1103164383
H   H125      1.0  0.32371  0.52652  0.24459  1.0000 0.1103164383
H   H126      1.0  0.47348  0.79719  0.57793  1.0000 0.1103164383
H   H127      1.0  0.70803  0.25374  0.43983  1.0000 0.1103164383
H   H128      1.0  0.74626  0.45429  0.77316  1.0000 0.1103164383
H   H129      1.0  0.54571  0.29197  0.10650  1.0000 0.1103164383
H   H130      1.0  0.29197  0.74626  0.93983  1.0000 0.1103164383
H   H131      1.0  0.25374  0.54571  0.27316  1.0000 0.1103164383
H   H132      1.0  0.45429  0.70803  0.60650  1.0000 0.1103164383
H   H133      1.0  0.77945  0.34521  0.46601  1.0000 0.1270459296
H   H134      1.0  0.65479  0.43424  0.79934  1.0000 0.1270459296
H   H135      1.0  0.56576  0.22055  0.13268  1.0000 0.1270459296
H   H136      1.0  0.22055  0.65479  0.96601  1.0000 0.1270459296
H   H137      1.0  0.34521  0.56576  0.29934  1.0000 0.1270459296
H   H138      1.0  0.43424  0.77945  0.63268  1.0000 0.1270459296
H   H139      1.0  0.59611  0.44673  0.65939  1.0000 0.1270459296
H   H140      1.0  0.55327  0.14938  0.99272  1.0000 0.1270459296
H   H141      1.0  0.85062  0.40389  0.32606  1.0000 0.1270459296
H   H142      1.0  0.40389  0.55327  0.15939  1.0000 0.1270459296
H   H143      1.0  0.44673  0.85062  0.49272  1.0000 0.1270459296
H   H144      1.0  0.14938  0.59611  0.82606  1.0000 0.1270459296
H   H145      1.0  0.50584  0.35149  0.65496  1.0000 0.1191720514
H   H146      1.0  0.64851  0.15435  0.98829  1.0000 0.1270459296
H   H147      1.0  0.84565  0.49416  0.32163  1.0000 0.1270459296
H   H148      1.0  0.49416  0.64851  0.15496  1.0000 0.1270459296
H   H149      1.0  0.35149  0.84565  0.48829  1.0000 0.1270459296
H   H150      1.0  0.15435  0.50584  0.82163  1.0000 0.1270459296
H   H151      1.0  0.19818  0.51901  0.41474  1.0000 0.1191720514
H   H152      1.0  0.48099  0.67917  0.74807  1.0000 0.1191720514
H   H153      1.0  0.32083  0.80182  0.08141  1.0000 0.1191720514
H   H154      1.0  0.80182  0.48099  0.91474  1.0000 0.1191720514
H   H155      1.0  0.51901  0.32083  0.24807  1.0000 0.1191720514
H   H156      1.0  0.67917  0.19818  0.58141  1.0000 0.1191720514
H   H157      1.0  0.23562  0.53716  0.46988  1.0000 0.1103164383
H   H158      1.0  0.46284  0.69846  0.80321  1.0000 0.1103164383
H   H159      1.0  0.30154  0.76438  0.13655  1.0000 0.1103164383
H   H160      1.0  0.76438  0.46284  0.96988  1.0000 0.1103164383
H   H161      1.0  0.53716  0.30154  0.30321  1.0000 0.1103164383
H   H162      1.0  0.69846  0.23562  0.63655  1.0000 0.1103164383
H   H163      1.0  0.27067  0.49171  0.43109  1.0000 0.1270459296
H   H164      1.0  0.50829  0.77896  0.76442  1.0000 0.1270459296
H   H165      1.0  0.22104  0.72933  0.09776  1.0000 0.1270459296
H   H166      1.0  0.72933  0.50829  0.93109  1.0000 0.1270459296
H   H167      1.0  0.49171  0.22104  0.26442  1.0000 0.1270459296
H   H168      1.0  0.77896  0.27067  0.59776  1.0000 0.1270459296
C   C1        1.0  0.51730  0.32990  0.49800  1.0000 0.0234593642
C   C2        1.0  0.67010  0.18740  0.83133  1.0000 0.0234593642
C   C3        1.0  0.81260  0.48270  0.16467  1.0000 0.0234593642
C   C4        1.0  0.48270  0.67010  0.99800  1.0000 0.0234593642
C   C5        1.0  0.32990  0.81260  0.33133  1.0000 0.0234593642
C   C6        1.0  0.18740  0.51730  0.66467  1.0000 0.0234593642
C   C7        1.0  0.53490  0.55080  0.61280  1.0000 0.0520913916
C   C8        1.0  0.44920  0.98410  0.94613  1.0000 0.0520913916
C   C9        1.0  0.01590  0.46510  0.27947  1.0000 0.0520913916
C   C10       1.0  0.46510  0.44920  0.11280  1.0000 0.0520913916
C   C11       1.0  0.55080  0.01590  0.44613  1.0000 0.0520913916
C   C12       1.0  0.98410  0.53490  0.77947  1.0000 0.0520913916
C   C13       1.0  0.47300  0.25430  0.46730  1.0000 0.1892413899
C   C14       1.0  0.74570  0.21870  0.80063  1.0000 0.1892413899
C   C15       1.0  0.78130  0.52700  0.13397  1.0000 0.1892413899
C   C16       1.0  0.52700  0.74570  0.96730  1.0000 0.1892413899
C   C17       1.0  0.25430  0.78130  0.30063  1.0000 0.1892413899
C   C18       1.0  0.21870  0.47300  0.63397  1.0000 0.1892413899
C   C19       1.0  0.50280  0.57610  0.66110  1.0000 -0.2374731646
C   C20       1.0  0.42390  0.92670  0.99443  1.0000 -0.2374731646
C   C21       1.0  0.07330  0.49720  0.32777  1.0000 -0.2270279584
C   C22       1.0  0.49720  0.42390  0.16110  1.0000 -0.2374731646
C   C23       1.0  0.57610  0.07330  0.49443  1.0000 -0.2374731646
C   C24       1.0  0.92670  0.50280  0.82777  1.0000 -0.2374731646
C   C25       1.0  0.51600  0.67480  0.50170  1.0000 0.0376451542
C   C26       1.0  0.32520  0.84120  0.83503  1.0000 0.0376451542
C   C27       1.0  0.15880  0.48400  0.16837  1.0000 0.0376451542
C   C28       1.0  0.48400  0.32520  0.00170  1.0000 0.0376451542
C   C29       1.0  0.67480  0.15880  0.33503  1.0000 0.0376451542
C   C30       1.0  0.84120  0.51600  0.66837  1.0000 0.0376451542
C   C31       1.0  0.50320  0.45010  0.61020  1.0000 0.0520913916
C   C32       1.0  0.54990  0.05310  0.94353  1.0000 0.0520913916
C   C33       1.0  0.94690  0.49680  0.27687  1.0000 0.0520913916
C   C34       1.0  0.49680  0.54990  0.11020  1.0000 0.0520913916
C   C35       1.0  0.45010  0.94690  0.44353  1.0000 0.0520913916
C   C36       1.0  0.05310  0.50320  0.77687  1.0000 0.0520913916
C   C37       1.0  0.70030  0.36590  0.41330  1.0000 -0.2374731646
C   C38       1.0  0.63410  0.33440  0.74663  1.0000 -0.2374731646
C   C39       1.0  0.66560  0.29970  0.07997  1.0000 -0.2374731646
C   C40       1.0  0.29970  0.63410  0.91330  1.0000 -0.2374731646
C   C41       1.0  0.36590  0.66560  0.24663  1.0000 -0.2374731646
C   C42       1.0  0.33440  0.70030  0.57997  1.0000 -0.2374731646
C   C43       1.0  0.55070  0.64890  0.54450  1.0000 0.066893336
C   C44       1.0  0.35110  0.90180  0.87783  1.0000 0.066893336
C   C45       1.0  0.09820  0.44930  0.21117  1.0000 0.066893336
C   C46       1.0  0.44930  0.35110  0.04450  1.0000 0.066893336
C   C47       1.0  0.64890  0.09820  0.37783  1.0000 0.066893336
C   C48       1.0  0.90180  0.55070  0.71117  1.0000 0.066893336
C   C49       1.0  0.41340  0.66210  0.44850  1.0000 0.3372392995
C   C50       1.0  0.33790  0.75130  0.78183  1.0000 0.3372392995
C   C51       1.0  0.24870  0.58660  0.11517  1.0000 0.3372392995
C   C52       1.0  0.58660  0.33790  0.94850  1.0000 0.3372392995
C   C53       1.0  0.66210  0.24870  0.28183  1.0000 0.3372392995
C   C54       1.0  0.75130  0.41340  0.61517  1.0000 0.3372392995
C   C55       1.0  0.49250  0.43840  0.70460  1.0000 -0.1620862591
C   C56       1.0  0.56160  0.05410  0.03793  1.0000 -0.1620862591
C   C57       1.0  0.94590  0.50750  0.37127  1.0000 -0.1620862591
C   C58       1.0  0.50750  0.56160  0.20460  1.0000 -0.1620862591
C   C59       1.0  0.43840  0.94590  0.53793  1.0000 -0.1620862591
C   C60       1.0  0.05410  0.49250  0.87127  1.0000 -0.1620862591
C   C61       1.0  0.61410  0.33650  0.44190  1.0000 0.3372392995
C   C62       1.0  0.66350  0.27760  0.77523  1.0000 0.3372392995
C   C63       1.0  0.72240  0.38590  0.10857  1.0000 0.3372392995
C   C64       1.0  0.38590  0.66350  0.94190  1.0000 0.3372392995
C   C65       1.0  0.33650  0.72240  0.27523  1.0000 0.3372392995
C   C66       1.0  0.27760  0.61410  0.60857  1.0000 0.3372392995
C   C67       1.0  0.48760  0.35800  0.54140  1.0000 0.0520913916
C   C68       1.0  0.64200  0.12960  0.87473  1.0000 0.0520913916
C   C69       1.0  0.87040  0.51240  0.20807  1.0000 0.0520913916
C   C70       1.0  0.51240  0.64200  0.04140  1.0000 0.0520913916
C   C71       1.0  0.35800  0.87040  0.37473  1.0000 0.0520913916
C   C72       1.0  0.12960  0.48760  0.70807  1.0000 0.0520913916
C   C73       1.0  0.53000  0.54040  0.70750  1.0000 -0.1620862591
C   C74       1.0  0.45960  0.98960  0.04083  1.0000 -0.1620862591
C   C75       1.0  0.01040  0.47000  0.37417  1.0000 -0.1620862591
C   C76       1.0  0.47000  0.45960  0.20750  1.0000 -0.1620862591
C   C77       1.0  0.54040  0.01040  0.54083  1.0000 -0.1620862591
C   C78       1.0  0.98960  0.53000  0.87417  1.0000 -0.1620862591
C   C79       1.0  0.37620  0.17700  0.47110  1.0000 -0.4603773289
C   C80       1.0  0.82300  0.19920  0.80443  1.0000 -0.4603773289
C   C81       1.0  0.80080  0.62380  0.13777  1.0000 -0.4603773289
C   C82       1.0  0.62380  0.82300  0.97110  1.0000 -0.4603773289
C   C83       1.0  0.17700  0.80080  0.30443  1.0000 -0.4603773289
C   C84       1.0  0.19920  0.37620  0.63777  1.0000 -0.4603773289
C   C85       1.0  0.55760  0.74900  0.46900  1.0000 0.1892413899
C   C86       1.0  0.25100  0.80860  0.80233  1.0000 0.1892413899
C   C87       1.0  0.19140  0.44240  0.13567  1.0000 0.1892413899
C   C88       1.0  0.44240  0.25100  0.96900  1.0000 0.1892413899
C   C89       1.0  0.74900  0.19140  0.30233  1.0000 0.1892413899
C   C90       1.0  0.80860  0.55760  0.63567  1.0000 0.1892413899
C   C91       1.0  0.65370  0.82700  0.46840  1.0000 -0.4603773289
C   C92       1.0  0.17300  0.82670  0.80173  1.0000 -0.4603773289
C   C93       1.0  0.17330  0.34630  0.13507  1.0000 -0.4603773289
C   C94       1.0  0.34630  0.17300  0.96840  1.0000 -0.4603773289
C   C95       1.0  0.82700  0.17330  0.30173  1.0000 -0.4603773289
C   C96       1.0  0.82670  0.65370  0.63507  1.0000 -0.4603773289
C   C97       1.0  0.32730  0.62940  0.42000  1.0000 -0.2514214275
C   C98       1.0  0.37060  0.69790  0.75333  1.0000 -0.2514214275
C   C99       1.0  0.30210  0.67270  0.08667  1.0000 -0.2514214275
C   C100      1.0  0.67270  0.37060  0.92000  1.0000 -0.2514214275
C   C101      1.0  0.62940  0.30210  0.25333  1.0000 -0.2514214275
C   C102      1.0  0.69790  0.32730  0.58667  1.0000 -0.2514214275
C   C103      1.0  0.75110  0.31750  0.43470  1.0000 -0.3691032139
C   C104      1.0  0.68250  0.43360  0.76803  1.0000 -0.3691032139
C   C105      1.0  0.56640  0.24890  0.10137  1.0000 -0.3691032139
C   C106      1.0  0.24890  0.68250  0.93470  1.0000 -0.3691032139
C   C107      1.0  0.31750  0.56640  0.26803  1.0000 -0.3691032139
C   C108      1.0  0.43360  0.75110  0.60137  1.0000 -0.3691032139
C   C109      1.0  0.52990  0.41700  0.65720  1.0000 -0.2249980899
C   C110      1.0  0.58300  0.11290  0.99053  1.0000 -0.2270279584
C   C111      1.0  0.88710  0.47010  0.32387  1.0000 -0.2270279584
C   C112      1.0  0.47010  0.58300  0.15720  1.0000 -0.2270279584
C   C113      1.0  0.41700  0.88710  0.49053  1.0000 -0.2270279584
C   C114      1.0  0.11290  0.52990  0.82387  1.0000 -0.2270279584
C   C115      1.0  0.25100  0.53580  0.43530  1.0000 -0.3412394258
C   C116      1.0  0.46420  0.71520  0.76863  1.0000 -0.3412394258
C   C117      1.0  0.28480  0.74900  0.10197  1.0000 -0.3412394258
C   C118      1.0  0.74900  0.46420  0.93530  1.0000 -0.3412394258
C   C119      1.0  0.53580  0.28480  0.26863  1.0000 -0.3412394258
C   C120      1.0  0.71520  0.25100  0.60197  1.0000 -0.3412394258
Br  Br1       1.0  0.66247  0.91571  0.32735  1.0000 -0.537956534
Br  Br2       1.0  0.08429  0.74676  0.66068  1.0000 -0.537956534
Br  Br3       1.0  0.25324  0.33753  0.99402  1.0000 -0.537956534
Br  Br4       1.0  0.33753  0.08429  0.82735  1.0000 -0.537956534
Br  Br5       1.0  0.91571  0.25324  0.16068  1.0000 -0.537956534
Br  Br6       1.0  0.74676  0.66247  0.49402  1.0000 -0.537956534
Br  Br7       1.0  0.34538  0.07134  0.33846  1.0000 -0.537956534
Br  Br8       1.0  0.92866  0.27404  0.67179  1.0000 -0.537956534
Br  Br9       1.0  0.72596  0.65462  0.00513  1.0000 -0.537956534
Br  Br10      1.0  0.65462  0.92866  0.83846  1.0000 -0.537956534
Br  Br11      1.0  0.07134  0.72596  0.17179  1.0000 -0.537956534
Br  Br12      1.0  0.27404  0.34538  0.50513  1.0000 -0.537956534
N   N1        1.0  0.60760  0.38170  0.48130  1.0000 -0.3795093131
N   N2        1.0  0.61830  0.22590  0.81463  1.0000 -0.3795093131
N   N3        1.0  0.77410  0.39240  0.14797  1.0000 -0.3795093131
N   N4        1.0  0.39240  0.61830  0.98130  1.0000 -0.3795093131
N   N5        1.0  0.38170  0.77410  0.31463  1.0000 -0.3795093131
N   N6        1.0  0.22590  0.60760  0.64797  1.0000 -0.3795093131
N   N7        1.0  0.49910  0.57680  0.56910  1.0000 -0.2607016695
N   N8        1.0  0.42320  0.92230  0.90243  1.0000 -0.2607016695
N   N9        1.0  0.07770  0.50090  0.23577  1.0000 -0.2607016695
N   N10       1.0  0.50090  0.42320  0.06910  1.0000 -0.2607016695
N   N11       1.0  0.57680  0.07770  0.40243  1.0000 -0.2607016695
N   N12       1.0  0.92230  0.49910  0.73577  1.0000 -0.2607016695
N   N13       1.0  0.42440  0.62110  0.48840  1.0000 -0.3691032139
N   N14       1.0  0.37890  0.80330  0.82173  1.0000 -0.3691032139
N   N15       1.0  0.19670  0.57560  0.15507  1.0000 -0.3691032139
N   N16       1.0  0.57560  0.37890  0.98840  1.0000 -0.3691032139
N   N17       1.0  0.62110  0.19670  0.32173  1.0000 -0.3691032139
N   N18       1.0  0.80330  0.42440  0.65507  1.0000 -0.3691032139
N   N19       1.0  0.53230  0.25880  0.43110  1.0000 -0.4196940469
N   N20       1.0  0.74120  0.27350  0.76443  1.0000 -0.4196940469
N   N21       1.0  0.72650  0.46770  0.09777  1.0000 -0.4196940469
N   N22       1.0  0.46770  0.74120  0.93110  1.0000 -0.4196940469
N   N23       1.0  0.25880  0.72650  0.26443  1.0000 -0.4196940469
N   N24       1.0  0.27350  0.53230  0.59777  1.0000 -0.4196940469
N   N25       1.0  0.49220  0.73930  0.43510  1.0000 -0.4196940469
N   N26       1.0  0.26070  0.75290  0.76843  1.0000 -0.4196940469
N   N27       1.0  0.24710  0.50780  0.10177  1.0000 -0.4196940469
N   N28       1.0  0.50780  0.26070  0.93510  1.0000 -0.4196940469
N   N29       1.0  0.73930  0.24710  0.26843  1.0000 -0.4196940469
N   N30       1.0  0.75290  0.49220  0.60177  1.0000 -0.4196940469
N   N31       1.0  0.54030  0.43040  0.56510  1.0000 -0.2607016695
N   N32       1.0  0.56960  0.10990  0.89843  1.0000 -0.2607016695
N   N33       1.0  0.89010  0.45970  0.23177  1.0000 -0.2607016695
N   N34       1.0  0.45970  0.56960  0.06510  1.0000 -0.2607016695
N   N35       1.0  0.43040  0.89010  0.39843  1.0000 -0.2607016695
N   N36       1.0  0.10990  0.54030  0.73177  1.0000 -0.2607016695
