# DDEC6 charges by PACMAN v1.1 (https://github.com/mtap-research/PACMAN-charge/)
data_2023[WNdZr][nan]3[FSR]1
_chemical_formula_sum              "Nd8 Zr6 P4 H12 W36 C28 N4 O200"
_cell_length_a       12.972
_cell_length_b       17.737
_cell_length_c       22.209
_cell_angle_alpha    95.583
_cell_angle_beta     91.354
_cell_angle_gamma    96.729

_symmetry_space_group_name_H-M    "P 1"
_symmetry_Int_Tables_number       1

loop_
  _symmetry_equiv_pos_as_xyz
  'x, y, z'

loop_
  _atom_site_type_symbol
  _atom_site_label
  _atom_site_symmetry_multiplicity
  _atom_site_fract_x
  _atom_site_fract_y
  _atom_site_fract_z
  _atom_site_occupancy
  _atom_site_charge
Nd  Nd1       1.0  0.03699  0.67039  0.44248  1.0000 2.1336515821
Nd  Nd2       1.0  0.96301  0.32961  0.55752  1.0000 2.1336515821
Nd  Nd3       1.0  0.95346  0.61104  0.02942  1.0000 2.2005369342
Nd  Nd4       1.0  0.04654  0.38896  0.97058  1.0000 2.2005369342
Nd  Nd5       1.0  0.71188  0.87811  0.08609  1.0000 2.2005369342
Nd  Nd6       1.0  0.28812  0.12189  0.91391  1.0000 2.2005369342
Nd  Nd7       1.0  0.72320  0.89944  0.40974  1.0000 2.2068602718
Nd  Nd8       1.0  0.27680  0.10056  0.59026  1.0000 2.2068602718
Zr  Zr1       1.0  0.39269  0.31394  0.34201  1.0000 2.6111144699
Zr  Zr2       1.0  0.60731  0.68606  0.65799  1.0000 2.6111144699
Zr  Zr3       1.0  0.62348  0.22394  0.24723  1.0000 2.6386359609
Zr  Zr4       1.0  0.37652  0.77606  0.75277  1.0000 2.6386359609
Zr  Zr5       1.0  0.36864  0.29821  0.16486  1.0000 2.6009182609
Zr  Zr6       1.0  0.63136  0.70179  0.83514  1.0000 2.6009182609
P   P1        1.0  0.59120  0.44170  0.25203  1.0000 1.4816065705
P   P2        1.0  0.40880  0.55830  0.74797  1.0000 1.4816065705
P   P3        1.0  0.33600  0.11000  0.25067  1.0000 1.4373712219
P   P4        1.0  0.66400  0.89000  0.74933  1.0000 1.4373712219
H   H1        1.0  0.11458  0.41587  0.33627  1.0000 0.1706554463
H   H2        1.0  0.88542  0.58413  0.66373  1.0000 0.1706554463
H   H3        1.0  0.05563  0.57433  0.22514  1.0000 0.1706554463
H   H4        1.0  0.94437  0.42567  0.77486  1.0000 0.1706554463
H   H5        1.0  0.10678  0.36331  0.15845  1.0000 0.1706554463
H   H6        1.0  0.89322  0.63669  0.84155  1.0000 0.1755963392
H   H7        1.0  0.09128  0.73323  0.14646  1.0000 0.16004434
H   H8        1.0  0.90872  0.26677  0.85354  1.0000 0.16004434
H   H9        1.0  0.85208  0.79352  0.24261  1.0000 0.1706554463
H   H10       1.0  0.14792  0.20648  0.75739  1.0000 0.1706554463
H   H11       1.0  0.12294  0.76719  0.32507  1.0000 0.1497679926
H   H12       1.0  0.87706  0.23281  0.67493  1.0000 0.1497679926
W   W1        1.0  0.78683  0.57701  0.32699  1.0000 2.4658329166
W   W2        1.0  0.21317  0.42299  0.67301  1.0000 2.4612774869
W   W3        1.0  0.76307  0.56532  0.17300  1.0000 2.4612774869
W   W4        1.0  0.23693  0.43468  0.82700  1.0000 2.4612774869
W   W5        1.0  0.57997  0.64201  0.25956  1.0000 2.4306301035
W   W6        1.0  0.42003  0.35799  0.74044  1.0000 2.4306301035
W   W7        1.0  0.60561  0.45141  0.41109  1.0000 2.4306301035
W   W8        1.0  0.39439  0.54859  0.58891  1.0000 2.4193973902
W   W9        1.0  0.81084  0.37118  0.31855  1.0000 2.4306301035
W   W10       1.0  0.18916  0.62882  0.68145  1.0000 2.4306301035
W   W11       1.0  0.78257  0.35752  0.16641  1.0000 2.4306301035
W   W12       1.0  0.21743  0.64248  0.83359  1.0000 2.4306301035
W   W13       1.0  0.55318  0.42756  0.09380  1.0000 2.4102433599
W   W14       1.0  0.44682  0.57244  0.90620  1.0000 2.4102433599
W   W15       1.0  0.37420  0.50267  0.17913  1.0000 2.4612774869
W   W16       1.0  0.62580  0.49733  0.82087  1.0000 2.4612774869
W   W17       1.0  0.40195  0.51856  0.34711  1.0000 2.4516937412
W   W18       1.0  0.59805  0.48144  0.65289  1.0000 2.4516937412
W   W19       1.0  0.54061  0.03397  0.17236  1.0000 2.4761788524
W   W20       1.0  0.45939  0.96603  0.82764  1.0000 2.4658329166
W   W21       1.0  0.55409  0.05244  0.32499  1.0000 2.4761788524
W   W22       1.0  0.44591  0.94756  0.67501  1.0000 2.4658329166
W   W23       1.0  0.34489  0.13637  0.41211  1.0000 2.4102433599
W   W24       1.0  0.65511  0.86363  0.58789  1.0000 2.4102433599
W   W25       1.0  0.14477  0.19440  0.33769  1.0000 2.4376153625
W   W26       1.0  0.85523  0.80560  0.66231  1.0000 2.4306301035
W   W27       1.0  0.12652  0.17448  0.16915  1.0000 2.4306301035
W   W28       1.0  0.87348  0.82552  0.83085  1.0000 2.4306301035
W   W29       1.0  0.32000  0.10122  0.09216  1.0000 2.4612774869
W   W30       1.0  0.68000  0.89878  0.90784  1.0000 2.4612774869
W   W31       1.0  0.27811  0.92555  0.17168  1.0000 2.4193973902
W   W32       1.0  0.72189  0.07445  0.82832  1.0000 2.4193973902
W   W33       1.0  0.29171  0.94402  0.32579  1.0000 2.4193973902
W   W34       1.0  0.70829  0.05598  0.67421  1.0000 2.4193973902
W   W35       1.0  0.08720  0.00209  0.25111  1.0000 2.4193973902
W   W36       1.0  0.91280  0.99791  0.74889  1.0000 2.4193973902
C   C1        1.0  0.07820  0.56020  0.34460  1.0000 0.5839292682
C   C2        1.0  0.92180  0.43980  0.65540  1.0000 0.5839292682
C   C3        1.0  0.06580  0.49050  0.11770  1.0000 0.6793353684
C   C4        1.0  0.93420  0.50950  0.88230  1.0000 0.6793353684
C   C5        1.0  0.10610  0.43100  0.29770  1.0000 0.070345438
C   C6        1.0  0.89390  0.56900  0.70230  1.0000 0.070345438
C   C7        1.0  0.08640  0.50520  0.29080  1.0000 0.0032614148
C   C8        1.0  0.91360  0.49480  0.70920  1.0000 0.0032614148
C   C9        1.0  0.07040  0.52550  0.23130  1.0000 0.0032614148
C   C10       1.0  0.92960  0.47450  0.76870  1.0000 0.0032614148
C   C11       1.0  0.07710  0.47090  0.18220  1.0000 -0.0215052476
C   C12       1.0  0.92290  0.52910  0.81780  1.0000 -0.0215052476
C   C13       1.0  0.10010  0.39920  0.19110  1.0000 0.0608356172
C   C14       1.0  0.89990  0.60080  0.80890  1.0000 0.0608356172
C   C15       1.0  0.90140  0.76560  0.12850  1.0000 0.7030784167
C   C16       1.0  0.09860  0.23440  0.87150  1.0000 0.7030784167
C   C17       1.0  0.93590  0.80100  0.35440  1.0000 0.6793353684
C   C18       1.0  0.06410  0.19900  0.64560  1.0000 0.6793353684
C   C19       1.0  0.06290  0.74640  0.18350  1.0000 0.0545671485
C   C20       1.0  0.93710  0.25360  0.81650  1.0000 0.0608356172
C   C21       1.0  0.96110  0.76260  0.18680  1.0000 -0.0316465423
C   C22       1.0  0.03890  0.23740  0.81320  1.0000 -0.0350846634
C   C23       1.0  0.91970  0.78100  0.24110  1.0000 -0.0316465423
C   C24       1.0  0.08030  0.21900  0.75890  1.0000 -0.0316465423
C   C25       1.0  0.97890  0.78110  0.29510  1.0000 -0.0215052476
C   C26       1.0  0.02110  0.21890  0.70490  1.0000 -0.0215052476
C   C27       1.0  0.08150  0.76620  0.29020  1.0000 0.0840666308
C   C28       1.0  0.91850  0.23380  0.70980  1.0000 0.0840666308
N   N1        1.0  0.11290  0.38180  0.24910  1.0000 -0.0052085635
N   N2        1.0  0.88710  0.61820  0.75090  1.0000 -0.0044385888
N   N3        1.0  0.12110  0.75060  0.23690  1.0000 -0.0595511171
N   N4        1.0  0.87890  0.24940  0.76310  1.0000 -0.0595511171
O   O1        1.0  0.88410  0.62920  0.37440  1.0000 -0.8388010503
O   O2        1.0  0.11590  0.37080  0.62560  1.0000 -0.8388010503
O   O3        1.0  0.84170  0.60460  0.11940  1.0000 -0.776890906
O   O4        1.0  0.15830  0.39540  0.88060  1.0000 -0.776890906
O   O5        1.0  0.54520  0.73320  0.26510  1.0000 -0.512967559
O   O6        1.0  0.45480  0.26680  0.73490  1.0000 -0.512967559
O   O7        1.0  0.64980  0.46530  0.48500  1.0000 -0.5321379267
O   O8        1.0  0.35020  0.53470  0.51500  1.0000 -0.5418618642
O   O9        1.0  0.91530  0.36020  0.36340  1.0000 -0.5579509658
O   O10       1.0  0.08470  0.63980  0.63660  1.0000 -0.5579509658
O   O11       1.0  0.87180  0.34110  0.11320  1.0000 -0.5321379267
O   O12       1.0  0.12820  0.65890  0.88680  1.0000 -0.5321379267
O   O13       1.0  0.57070  0.43050  0.01770  1.0000 -0.5579509658
O   O14       1.0  0.42930  0.56950  0.98230  1.0000 -0.5579509658
O   O15       1.0  0.27780  0.55590  0.15900  1.0000 -0.6175550841
O   O16       1.0  0.72220  0.44410  0.84100  1.0000 -0.611397358
O   O17       1.0  0.31360  0.57410  0.37940  1.0000 -0.5904584351
O   O18       1.0  0.68640  0.42590  0.62060  1.0000 -0.5904584351
O   O19       1.0  0.61560  0.98510  0.12190  1.0000 -0.8779832595
O   O20       1.0  0.38440  0.01490  0.87810  1.0000 -0.8695871555
O   O21       1.0  0.63580  0.01120  0.37280  1.0000 -0.8695871555
O   O22       1.0  0.36420  0.98880  0.62720  1.0000 -0.8695871555
O   O23       1.0  0.35490  0.12360  0.48790  1.0000 -0.8507060779
O   O24       1.0  0.64510  0.87640  0.51210  1.0000 -0.8507060779
O   O25       1.0  0.03040  0.21830  0.36610  1.0000 -0.5579509658
O   O26       1.0  0.96960  0.78170  0.63390  1.0000 -0.5579509658
O   O27       1.0  0.00820  0.19400  0.14360  1.0000 -0.5713593287
O   O28       1.0  0.99180  0.80600  0.85640  1.0000 -0.5579509658
O   O29       1.0  0.32020  0.07500  0.01490  1.0000 -0.8695871555
O   O30       1.0  0.67980  0.92500  0.98510  1.0000 -0.8695871555
O   O31       1.0  0.26780  0.84370  0.12320  1.0000 -0.6014772776
O   O32       1.0  0.73220  0.15630  0.87680  1.0000 -0.6014772776
O   O33       1.0  0.28820  0.87440  0.37410  1.0000 -0.5321379267
O   O34       1.0  0.71180  0.12560  0.62590  1.0000 -0.5321379267
O   O35       1.0  0.95860  0.96680  0.25200  1.0000 -0.5418618642
O   O36       1.0  0.04140  0.03320  0.74800  1.0000 -0.5418618642
O   O37       1.0  0.83790  0.59760  0.24800  1.0000 -0.8205844708
O   O38       1.0  0.16210  0.40240  0.75200  1.0000 -0.8205844708
O   O39       1.0  0.69930  0.65740  0.31580  1.0000 -0.8205844708
O   O40       1.0  0.30070  0.34260  0.68420  1.0000 -0.8205844708
O   O41       1.0  0.69340  0.53880  0.38040  1.0000 -0.8323626765
O   O42       1.0  0.30660  0.46120  0.61960  1.0000 -0.8323626765
O   O43       1.0  0.83420  0.48270  0.31540  1.0000 -0.8388010503
O   O44       1.0  0.16580  0.51730  0.68460  1.0000 -0.8388010503
O   O45       1.0  0.67850  0.64780  0.19580  1.0000 -0.8507060779
O   O46       1.0  0.32150  0.35220  0.80420  1.0000 -0.8507060779
O   O47       1.0  0.64880  0.51920  0.12550  1.0000 -0.8388010503
O   O48       1.0  0.35120  0.48080  0.87450  1.0000 -0.8388010503
O   O49       1.0  0.80690  0.47010  0.17270  1.0000 -0.8140316926
O   O50       1.0  0.19310  0.52990  0.82730  1.0000 -0.8140316926
O   O51       1.0  0.48240  0.58910  0.20260  1.0000 -0.8695871555
O   O52       1.0  0.51760  0.41090  0.79740  1.0000 -0.8695871555
O   O53       1.0  0.49910  0.59930  0.31990  1.0000 -0.8695871555
O   O54       1.0  0.50090  0.40070  0.68010  1.0000 -0.8695871555
O   O55       1.0  0.49960  0.51860  0.41350  1.0000 -0.8388010503
O   O56       1.0  0.50040  0.48140  0.58650  1.0000 -0.8388010503
O   O57       1.0  0.50770  0.36920  0.41170  1.0000 -0.8894855051
O   O58       1.0  0.49230  0.63080  0.58830  1.0000 -0.8894855051
O   O59       1.0  0.70990  0.39450  0.37580  1.0000 -0.8388010503
O   O60       1.0  0.29010  0.60550  0.62420  1.0000 -0.8388010503
O   O61       1.0  0.74910  0.27240  0.30270  1.0000 -0.9105040156
O   O62       1.0  0.25090  0.72760  0.69730  1.0000 -0.9105040156
O   O63       1.0  0.86650  0.36610  0.23900  1.0000 -0.8205844708
O   O64       1.0  0.13350  0.63390  0.76100  1.0000 -0.8205844708
O   O65       1.0  0.72550  0.26310  0.18150  1.0000 -0.8894855051
O   O66       1.0  0.27450  0.73690  0.81850  1.0000 -0.8894855051
O   O67       1.0  0.66560  0.37340  0.11600  1.0000 -0.8507060779
O   O68       1.0  0.33440  0.62660  0.88400  1.0000 -0.8507060779
O   O69       1.0  0.45580  0.34370  0.09470  1.0000 -0.9105040156
O   O70       1.0  0.54420  0.65630  0.90530  1.0000 -0.9105040156
O   O71       1.0  0.44710  0.49380  0.10470  1.0000 -0.8388010503
O   O72       1.0  0.55290  0.50620  0.89530  1.0000 -0.8323626765
O   O73       1.0  0.31220  0.40470  0.16190  1.0000 -0.8894855051
O   O74       1.0  0.68780  0.59530  0.83810  1.0000 -0.8779832595
O   O75       1.0  0.35460  0.50310  0.26270  1.0000 -0.8323626765
O   O76       1.0  0.64540  0.49690  0.73730  1.0000 -0.8323626765
O   O77       1.0  0.34400  0.42180  0.35860  1.0000 -0.8993094586
O   O78       1.0  0.65600  0.57820  0.64140  1.0000 -0.8993094586
O   O79       1.0  0.58920  0.00410  0.24710  1.0000 -0.8323626765
O   O80       1.0  0.41080  0.99590  0.75290  1.0000 -0.8388010503
O   O81       1.0  0.62400  0.12620  0.18760  1.0000 -0.9293068074
O   O82       1.0  0.37600  0.87380  0.81240  1.0000 -0.9293068074
O   O83       1.0  0.45060  0.07790  0.11860  1.0000 -0.8388010503
O   O84       1.0  0.54940  0.92210  0.88140  1.0000 -0.8388010503
O   O85       1.0  0.42290  0.95760  0.17590  1.0000 -0.8695871555
O   O86       1.0  0.57710  0.04240  0.82410  1.0000 -0.8695871555
O   O87       1.0  0.63370  0.13870  0.30920  1.0000 -0.8894855051
O   O88       1.0  0.36630  0.86130  0.69080  1.0000 -0.8894855051
O   O89       1.0  0.47540  0.10540  0.38180  1.0000 -0.8507060779
O   O90       1.0  0.52460  0.89460  0.61820  1.0000 -0.8507060779
O   O91       1.0  0.43660  0.97210  0.31950  1.0000 -0.861057932
O   O92       1.0  0.56340  0.02790  0.68050  1.0000 -0.861057932
O   O93       1.0  0.39090  0.23530  0.40980  1.0000 -0.8894855051
O   O94       1.0  0.60910  0.76470  0.59020  1.0000 -0.8894855051
O   O95       1.0  0.20480  0.15630  0.40680  1.0000 -0.8205844708
O   O96       1.0  0.79520  0.84370  0.59320  1.0000 -0.8205844708
O   O97       1.0  0.28980  0.03230  0.37870  1.0000 -0.8507060779
O   O98       1.0  0.71020  0.96770  0.62130  1.0000 -0.8507060779
O   O99       1.0  0.23020  0.28290  0.35170  1.0000 -0.8695871555
O   O100      1.0  0.76980  0.71710  0.64830  1.0000 -0.8695871555
O   O101      1.0  0.12390  0.20740  0.25320  1.0000 -0.8388010503
O   O102      1.0  0.87610  0.79260  0.74680  1.0000 -0.8388010503
O   O103      1.0  0.10170  0.08570  0.31040  1.0000 -0.861057932
O   O104      1.0  0.89830  0.91430  0.68960  1.0000 -0.861057932
O   O105      1.0  0.20930  0.26190  0.15560  1.0000 -0.8894855051
O   O106      1.0  0.79070  0.73810  0.84440  1.0000 -0.8894855051
O   O107      1.0  0.17670  0.12090  0.09680  1.0000 -0.8323626765
O   O108      1.0  0.82330  0.87910  0.90320  1.0000 -0.8323626765
O   O109      1.0  0.09050  0.07320  0.19420  1.0000 -0.8507060779
O   O110      1.0  0.90950  0.92680  0.80580  1.0000 -0.8507060779
O   O111      1.0  0.36200  0.20250  0.09530  1.0000 -0.861057932
O   O112      1.0  0.63800  0.79750  0.90470  1.0000 -0.861057932
O   O113      1.0  0.26640  0.00230  0.12050  1.0000 -0.861057932
O   O114      1.0  0.73360  0.99770  0.87950  1.0000 -0.861057932
O   O115      1.0  0.29970  0.88860  0.24860  1.0000 -0.8388010503
O   O116      1.0  0.70030  0.11140  0.75140  1.0000 -0.8388010503
O   O117      1.0  0.13530  0.93410  0.18880  1.0000 -0.8388010503
O   O118      1.0  0.86470  0.06590  0.81120  1.0000 -0.8388010503
O   O119      1.0  0.14620  0.94570  0.31040  1.0000 -0.8388010503
O   O120      1.0  0.85380  0.05430  0.68960  1.0000 -0.8388010503
O   O121      1.0  0.65540  0.52370  0.25240  1.0000 -0.9246143423
O   O122      1.0  0.34460  0.47630  0.74760  1.0000 -0.9246143423
O   O123      1.0  0.66667  0.38200  0.24680  1.0000 -0.8695871555
O   O124      1.0  0.33333  0.61800  0.75320  1.0000 -0.8695871555
O   O125      1.0  0.51390  0.42950  0.19780  1.0000 -0.8779832595
O   O126      1.0  0.48610  0.57050  0.80220  1.0000 -0.8779832595
O   O127      1.0  0.53130  0.43830  0.31110  1.0000 -0.8695871555
O   O128      1.0  0.46870  0.56170  0.68890  1.0000 -0.8695871555
O   O129      1.0  0.45310  0.10130  0.25110  1.0000 -0.8695871555
O   O130      1.0  0.54690  0.89870  0.74890  1.0000 -0.8695871555
O   O131      1.0  0.31280  0.16000  0.30850  1.0000 -0.8695871555
O   O132      1.0  0.68720  0.84000  0.69150  1.0000 -0.8695871555
O   O133      1.0  0.30110  0.14610  0.19430  1.0000 -0.8695871555
O   O134      1.0  0.69890  0.85390  0.80570  1.0000 -0.8695871555
O   O135      1.0  0.27460  0.02960  0.25060  1.0000 -0.8993094586
O   O136      1.0  0.72540  0.97040  0.74940  1.0000 -0.8993094586
O   O137      1.0  0.52930  0.26410  0.31360  1.0000 -0.9997580372
O   O138      1.0  0.47070  0.73590  0.68640  1.0000 -0.9997580372
O   O139      1.0  0.51110  0.25010  0.18380  1.0000 -0.9892354332
O   O140      1.0  0.48890  0.74990  0.81620  1.0000 -0.980976256
O   O141      1.0  0.36150  0.31350  0.25360  1.0000 -1.0248961769
O   O142      1.0  0.63850  0.68650  0.74640  1.0000 -1.0288501107
O   O143      1.0  0.06210  0.53770  0.39640  1.0000 -0.5418618642
O   O144      1.0  0.93790  0.46230  0.60360  1.0000 -0.5418618642
O   O145      1.0  0.08940  0.63020  0.33710  1.0000 -0.551042112
O   O146      1.0  0.91060  0.36980  0.66290  1.0000 -0.551042112
O   O147      1.0  0.04110  0.55630  0.10960  1.0000 -0.5832381569
O   O148      1.0  0.95890  0.44370  0.89040  1.0000 -0.5832381569
O   O149      1.0  0.08280  0.44000  0.07710  1.0000 -0.5579509658
O   O150      1.0  0.91720  0.56000  0.92290  1.0000 -0.5579509658
O   O151      1.0  0.82080  0.79880  0.13280  1.0000 -0.611397358
O   O152      1.0  0.17920  0.20120  0.86720  1.0000 -0.6175550841
O   O153      1.0  0.93310  0.73640  0.07890  1.0000 -0.5904584351
O   O154      1.0  0.06690  0.26360  0.92110  1.0000 -0.5904584351
O   O155      1.0  0.85380  0.83160  0.35500  1.0000 -0.5713593287
O   O156      1.0  0.14620  0.16840  0.64500  1.0000 -0.5713593287
O   O157      1.0  0.98430  0.78610  0.40190  1.0000 -0.5904584351
O   O158      1.0  0.01570  0.21390  0.59810  1.0000 -0.5904584351
O   O159      1.0  0.87300  0.70880  0.49440  1.0000 -0.0595511171
O   O160      1.0  0.12700  0.29120  0.50560  1.0000 -0.0709146582
O   O161      1.0  0.97860  0.57840  0.51470  1.0000 -0.0316465423
O   O162      1.0  0.02140  0.42160  0.48530  1.0000 -0.0316465423
O   O163      1.0  0.08420  0.76050  0.53320  1.0000 -0.3976385765
O   O164      1.0  0.91580  0.23950  0.46680  1.0000 -0.3976385765
O   O165      1.0  0.19290  0.62680  0.49100  1.0000 -0.0215052476
O   O166      1.0  0.80710  0.37320  0.50900  1.0000 -0.0215052476
O   O167      1.0  0.20130  0.75370  0.42620  1.0000 -0.2985450127
O   O168      1.0  0.79870  0.24630  0.57380  1.0000 -0.2985450127
O   O169      1.0  0.89450  0.46680  0.02310  1.0000 -0.6014772776
O   O170      1.0  0.10550  0.53320  0.97690  1.0000 -0.611397358
O   O171      1.0  0.77090  0.61400  0.99410  1.0000 -0.1248588883
O   O172      1.0  0.22910  0.38600  0.00590  1.0000 -0.1263589137
O   O173      1.0  0.97090  0.71180  0.95840  1.0000 -0.0545672015
O   O174      1.0  0.02910  0.28820  0.04160  1.0000 -0.0545672015
O   O175      1.0  0.12820  0.69070  0.04830  1.0000 -0.2985450127
O   O176      1.0  0.87180  0.30930  0.95170  1.0000 -0.2985450127
O   O177      1.0  0.61640  0.80010  0.15590  1.0000 -0.2663965546
O   O178      1.0  0.38360  0.19990  0.84410  1.0000 -0.2663965546
O   O179      1.0  0.51700  0.85530  0.05560  1.0000 -0.2130509116
O   O180      1.0  0.48300  0.14470  0.94440  1.0000 -0.2130509116
O   O181      1.0  0.65890  0.75230  0.02440  1.0000 -0.1379866623
O   O182      1.0  0.34110  0.24770  0.97560  1.0000 -0.1459883921
O   O183      1.0  0.85590  0.84860  0.01940  1.0000 -0.2321987995
O   O184      1.0  0.14410  0.15140  0.98060  1.0000 -0.2402527951
O   O185      1.0  0.84090  0.98760  0.08570  1.0000 -0.478632512
O   O186      1.0  0.15910  0.01240  0.91430  1.0000 -0.478632512
O   O187      1.0  0.76560  0.93280  0.19700  1.0000 0.0608356172
O   O188      1.0  0.23440  0.06720  0.80300  1.0000 0.070345438
O   O189      1.0  0.68640  0.76010  0.41530  1.0000 -0.2321987995
O   O190      1.0  0.31360  0.23990  0.58470  1.0000 -0.2402527951
O   O191      1.0  0.87650  0.88590  0.47620  1.0000 -0.3201447152
O   O192      1.0  0.12350  0.11410  0.52380  1.0000 -0.3201447152
O   O193      1.0  0.85340  0.98590  0.36210  1.0000 -0.2824961268
O   O194      1.0  0.14660  0.01410  0.63790  1.0000 -0.2824961268
O   O195      1.0  0.76250  0.01770  0.48000  1.0000 -0.3201447152
O   O196      1.0  0.23750  0.98230  0.52000  1.0000 -0.3201447152
O   O197      1.0  0.52630  0.87220  0.39900  1.0000 -0.2587540471
O   O198      1.0  0.47370  0.12780  0.60100  1.0000 -0.2587540471
O   O199      1.0  0.66540  0.86660  0.30110  1.0000 -0.1585880243
O   O200      1.0  0.33460  0.13340  0.69890  1.0000 -0.1585880243
