# DDEC6 charges by PACMAN v1.1 (https://github.com/mtap-research/PACMAN-charge/)
data_2023[Ho][nan]3[FSR]2
_chemical_formula_sum              "Ho4 H86 C102 N2 O32"
_cell_length_a       9.8235
_cell_length_b       13.8714
_cell_length_c       22.4913
_cell_angle_alpha    83.593
_cell_angle_beta     78.224
_cell_angle_gamma    84.961

_symmetry_space_group_name_H-M    "P 1"
_symmetry_Int_Tables_number       1

loop_
  _symmetry_equiv_pos_as_xyz
  'x, y, z'

loop_
  _atom_site_type_symbol
  _atom_site_label
  _atom_site_symmetry_multiplicity
  _atom_site_fract_x
  _atom_site_fract_y
  _atom_site_fract_z
  _atom_site_occupancy
  _atom_site_charge
Ho  Ho1       1.0  0.48391  0.42375  0.40480  1.0000 2.0455564348
Ho  Ho2       1.0  0.51609  0.57625  0.59520  1.0000 2.0455564348
Ho  Ho3       1.0  0.74445  0.01258  0.00372  1.0000 2.0682363597
Ho  Ho4       1.0  0.25555  0.98742  0.99628  1.0000 2.0682363597
H   H1        1.0  0.28592  0.46447  0.32083  1.0000 0.3739935843
H   H2        1.0  0.71408  0.53553  0.67917  1.0000 0.3739935843
H   H3        1.0  0.23086  0.38829  0.36030  1.0000 0.3603138713
H   H4        1.0  0.76914  0.61171  0.63970  1.0000 0.3603138713
H   H5        1.0  0.52249  0.15127  0.98588  1.0000 0.3789542106
H   H6        1.0  0.47751  0.84873  0.01412  1.0000 0.3789542106
H   H7        1.0  0.64007  0.19456  0.95416  1.0000 0.351440565
H   H8        1.0  0.35993  0.80544  0.04584  1.0000 0.351440565
H   H9        1.0  0.90901  0.11608  0.06135  1.0000 0.3789542106
H   H10       1.0  0.09099  0.88392  0.93865  1.0000 0.3789542106
H   H11       1.0  0.77955  0.16571  0.07138  1.0000 0.351440565
H   H12       1.0  0.22045  0.83429  0.92862  1.0000 0.351440565
H   H13       1.0  0.38448  0.33258  0.97916  1.0000 0.1197587651
H   H14       1.0  0.61552  0.66742  0.02084  1.0000 0.1197587651
H   H15       1.0  0.01080  0.28271  0.08617  1.0000 0.1197587651
H   H16       1.0  0.98920  0.71729  0.91383  1.0000 0.1131547494
H   H17       1.0  0.34630  0.49716  0.99218  1.0000 0.1197587651
H   H18       1.0  0.65370  0.50284  0.00782  1.0000 0.1197587651
H   H19       1.0  0.96858  0.44803  0.09814  1.0000 0.1131547494
H   H20       1.0  0.03142  0.55197  0.90186  1.0000 0.1131547494
H   H21       1.0  0.18829  0.63456  0.01639  1.0000 0.1131547494
H   H22       1.0  0.81171  0.36544  0.98361  1.0000 0.1131547494
H   H23       1.0  0.03455  0.71689  0.07583  1.0000 0.1197587651
H   H24       1.0  0.96545  0.28311  0.92417  1.0000 0.1197587651
H   H25       1.0  0.76776  0.66798  0.11858  1.0000 0.1197587651
H   H26       1.0  0.23224  0.33202  0.88142  1.0000 0.1197587651
H   H27       1.0  0.09389  0.55554  0.18940  1.0000 0.1131547494
H   H28       1.0  0.90611  0.44446  0.81060  1.0000 0.1131547494
H   H29       1.0  0.61918  0.60658  0.20609  1.0000 0.1197587651
H   H30       1.0  0.38082  0.39342  0.79391  1.0000 0.1197587651
H   H31       1.0  0.94641  0.51222  0.28152  1.0000 0.1131547494
H   H32       1.0  0.05359  0.48778  0.71848  1.0000 0.1131547494
H   H33       1.0  0.74149  0.22606  0.46529  1.0000 0.1197587651
H   H34       1.0  0.25851  0.77394  0.53471  1.0000 0.1197587651
H   H35       1.0  0.63852  0.27506  0.64304  1.0000 0.1197587651
H   H36       1.0  0.36148  0.72494  0.35696  1.0000 0.1197587651
H   H37       1.0  0.83992  0.07334  0.49225  1.0000 0.1131547494
H   H38       1.0  0.16008  0.92666  0.50775  1.0000 0.1131547494
H   H39       1.0  0.74152  0.12305  0.67010  1.0000 0.1131547494
H   H40       1.0  0.25848  0.87695  0.32990  1.0000 0.1131547494
H   H41       1.0  0.91787  0.95493  0.56350  1.0000 0.1197587651
H   H42       1.0  0.08213  0.04507  0.43650  1.0000 0.1197587651
H   H43       1.0  0.90839  0.86684  0.64852  1.0000 0.1197587651
H   H44       1.0  0.09161  0.13316  0.35148  1.0000 0.1197587651
H   H45       1.0  0.58093  0.94961  0.69261  1.0000 0.1197587651
H   H46       1.0  0.41907  0.05039  0.30739  1.0000 0.1197587651
H   H47       1.0  0.94088  0.94356  0.75306  1.0000 0.1197587651
H   H48       1.0  0.05912  0.05644  0.24694  1.0000 0.1197587651
H   H49       1.0  0.45530  0.96697  0.79142  1.0000 0.1197587651
H   H50       1.0  0.54470  0.03303  0.20858  1.0000 0.1197587651
H   H51       1.0  0.81816  0.96582  0.85058  1.0000 0.1288312044
H   H52       1.0  0.18184  0.03418  0.14942  1.0000 0.1288312044
H   H53       1.0  0.72108  0.91931  0.16274  1.0000 0.1288312044
H   H54       1.0  0.27892  0.08069  0.83726  1.0000 0.1288312044
H   H55       1.0  0.11238  0.82552  0.18047  1.0000 0.1197587651
H   H56       1.0  0.88762  0.17448  0.81953  1.0000 0.1197587651
H   H57       1.0  0.63873  0.86027  0.26306  1.0000 0.1197587651
H   H58       1.0  0.36127  0.13973  0.73694  1.0000 0.1197587651
H   H59       1.0  0.02804  0.76235  0.27956  1.0000 0.1197587651
H   H60       1.0  0.97196  0.23765  0.72044  1.0000 0.1197587651
H   H61       1.0  0.78994  0.69837  0.35550  1.0000 0.1197587651
H   H62       1.0  0.21006  0.30163  0.64450  1.0000 0.1197587651
H   H63       1.0  0.66842  0.77896  0.42859  1.0000 0.1288312044
H   H64       1.0  0.33158  0.22104  0.57141  1.0000 0.1288312044
H   H65       1.0  0.84130  0.97054  0.33137  1.0000 0.1131547494
H   H66       1.0  0.15870  0.02946  0.66863  1.0000 0.1131547494
H   H67       1.0  0.48256  0.90999  0.44752  1.0000 0.1131547494
H   H68       1.0  0.51744  0.09001  0.55248  1.0000 0.1131547494
H   H69       1.0  0.77618  0.13562  0.33263  1.0000 0.1288312044
H   H70       1.0  0.22382  0.86438  0.66737  1.0000 0.1288312044
H   H71       1.0  0.41389  0.07383  0.44600  1.0000 0.1197587651
H   H72       1.0  0.58611  0.92617  0.55400  1.0000 0.1197587651
H   H73       1.0  0.21053  0.48546  0.54808  1.0000 0.1131547494
H   H74       1.0  0.78947  0.51454  0.45192  1.0000 0.1131547494
H   H75       1.0  0.99469  0.32621  0.48479  1.0000 0.1288312044
H   H76       1.0  0.00531  0.67379  0.51521  1.0000 0.1288312044
H   H77       1.0  0.02309  0.25421  0.54234  1.0000 0.1288312044
H   H78       1.0  0.97691  0.74579  0.45766  1.0000 0.1288312044
H   H79       1.0  0.14963  0.28232  0.48773  1.0000 0.1459896801
H   H80       1.0  0.85037  0.71768  0.51227  1.0000 0.1459896801
H   H81       1.0  0.96254  0.36560  0.62516  1.0000 0.1352328074
H   H82       1.0  0.03746  0.63440  0.37484  1.0000 0.1352328074
H   H83       1.0  0.88694  0.43373  0.57766  1.0000 0.1288312044
H   H84       1.0  0.11306  0.56627  0.42234  1.0000 0.1288312044
H   H85       1.0  0.00063  0.47634  0.60758  1.0000 0.1288312044
H   H86       1.0  0.99937  0.52366  0.39242  1.0000 0.1288312044
C   C1        1.0  0.21950  0.18670  0.01790  1.0000 0.5791725901
C   C2        1.0  0.78050  0.81330  0.98210  1.0000 0.5791725901
C   C3        1.0  0.20000  0.29160  0.02980  1.0000 -0.0294214363
C   C4        1.0  0.80000  0.70840  0.97020  1.0000 -0.0294214363
C   C5        1.0  0.29930  0.35590  0.00310  1.0000 -0.0995886805
C   C6        1.0  0.70070  0.64410  0.99690  1.0000 -0.0995886805
C   C7        1.0  0.07830  0.32670  0.06610  1.0000 -0.0944405539
C   C8        1.0  0.92170  0.67330  0.93390  1.0000 -0.0944405539
C   C9        1.0  0.27640  0.45420  0.01080  1.0000 -0.1571649017
C   C10       1.0  0.72360  0.54580  0.98920  1.0000 -0.1571649017
C   C11       1.0  0.15230  0.49100  0.04560  1.0000 0.1197587651
C   C12       1.0  0.84770  0.50900  0.95440  1.0000 0.1197587651
C   C13       1.0  0.05340  0.42530  0.07370  1.0000 -0.1420723047
C   C14       1.0  0.94660  0.57470  0.92630  1.0000 -0.1500133663
C   C15       1.0  0.12940  0.59720  0.04760  1.0000 -0.1500133663
C   C16       1.0  0.87060  0.40280  0.95240  1.0000 -0.1500133663
C   C17       1.0  0.03940  0.64850  0.08620  1.0000 -0.1283104482
C   C18       1.0  0.96060  0.35150  0.91380  1.0000 -0.1283104482
C   C19       1.0  0.94470  0.61330  0.14360  1.0000 0.1197587651
C   C20       1.0  0.05530  0.38670  0.85640  1.0000 0.1197587651
C   C21       1.0  0.80570  0.63150  0.15040  1.0000 -0.1420723047
C   C22       1.0  0.19430  0.36850  0.84960  1.0000 -0.1420723047
C   C23       1.0  0.99610  0.56780  0.19280  1.0000 -0.1500133663
C   C24       1.0  0.00390  0.43220  0.80720  1.0000 -0.1500133663
C   C25       1.0  0.71710  0.59730  0.20360  1.0000 -0.0944405539
C   C26       1.0  0.28290  0.40270  0.79640  1.0000 -0.0944405539
C   C27       1.0  0.90790  0.53950  0.24740  1.0000 -0.1079776349
C   C28       1.0  0.09210  0.46050  0.75260  1.0000 -0.1079776349
C   C29       1.0  0.76700  0.55050  0.25260  1.0000 -0.0294214363
C   C30       1.0  0.23300  0.44950  0.74740  1.0000 -0.0294214363
C   C31       1.0  0.66970  0.51270  0.30850  1.0000 0.5791725901
C   C32       1.0  0.33030  0.48730  0.69150  1.0000 0.5791725901
C   C33       1.0  0.60950  0.36290  0.53540  1.0000 0.6405442444
C   C34       1.0  0.39050  0.63710  0.46460  1.0000 0.6405442444
C   C35       1.0  0.67680  0.26510  0.55140  1.0000 -0.0460069875
C   C36       1.0  0.32320  0.73490  0.44860  1.0000 -0.0460069875
C   C37       1.0  0.73930  0.20490  0.50710  1.0000 -0.0995886805
C   C38       1.0  0.26070  0.79510  0.49290  1.0000 -0.0995886805
C   C39       1.0  0.67920  0.23380  0.61220  1.0000 -0.0995886805
C   C40       1.0  0.32080  0.76620  0.38780  1.0000 -0.0995886805
C   C41       1.0  0.79880  0.11410  0.52330  1.0000 -0.1686509165
C   C42       1.0  0.20120  0.88590  0.47670  1.0000 -0.1686509165
C   C43       1.0  0.74020  0.14300  0.62840  1.0000 -0.1571649017
C   C44       1.0  0.25980  0.85700  0.37160  1.0000 -0.1571649017
C   C45       1.0  0.79970  0.08100  0.58390  1.0000 0.1197587651
C   C46       1.0  0.20030  0.91900  0.41610  1.0000 0.1197587651
C   C47       1.0  0.86240  0.98320  0.59780  1.0000 -0.1571649017
C   C48       1.0  0.13760  0.01680  0.40220  1.0000 -0.1571649017
C   C49       1.0  0.85440  0.92710  0.65080  1.0000 -0.1420723047
C   C50       1.0  0.14560  0.07290  0.34920  1.0000 -0.1420723047
C   C51       1.0  0.77360  0.94470  0.71280  1.0000 0.1197587651
C   C52       1.0  0.22640  0.05530  0.28720  1.0000 0.1197587651
C   C53       1.0  0.62940  0.95210  0.72480  1.0000 -0.1500133663
C   C54       1.0  0.37060  0.04790  0.27520  1.0000 -0.1500133663
C   C55       1.0  0.84190  0.94920  0.76060  1.0000 -0.1500133663
C   C56       1.0  0.15810  0.05080  0.23940  1.0000 -0.1500133663
C   C57       1.0  0.55430  0.96300  0.78360  1.0000 -0.0995886805
C   C58       1.0  0.44570  0.03700  0.21640  1.0000 -0.0995886805
C   C59       1.0  0.76910  0.96170  0.81880  1.0000 -0.0849189522
C   C60       1.0  0.23090  0.03830  0.18120  1.0000 -0.0849189522
C   C61       1.0  0.62460  0.96820  0.83100  1.0000 -0.0393657169
C   C62       1.0  0.37540  0.03180  0.16900  1.0000 -0.0393657169
C   C63       1.0  0.54410  0.98210  0.89410  1.0000 0.6577258793
C   C64       1.0  0.45590  0.01790  0.10590  1.0000 0.6577258793
C   C65       1.0  0.97870  0.91780  0.09650  1.0000 0.6494723645
C   C66       1.0  0.02130  0.08220  0.90350  1.0000 0.6494723645
C   C67       1.0  0.92640  0.87820  0.16100  1.0000 -0.0393657169
C   C68       1.0  0.07360  0.12180  0.83900  1.0000 -0.0393657169
C   C69       1.0  0.78450  0.88790  0.18660  1.0000 -0.0944405539
C   C70       1.0  0.21550  0.11210  0.81340  1.0000 -0.0944405539
C   C71       1.0  0.01520  0.83210  0.19680  1.0000 -0.0944405539
C   C72       1.0  0.98480  0.16790  0.80320  1.0000 -0.0944405539
C   C73       1.0  0.73550  0.85240  0.24630  1.0000 -0.1420723047
C   C74       1.0  0.26450  0.14760  0.75370  1.0000 -0.1420723047
C   C75       1.0  0.96490  0.79540  0.25610  1.0000 -0.1571649017
C   C76       1.0  0.03510  0.20460  0.74390  1.0000 -0.1571649017
C   C77       1.0  0.82510  0.80540  0.28220  1.0000 0.1197587651
C   C78       1.0  0.17490  0.19460  0.71780  1.0000 0.1197587651
C   C79       1.0  0.77170  0.76610  0.34580  1.0000 -0.1420723047
C   C80       1.0  0.22830  0.23390  0.65420  1.0000 -0.1420723047
C   C81       1.0  0.70060  0.81580  0.39090  1.0000 -0.1283104482
C   C82       1.0  0.29940  0.18420  0.60910  1.0000 -0.1283104482
C   C83       1.0  0.66600  0.92240  0.38890  1.0000 0.1197587651
C   C84       1.0  0.33400  0.07760  0.61110  1.0000 0.1197587651
C   C85       1.0  0.75410  0.99130  0.35490  1.0000 -0.1571649017
C   C86       1.0  0.24590  0.00870  0.64510  1.0000 -0.1571649017
C   C87       1.0  0.54210  0.95560  0.42300  1.0000 -0.1500133663
C   C88       1.0  0.45790  0.04440  0.57700  1.0000 -0.1500133663
C   C89       1.0  0.71470  0.08960  0.35540  1.0000 -0.1079776349
C   C90       1.0  0.28530  0.91040  0.64460  1.0000 -0.1079776349
C   C91       1.0  0.50140  0.05330  0.42270  1.0000 -0.0995886805
C   C92       1.0  0.49860  0.94670  0.57730  1.0000 -0.0995886805
C   C93       1.0  0.58760  0.12200  0.38840  1.0000 -0.0294214363
C   C94       1.0  0.41240  0.87800  0.61160  1.0000 -0.0294214363
C   C95       1.0  0.54480  0.22760  0.38960  1.0000 0.5541227547
C   C96       1.0  0.45520  0.77240  0.61040  1.0000 0.5541227547
C   C97       1.0  0.19850  0.43380  0.52570  1.0000 0.3234608856
C   C98       1.0  0.80150  0.56620  0.47430  1.0000 0.3234608856
C   C99       1.0  0.06080  0.30610  0.51180  1.0000 -0.3408284398
C   C100      1.0  0.93920  0.69390  0.48820  1.0000 -0.3408284398
C   C101      1.0  0.97450  0.41860  0.59220  1.0000 -0.3674119326
C   C102      1.0  0.02550  0.58140  0.40780  1.0000 -0.3674119326
N   N1        1.0  0.08320  0.38920  0.54250  1.0000 0.026112215
N   N2        1.0  0.91680  0.61080  0.45750  1.0000 0.026112215
O   O1        1.0  0.54490  0.50350  0.30516  1.0000 -0.6358736666
O   O2        1.0  0.45510  0.49650  0.69484  1.0000 -0.6358736666
O   O3        1.0  0.71100  0.48800  0.35773  1.0000 -0.6295862508
O   O4        1.0  0.28900  0.51200  0.64227  1.0000 -0.6295862508
O   O5        1.0  0.60390  0.38600  0.48008  1.0000 -0.6893697294
O   O6        1.0  0.39610  0.61400  0.51992  1.0000 -0.6893697294
O   O7        1.0  0.30200  0.42420  0.35150  1.0000 -0.7752424988
O   O8        1.0  0.69800  0.57580  0.64850  1.0000 -0.7752424988
O   O9        1.0  0.29200  0.41380  0.48319  1.0000 -0.5553623351
O   O10       1.0  0.70800  0.58620  0.51681  1.0000 -0.5553623351
O   O11       1.0  0.61060  0.99610  0.93446  1.0000 -0.7024457964
O   O12       1.0  0.38940  0.00390  0.06554  1.0000 -0.7024457964
O   O13       1.0  0.60580  0.16390  0.98912  1.0000 -0.761118761
O   O14       1.0  0.39420  0.83610  0.01088  1.0000 -0.761118761
O   O15       1.0  0.84220  0.14080  0.04262  1.0000 -0.761118761
O   O16       1.0  0.15780  0.85920  0.95738  1.0000 -0.761118761
O   O17       1.0  0.89320  0.94570  0.06310  1.0000 -0.6814250859
O   O18       1.0  0.10680  0.05430  0.93690  1.0000 -0.6814250859
O   O19       1.0  0.56610  0.41620  0.57695  1.0000 -0.6506893151
O   O20       1.0  0.43390  0.58380  0.42305  1.0000 -0.6506893151
O   O21       1.0  0.41360  0.98010  0.90418  1.0000 -0.6718725326
O   O22       1.0  0.58640  0.01990  0.09582  1.0000 -0.6718725326
O   O23       1.0  0.10830  0.91990  0.07949  1.0000 -0.6718725326
O   O24       1.0  0.89170  0.08010  0.92051  1.0000 -0.6718725326
O   O25       1.0  0.12950  0.12750  0.04573  1.0000 -0.6506893151
O   O26       1.0  0.87050  0.87250  0.95427  1.0000 -0.6506893151
O   O27       1.0  0.32540  0.15650  0.97994  1.0000 -0.6506893151
O   O28       1.0  0.67460  0.84350  0.02006  1.0000 -0.6506893151
O   O29       1.0  0.62210  0.29020  0.35743  1.0000 -0.6295862508
O   O30       1.0  0.37790  0.70980  0.64257  1.0000 -0.6295862508
O   O31       1.0  0.43380  0.25470  0.42410  1.0000 -0.6295862508
O   O32       1.0  0.56620  0.74530  0.57590  1.0000 -0.6295862508
