# DDEC6 charges by PACMAN v1.1 (https://github.com/mtap-research/PACMAN-charge/)
data_2023[Zn][nan]3[FSR]1
_chemical_formula_sum              "Zn4 H80 C116 N4 O16"
_cell_length_a       13.9303
_cell_length_b       13.9303
_cell_length_c       28.5328
_cell_angle_alpha    86.2769
_cell_angle_beta     93.7231
_cell_angle_gamma    145.569

_symmetry_space_group_name_H-M    "P 1"
_symmetry_Int_Tables_number       1

loop_
  _symmetry_equiv_pos_as_xyz
  'x, y, z'

loop_
  _atom_site_type_symbol
  _atom_site_label
  _atom_site_symmetry_multiplicity
  _atom_site_fract_x
  _atom_site_fract_y
  _atom_site_fract_z
  _atom_site_occupancy
  _atom_site_charge
Zn  Zn1       1.0  0.16409  0.09083  0.51141  1.0000 0.8281944362
Zn  Zn2       1.0  0.09083  0.16409  0.98859  1.0000 0.8281944362
Zn  Zn3       1.0  0.83591  0.90917  0.48859  1.0000 0.8281944362
Zn  Zn4       1.0  0.90917  0.83591  0.01141  1.0000 0.8281944362
H   H1        1.0  0.50755  0.40229  0.46974  1.0000 0.1185873292
H   H2        1.0  0.40229  0.50755  0.03026  1.0000 0.1185873292
H   H3        1.0  0.49245  0.59771  0.53026  1.0000 0.1185873292
H   H4        1.0  0.59771  0.49245  0.96974  1.0000 0.1185873292
H   H5        1.0  0.48251  0.54657  0.91842  1.0000 0.1185873292
H   H6        1.0  0.54657  0.48251  0.58158  1.0000 0.1185873292
H   H7        1.0  0.51749  0.45343  0.08158  1.0000 0.1185873292
H   H8        1.0  0.45343  0.51749  0.41842  1.0000 0.1185873292
H   H9        1.0  0.76001  0.52926  0.46536  1.0000 0.1314585028
H   H10       1.0  0.52926  0.76001  0.03464  1.0000 0.1314585028
H   H11       1.0  0.24000  0.47075  0.53464  1.0000 0.1314585028
H   H12       1.0  0.47075  0.24000  0.96536  1.0000 0.1314585028
H   H13       1.0  0.15100  0.60838  0.83382  1.0000 0.1185873292
H   H14       1.0  0.60838  0.15100  0.66618  1.0000 0.1185873292
H   H15       1.0  0.84900  0.39162  0.16618  1.0000 0.1185873292
H   H16       1.0  0.39162  0.84900  0.33382  1.0000 0.1185873292
H   H17       1.0  0.69027  0.97991  0.89780  1.0000 0.1185873292
H   H18       1.0  0.97991  0.69027  0.60220  1.0000 0.1185873292
H   H19       1.0  0.30973  0.02009  0.10220  1.0000 0.1185873292
H   H20       1.0  0.02009  0.30973  0.39780  1.0000 0.1185873292
H   H21       1.0  0.31925  0.03817  0.55048  1.0000 0.1185873292
H   H22       1.0  0.03817  0.31925  0.94952  1.0000 0.1185873292
H   H23       1.0  0.68075  0.96183  0.44952  1.0000 0.1185873292
H   H24       1.0  0.96183  0.68075  0.05048  1.0000 0.1185873292
H   H25       1.0  0.26826  0.41341  0.86505  1.0000 0.1185873292
H   H26       1.0  0.41341  0.26826  0.63495  1.0000 0.1185873292
H   H27       1.0  0.73175  0.58659  0.13495  1.0000 0.1185873292
H   H28       1.0  0.58660  0.73174  0.36505  1.0000 0.1185873292
H   H29       1.0  0.47141  0.84463  0.84610  1.0000 0.1185873292
H   H30       1.0  0.84463  0.47141  0.65390  1.0000 0.1185873292
H   H31       1.0  0.52859  0.15537  0.15390  1.0000 0.1185873292
H   H32       1.0  0.15537  0.52859  0.34610  1.0000 0.1185873292
H   H33       1.0  0.91700  0.35164  0.71403  1.0000 0.1185873292
H   H34       1.0  0.35164  0.91700  0.78597  1.0000 0.1185873292
H   H35       1.0  0.08300  0.64836  0.28597  1.0000 0.1185873292
H   H36       1.0  0.64836  0.08300  0.21403  1.0000 0.1185873292
H   H37       1.0  0.24523  0.43477  0.77799  1.0000 0.1129852644
H   H38       1.0  0.43477  0.24523  0.72201  1.0000 0.1129852644
H   H39       1.0  0.75477  0.56523  0.22201  1.0000 0.1129852644
H   H40       1.0  0.56523  0.75477  0.27799  1.0000 0.1129852644
H   H41       1.0  0.28003  0.32319  0.64610  1.0000 0.1185873292
H   H42       1.0  0.32319  0.28003  0.85390  1.0000 0.1185873292
H   H43       1.0  0.71997  0.67681  0.35390  1.0000 0.1185873292
H   H44       1.0  0.67681  0.71997  0.14610  1.0000 0.1185873292
H   H45       1.0  0.84921  0.10055  0.60188  1.0000 0.1185873292
H   H46       1.0  0.10055  0.84921  0.89812  1.0000 0.1185873292
H   H47       1.0  0.15079  0.89945  0.39812  1.0000 0.1185873292
H   H48       1.0  0.89945  0.15079  0.10188  1.0000 0.1185873292
H   H49       1.0  0.01023  0.67521  0.49258  1.0000 0.1185873292
H   H50       1.0  0.67521  0.01023  0.00742  1.0000 0.1185873292
H   H51       1.0  0.98977  0.32479  0.50742  1.0000 0.1185873292
H   H52       1.0  0.32479  0.98977  0.99258  1.0000 0.1185873292
H   H53       1.0  0.56662  0.15640  0.54952  1.0000 0.1314585028
H   H54       1.0  0.15640  0.56662  0.95048  1.0000 0.1314585028
H   H55       1.0  0.43338  0.84360  0.45048  1.0000 0.1314585028
H   H56       1.0  0.84360  0.43338  0.04952  1.0000 0.1314585028
H   H57       1.0  0.28180  0.40920  0.71298  1.0000 0.1129852644
H   H58       1.0  0.40920  0.28180  0.78702  1.0000 0.1129852644
H   H59       1.0  0.71820  0.59080  0.28702  1.0000 0.1129852644
H   H60       1.0  0.59080  0.71820  0.21298  1.0000 0.1129852644
H   H61       1.0  0.25529  0.78915  0.48700  1.0000 0.1185873292
H   H62       1.0  0.78915  0.25529  0.01300  1.0000 0.1185873292
H   H63       1.0  0.74471  0.21085  0.51300  1.0000 0.1185873292
H   H64       1.0  0.21085  0.74471  0.98700  1.0000 0.1185873292
H   H65       1.0  0.85008  0.18552  0.66845  1.0000 0.1129852644
H   H66       1.0  0.18552  0.85008  0.83155  1.0000 0.1129852644
H   H67       1.0  0.14992  0.81448  0.33155  1.0000 0.1129852644
H   H68       1.0  0.81448  0.14992  0.16845  1.0000 0.1129852644
H   H69       1.0  0.96881  0.57671  0.74652  1.0000 0.142900727
H   H70       1.0  0.57671  0.96881  0.75348  1.0000 0.142900727
H   H71       1.0  0.03119  0.42329  0.25348  1.0000 0.142900727
H   H72       1.0  0.42329  0.03119  0.24652  1.0000 0.142900727
H   H73       1.0  0.80546  0.39040  0.76600  1.0000 0.142900727
H   H74       1.0  0.39040  0.80546  0.73400  1.0000 0.142900727
H   H75       1.0  0.19454  0.60960  0.23400  1.0000 0.142900727
H   H76       1.0  0.60960  0.19454  0.26600  1.0000 0.142900727
H   H77       1.0  0.94046  0.54176  0.80082  1.0000 0.142900727
H   H78       1.0  0.54176  0.94046  0.69918  1.0000 0.142900727
H   H79       1.0  0.05954  0.45824  0.19918  1.0000 0.142900727
H   H80       1.0  0.45824  0.05954  0.30082  1.0000 0.142900727
C   C1        1.0  0.06188  0.14532  0.57361  1.0000 0.5742563946
C   C2        1.0  0.14532  0.06188  0.92639  1.0000 0.5742563946
C   C3        1.0  0.93812  0.85468  0.42639  1.0000 0.5742563946
C   C4        1.0  0.85468  0.93812  0.07361  1.0000 0.5742563946
C   C5        1.0  0.75588  0.86732  0.94581  1.0000 0.5742563946
C   C6        1.0  0.86732  0.75588  0.55419  1.0000 0.5742563946
C   C7        1.0  0.24412  0.13268  0.05419  1.0000 0.5742563946
C   C8        1.0  0.13268  0.24412  0.44581  1.0000 0.5742563946
C   C9        1.0  0.06544  0.20396  0.61658  1.0000 -0.0377527415
C   C10       1.0  0.20396  0.06544  0.88342  1.0000 -0.0377527415
C   C11       1.0  0.93456  0.79604  0.38342  1.0000 -0.0377527415
C   C12       1.0  0.79604  0.93456  0.11658  1.0000 -0.0377527415
C   C13       1.0  0.69259  0.35581  0.50640  1.0000 0.1185873292
C   C14       1.0  0.35581  0.69259  0.99360  1.0000 0.1185873292
C   C15       1.0  0.30741  0.64419  0.49360  1.0000 0.1185873292
C   C16       1.0  0.64419  0.30741  0.00640  1.0000 0.1185873292
C   C17       1.0  0.61177  0.77823  0.91284  1.0000 -0.0377527415
C   C18       1.0  0.77823  0.61177  0.58716  1.0000 -0.0377527415
C   C19       1.0  0.38823  0.22177  0.08716  1.0000 -0.0377527415
C   C20       1.0  0.22177  0.38823  0.41284  1.0000 -0.0377527415
C   C21       1.0  0.51959  0.35201  0.48553  1.0000 0.1038940889
C   C22       1.0  0.35201  0.51959  0.01447  1.0000 0.1038940889
C   C23       1.0  0.48041  0.64799  0.51447  1.0000 0.1038940889
C   C24       1.0  0.64799  0.48041  0.98553  1.0000 0.1038940889
C   C25       1.0  0.48237  0.60763  0.90329  1.0000 -0.0964588816
C   C26       1.0  0.60763  0.48237  0.59671  1.0000 -0.0964588816
C   C27       1.0  0.51763  0.39237  0.09671  1.0000 -0.0964588816
C   C28       1.0  0.39237  0.51763  0.40329  1.0000 -0.0964588816
C   C29       1.0  0.07904  0.38096  0.73875  1.0000 0.0787033109
C   C30       1.0  0.38096  0.07904  0.76125  1.0000 0.0787033109
C   C31       1.0  0.92096  0.61904  0.26125  1.0000 0.0787033109
C   C32       1.0  0.61904  0.92096  0.23875  1.0000 0.0787033109
C   C33       1.0  0.67186  0.42914  0.48280  1.0000 -0.188778493
C   C34       1.0  0.42914  0.67186  0.01720  1.0000 -0.188778493
C   C35       1.0  0.32814  0.57086  0.51720  1.0000 -0.188778493
C   C36       1.0  0.57086  0.32814  0.98280  1.0000 -0.188778493
C   C37       1.0  0.13122  0.54978  0.81039  1.0000 -0.2335312622
C   C38       1.0  0.54978  0.13122  0.68961  1.0000 -0.2335312622
C   C39       1.0  0.86878  0.45022  0.18961  1.0000 -0.2335312622
C   C40       1.0  0.45022  0.86878  0.31039  1.0000 -0.2335312622
C   C41       1.0  0.21728  0.53312  0.81216  1.0000 0.0787033109
C   C42       1.0  0.53312  0.21728  0.68784  1.0000 0.0787033109
C   C43       1.0  0.78272  0.46688  0.18784  1.0000 0.0787033109
C   C44       1.0  0.46688  0.78272  0.31216  1.0000 0.0787033109
C   C45       1.0  0.60579  0.86621  0.89118  1.0000 -0.1085316118
C   C46       1.0  0.86621  0.60579  0.60882  1.0000 -0.1085316118
C   C47       1.0  0.39421  0.13379  0.10882  1.0000 -0.1085316118
C   C48       1.0  0.13379  0.39421  0.39118  1.0000 -0.1085316118
C   C49       1.0  0.40926  0.13814  0.53321  1.0000 0.0903234971
C   C50       1.0  0.13814  0.40926  0.96679  1.0000 0.0903234971
C   C51       1.0  0.59074  0.86186  0.46679  1.0000 0.0903234971
C   C52       1.0  0.86186  0.59074  0.03321  1.0000 0.0903234971
C   C53       1.0  0.35304  0.52736  0.87150  1.0000 -0.151059979
C   C54       1.0  0.52736  0.35304  0.62850  1.0000 -0.151059979
C   C55       1.0  0.64696  0.47264  0.12850  1.0000 -0.151059979
C   C56       1.0  0.47264  0.64696  0.37150  1.0000 -0.151059979
C   C57       1.0  0.34853  0.61567  0.84900  1.0000 0.0640151487
C   C58       1.0  0.61567  0.34853  0.65100  1.0000 0.0640151487
C   C59       1.0  0.65147  0.38433  0.15100  1.0000 0.0640151487
C   C60       1.0  0.38433  0.65147  0.34900  1.0000 0.0640151487
C   C61       1.0  0.06888  0.31152  0.69812  1.0000 0.0787033109
C   C62       1.0  0.31152  0.06888  0.80188  1.0000 0.0787033109
C   C63       1.0  0.93112  0.68848  0.30188  1.0000 0.0787033109
C   C64       1.0  0.68848  0.93112  0.19812  1.0000 0.0787033109
C   C65       1.0  0.47495  0.78525  0.85993  1.0000 -0.151059979
C   C66       1.0  0.78525  0.47495  0.64007  1.0000 -0.151059979
C   C67       1.0  0.52505  0.21475  0.14007  1.0000 -0.151059979
C   C68       1.0  0.21475  0.52505  0.35993  1.0000 -0.151059979
C   C69       1.0  0.99275  0.39745  0.73865  1.0000 -0.2221079874
C   C70       1.0  0.39745  0.99275  0.76135  1.0000 -0.2221079874
C   C71       1.0  0.00725  0.60255  0.26135  1.0000 -0.2221079874
C   C72       1.0  0.60255  0.00725  0.23865  1.0000 -0.2221079874
C   C73       1.0  0.85090  0.43070  0.50362  1.0000 0.0640151487
C   C74       1.0  0.43070  0.85090  0.99638  1.0000 0.0640151487
C   C75       1.0  0.14910  0.56930  0.49638  1.0000 0.0640151487
C   C76       1.0  0.56930  0.14910  0.00362  1.0000 0.0640151487
C   C77       1.0  0.18936  0.44764  0.77653  1.0000 -0.213769264
C   C78       1.0  0.44764  0.18936  0.72347  1.0000 -0.213769264
C   C79       1.0  0.81064  0.55236  0.22347  1.0000 -0.213769264
C   C80       1.0  0.55236  0.81064  0.27653  1.0000 -0.213769264
C   C81       1.0  0.19386  0.29614  0.65040  1.0000 -0.1085316118
C   C82       1.0  0.29614  0.19386  0.84960  1.0000 -0.1085316118
C   C83       1.0  0.80614  0.70386  0.34960  1.0000 -0.1085316118
C   C84       1.0  0.70386  0.80614  0.15040  1.0000 -0.1085316118
C   C85       1.0  0.93678  0.16322  0.62403  1.0000 -0.1085316118
C   C86       1.0  0.16322  0.93678  0.87597  1.0000 -0.1085316118
C   C87       1.0  0.06322  0.83678  0.37597  1.0000 -0.1085316118
C   C88       1.0  0.83678  0.06322  0.12403  1.0000 -0.1085316118
C   C89       1.0  0.01588  0.47972  0.77396  1.0000 0.1771886912
C   C90       1.0  0.47972  0.01588  0.72604  1.0000 0.1771886912
C   C91       1.0  0.98412  0.52028  0.22604  1.0000 0.1771886912
C   C92       1.0  0.52028  0.98412  0.27396  1.0000 0.1771886912
C   C93       1.0  0.00595  0.60485  0.49561  1.0000 -0.1318198624
C   C94       1.0  0.60485  0.00595  0.00439  1.0000 -0.1318198624
C   C95       1.0  0.99405  0.39515  0.50439  1.0000 -0.1318198624
C   C96       1.0  0.39515  0.99405  0.99561  1.0000 -0.1318198624
C   C97       1.0  0.55720  0.20780  0.53258  1.0000 -0.2032734597
C   C98       1.0  0.20780  0.55720  0.96742  1.0000 -0.2032734597
C   C99       1.0  0.44280  0.79220  0.46742  1.0000 -0.2032734597
C   C100      1.0  0.79220  0.44280  0.03258  1.0000 -0.2032734597
C   C101      1.0  0.19514  0.34846  0.69064  1.0000 -0.151059979
C   C102      1.0  0.34846  0.19514  0.80936  1.0000 -0.151059979
C   C103      1.0  0.80486  0.65154  0.30936  1.0000 -0.151059979
C   C104      1.0  0.65154  0.80486  0.19064  1.0000 -0.151059979
C   C105      1.0  0.15267  0.67293  0.49217  1.0000 -0.1413767072
C   C106      1.0  0.67293  0.15267  0.00783  1.0000 -0.1413767072
C   C107      1.0  0.84733  0.32707  0.50783  1.0000 -0.1413767072
C   C108      1.0  0.32707  0.84733  0.99217  1.0000 -0.1413767072
C   C109      1.0  0.93791  0.21509  0.66401  1.0000 -0.151059979
C   C110      1.0  0.21509  0.93791  0.83599  1.0000 -0.151059979
C   C111      1.0  0.06209  0.78491  0.33599  1.0000 -0.151059979
C   C112      1.0  0.78491  0.06209  0.16401  1.0000 -0.151059979
C   C113      1.0  0.92449  0.49891  0.77162  1.0000 -0.4618409458
C   C114      1.0  0.49891  0.92449  0.72838  1.0000 -0.4618409458
C   C115      1.0  0.07551  0.50109  0.22838  1.0000 -0.4618409458
C   C116      1.0  0.50109  0.07551  0.27162  1.0000 -0.4618409458
N   N1        1.0  0.38844  0.20716  0.51016  1.0000 -0.2221079874
N   N2        1.0  0.20716  0.38844  0.98984  1.0000 -0.2221079874
N   N3        1.0  0.61156  0.79284  0.48984  1.0000 -0.2221079874
N   N4        1.0  0.79284  0.61156  0.01016  1.0000 -0.2221079874
O   O1        1.0  0.93576  0.05324  0.54657  1.0000 -0.5451692971
O   O2        1.0  0.05324  0.93576  0.95343  1.0000 -0.5451692971
O   O3        1.0  0.06424  0.94676  0.45343  1.0000 -0.5451692971
O   O4        1.0  0.94676  0.06424  0.04657  1.0000 -0.5451692971
O   O5        1.0  0.74297  0.77563  0.96769  1.0000 -0.5551328095
O   O6        1.0  0.77563  0.74297  0.53231  1.0000 -0.5551328095
O   O7        1.0  0.25703  0.22437  0.03231  1.0000 -0.5551328095
O   O8        1.0  0.22437  0.25703  0.46769  1.0000 -0.5551328095
O   O9        1.0  0.18255  0.18825  0.56764  1.0000 -0.5255759987
O   O10       1.0  0.18825  0.18255  0.93236  1.0000 -0.5255759987
O   O11       1.0  0.81745  0.81175  0.43236  1.0000 -0.5255759987
O   O12       1.0  0.81175  0.81745  0.06764  1.0000 -0.5255759987
O   O13       1.0  0.87895  0.02465  0.94879  1.0000 -0.5381808015
O   O14       1.0  0.02465  0.87895  0.55121  1.0000 -0.5381808015
O   O15       1.0  0.12105  0.97535  0.05121  1.0000 -0.5381808015
O   O16       1.0  0.97535  0.12105  0.44879  1.0000 -0.5381808015
