# DDEC6 charges by PACMAN v1.1 (https://github.com/mtap-research/PACMAN-charge/)
data_2023[Cd][dia]3[FSR]4
_chemical_formula_sum              "Cd2 H48 C48 N8 O14"
_cell_length_a       10.6689
_cell_length_b       11.2055
_cell_length_c       14.1549
_cell_angle_alpha    103.095
_cell_angle_beta     85.565
_cell_angle_gamma    112.086

_symmetry_space_group_name_H-M    "P 1"
_symmetry_Int_Tables_number       1

loop_
  _symmetry_equiv_pos_as_xyz
  'x, y, z'

loop_
  _atom_site_type_symbol
  _atom_site_label
  _atom_site_symmetry_multiplicity
  _atom_site_fract_x
  _atom_site_fract_y
  _atom_site_fract_z
  _atom_site_occupancy
  _atom_site_charge
Cd  Cd1       1.0  0.54993  0.58268  0.20614  1.0000 0.8659649266
Cd  Cd2       1.0  0.45007  0.41732  0.79386  1.0000 0.8659649266
H   H1        1.0  0.45762  0.73508  0.12071  1.0000 0.3406106903
H   H2        1.0  0.54238  0.26492  0.87929  1.0000 0.3406106903
H   H3        1.0  0.43213  0.61963  0.05228  1.0000 0.360135354
H   H4        1.0  0.56787  0.38037  0.94772  1.0000 0.360135354
H   H5        1.0  0.20063  0.56256  0.08270  1.0000 0.1098152044
H   H6        1.0  0.79937  0.43744  0.91730  1.0000 0.1098152044
H   H7        1.0  0.32987  0.30565  0.04628  1.0000 0.1293002459
H   H8        1.0  0.67013  0.69435  0.95372  1.0000 0.1293002459
H   H9        1.0  0.61880  0.06442  0.64447  1.0000 0.120222951
H   H10       1.0  0.38120  0.93558  0.35553  1.0000 0.120222951
H   H11       1.0  0.60247  0.35540  0.48969  1.0000 0.1293002459
H   H12       1.0  0.39753  0.64460  0.51031  1.0000 0.1293002459
H   H13       1.0  0.82289  0.56833  0.30489  1.0000 0.120222951
H   H14       1.0  0.17711  0.43167  0.69511  1.0000 0.120222951
H   H15       1.0  0.25837  0.43572  0.31815  1.0000 0.1293002459
H   H16       1.0  0.74163  0.56428  0.68185  1.0000 0.1293002459
H   H17       1.0  0.06832  0.22966  0.25960  1.0000 0.1293002459
H   H18       1.0  0.93168  0.77034  0.74040  1.0000 0.1293002459
H   H19       1.0  0.94717  0.67853  0.48957  1.0000 0.138681352
H   H20       1.0  0.05283  0.32147  0.51043  1.0000 0.138681352
H   H21       1.0  0.45251  0.38561  0.38294  1.0000 0.120222951
H   H22       1.0  0.54749  0.61439  0.61706  1.0000 0.120222951
H   H23       1.0  0.04477  0.20899  0.97707  1.0000 0.138681352
H   H24       1.0  0.95523  0.79101  0.02293  1.0000 0.138681352
H   H25       1.0  0.13487  0.71094  0.31045  1.0000 0.1293002459
H   H26       1.0  0.86513  0.28906  0.68955  1.0000 0.1293002459
H   H27       1.0  0.21426  0.72421  0.21306  1.0000 0.1098152044
H   H28       1.0  0.78574  0.27579  0.78694  1.0000 0.1098152044
H   H29       1.0  0.16282  0.58975  0.24655  1.0000 0.120222951
H   H30       1.0  0.83718  0.41025  0.75345  1.0000 0.120222951
H   H31       1.0  0.21474  0.01290  0.16828  1.0000 0.120222951
H   H32       1.0  0.78526  0.98710  0.83172  1.0000 0.120222951
H   H33       1.0  0.10871  0.86801  0.15135  1.0000 0.138681352
H   H34       1.0  0.89129  0.13199  0.84865  1.0000 0.138681352
H   H35       1.0  0.07560  0.98191  0.22187  1.0000 0.1293002459
H   H36       1.0  0.92440  0.01809  0.77813  1.0000 0.1293002459
H   H37       1.0  0.22865  0.77298  0.63717  1.0000 0.138681352
H   H38       1.0  0.77135  0.22702  0.36283  1.0000 0.138681352
H   H39       1.0  0.13707  0.82748  0.59205  1.0000 0.138681352
H   H40       1.0  0.86293  0.17252  0.40795  1.0000 0.138681352
H   H41       1.0  0.25573  0.79829  0.53167  1.0000 0.138681352
H   H42       1.0  0.74427  0.20171  0.46833  1.0000 0.138681352
H   H43       1.0  0.68355  0.89690  0.66228  1.0000 0.120222951
H   H44       1.0  0.31645  0.10310  0.33772  1.0000 0.120222951
H   H45       1.0  0.79891  0.99176  0.60868  1.0000 0.1293002459
H   H46       1.0  0.20109  0.00824  0.39132  1.0000 0.1293002459
H   H47       1.0  0.78964  0.84685  0.60075  1.0000 0.1293002459
H   H48       1.0  0.21036  0.15315  0.39925  1.0000 0.1293002459
C   C1        1.0  0.11970  0.53728  0.04951  1.0000 -0.2580580639
C   C2        1.0  0.88030  0.46272  0.95049  1.0000 -0.2580580639
C   C3        1.0  0.50920  0.89557  0.42860  1.0000 -0.0904753154
C   C4        1.0  0.49080  0.10443  0.57140  1.0000 -0.0904753154
C   C5        1.0  0.89058  0.52769  0.04805  1.0000 -0.1000424513
C   C6        1.0  0.10942  0.47231  0.95195  1.0000 -0.1000424513
C   C7        1.0  0.28920  0.31269  0.10675  1.0000 0.1010274699
C   C8        1.0  0.71080  0.68731  0.89325  1.0000 0.1010274699
C   C9        1.0  0.76826  0.55330  0.09562  1.0000 0.5507376267
C   C10       1.0  0.23174  0.44670  0.90438  1.0000 0.5507376267
C   C11       1.0  0.51530  0.77920  0.35215  1.0000 0.5507376267
C   C12       1.0  0.48470  0.22080  0.64785  1.0000 0.5507376267
C   C13       1.0  0.57100  0.03870  0.58645  1.0000 -0.2495790126
C   C14       1.0  0.42900  0.96130  0.41355  1.0000 -0.2495790126
C   C15       1.0  0.88180  0.48110  0.45675  1.0000 0.0899071506
C   C16       1.0  0.11820  0.51890  0.54325  1.0000 0.0899071506
C   C17       1.0  0.62850  0.40140  0.44000  1.0000 -0.0904753154
C   C18       1.0  0.37150  0.59860  0.56000  1.0000 -0.0904753154
C   C19       1.0  0.74900  0.51910  0.33706  1.0000 0.1098152044
C   C20       1.0  0.25100  0.48090  0.66294  1.0000 0.1098152044
C   C21       1.0  0.24910  0.38330  0.25596  1.0000 -0.0503985225
C   C22       1.0  0.75090  0.61670  0.74404  1.0000 -0.0503985225
C   C23       1.0  0.01243  0.56517  0.09831  1.0000 0.2060029356
C   C24       1.0  0.98757  0.43483  0.90169  1.0000 0.2060029356
C   C25       1.0  0.14340  0.26940  0.22399  1.0000 -0.1089133448
C   C26       1.0  0.85660  0.73060  0.77601  1.0000 -0.1089133448
C   C27       1.0  0.08360  0.10760  0.06344  1.0000 0.0825785323
C   C28       1.0  0.91640  0.89240  0.93656  1.0000 0.0825785323
C   C29       1.0  0.58110  0.93360  0.51526  1.0000 0.1877506001
C   C30       1.0  0.41890  0.06640  0.48474  1.0000 0.1877506001
C   C31       1.0  0.96960  0.60740  0.49400  1.0000 -0.2718164848
C   C32       1.0  0.03040  0.39260  0.50600  1.0000 -0.2718164848
C   C33       1.0  0.54650  0.41870  0.38050  1.0000 -0.0503985225
C   C34       1.0  0.45350  0.58130  0.61950  1.0000 -0.0448841789
C   C35       1.0  0.09240  0.63090  0.53854  1.0000 0.1098152044
C   C36       1.0  0.90760  0.36910  0.46146  1.0000 0.1098152044
C   C37       1.0  0.05930  0.98280  0.07973  1.0000 0.120222951
C   C38       1.0  0.94070  0.01720  0.92027  1.0000 0.120222951
C   C39       1.0  0.02600  0.12420  0.98580  1.0000 -0.2272749172
C   C40       1.0  0.97400  0.87580  0.01420  1.0000 -0.2272749172
C   C41       1.0  0.14280  0.66600  0.24526  1.0000 -0.2353366242
C   C42       1.0  0.85720  0.33400  0.75474  1.0000 -0.2353366242
C   C43       1.0  0.12010  0.95930  0.16280  1.0000 -0.4528751002
C   C44       1.0  0.87990  0.04070  0.83720  1.0000 -0.4528751002
C   C45       1.0  0.18710  0.77010  0.57850  1.0000 -0.4557731675
C   C46       1.0  0.81290  0.22990  0.42150  1.0000 -0.4557731675
C   C47       1.0  0.73830  0.90220  0.60510  1.0000 -0.21062281
C   C48       1.0  0.26170  0.09780  0.39490  1.0000 -0.21062281
N   N1        1.0  0.34040  0.40947  0.18215  1.0000 -0.2983233558
N   N2        1.0  0.65960  0.59053  0.81785  1.0000 -0.2983233558
N   N3        1.0  0.62190  0.49210  0.31578  1.0000 -0.2863984631
N   N4        1.0  0.37810  0.50790  0.68422  1.0000 -0.2863984631
N   N5        1.0  0.75793  0.46570  0.41195  1.0000 0.0041158766
N   N6        1.0  0.24207  0.53430  0.58805  1.0000 0.0041158766
N   N7        1.0  0.16891  0.22435  0.12908  1.0000 0.0110070928
N   N8        1.0  0.83109  0.77565  0.87092  1.0000 0.0110070928
O   O1        1.0  0.49548  0.67880  0.09250  1.0000 -0.6567042993
O   O2        1.0  0.50452  0.32120  0.90750  1.0000 -0.6567042993
O   O3        1.0  0.78480  0.65751  0.15791  1.0000 -0.5221966134
O   O4        1.0  0.21520  0.34249  0.84209  1.0000 -0.5221966134
O   O5        1.0  0.65240  0.46774  0.07120  1.0000 -0.565730475
O   O6        1.0  0.34760  0.53226  0.92880  1.0000 -0.565730475
O   O7        1.0  0.01897  0.62625  0.19449  1.0000 -0.153665282
O   O8        1.0  0.98103  0.37375  0.80551  1.0000 -0.153665282
O   O9        1.0  0.62330  0.79068  0.30720  1.0000 -0.5123150574
O   O10       1.0  0.37670  0.20932  0.69280  1.0000 -0.5123150574
O   O11       1.0  0.41390  0.67736  0.33595  1.0000 -0.541173868
O   O12       1.0  0.58610  0.32264  0.66405  1.0000 -0.541173868
O   O13       1.0  0.65650  0.86090  0.52456  1.0000 -0.1152817385
O   O14       1.0  0.34350  0.13910  0.47544  1.0000 -0.1089133448
