# DDEC6 charges by PACMAN v1.1 (https://github.com/mtap-research/PACMAN-charge/)
data_2023[Ni][nan]3[FSR]3
_chemical_formula_sum              "Ni4 H56 C72 N24 O24"
_cell_length_a       12.4337
_cell_length_b       14.3064
_cell_length_c       17.2641
_cell_angle_alpha    81.409
_cell_angle_beta     71.059
_cell_angle_gamma    71.774

_symmetry_space_group_name_H-M    "P 1"
_symmetry_Int_Tables_number       1

loop_
  _symmetry_equiv_pos_as_xyz
  'x, y, z'

loop_
  _atom_site_type_symbol
  _atom_site_label
  _atom_site_symmetry_multiplicity
  _atom_site_fract_x
  _atom_site_fract_y
  _atom_site_fract_z
  _atom_site_occupancy
  _atom_site_charge
Ni  Ni1       1.0  0.50000  0.00000  0.00000  1.0000 0.8288899474
Ni  Ni2       1.0  0.04165  0.25028  0.42048  1.0000 0.8159367257
Ni  Ni3       1.0  0.95835  0.74972  0.57952  1.0000 0.8159367257
Ni  Ni4       1.0  0.00000  0.50000  0.00000  1.0000 0.8288899474
H   H1        1.0  0.31610  0.11950  0.09140  1.0000 0.3719837182
H   H2        1.0  0.68390  0.88050  0.90860  1.0000 0.3719837182
H   H3        1.0  0.30300  0.12900  0.01210  1.0000 0.3404627182
H   H4        1.0  0.69700  0.87100  0.98790  1.0000 0.3404627182
H   H5        1.0  0.11310  0.07230  0.47320  1.0000 0.3753216081
H   H6        1.0  0.88690  0.92770  0.52680  1.0000 0.3753216081
H   H7        1.0  0.20990  0.11140  0.45010  1.0000 0.3719837182
H   H8        1.0  0.79010  0.88860  0.54990  1.0000 0.3719837182
H   H9        1.0  0.92110  0.42500  0.45090  1.0000 0.3647253626
H   H10       1.0  0.07890  0.57500  0.54910  1.0000 0.3647253626
H   H11       1.0  0.85930  0.38760  0.41480  1.0000 0.3647253626
H   H12       1.0  0.14070  0.61240  0.58520  1.0000 0.3647253626
H   H13       1.0  0.87020  0.62480  0.92210  1.0000 0.3719837182
H   H14       1.0  0.12980  0.37520  0.07790  1.0000 0.3719837182
H   H15       1.0  0.87560  0.67290  0.98510  1.0000 0.3404627182
H   H16       1.0  0.12440  0.32710  0.01490  1.0000 0.3404627182
H   H17       1.0  0.35260  0.03870  0.87800  1.0000 0.1286260185
H   H18       1.0  0.64740  0.96130  0.12200  1.0000 0.1286260185
H   H19       1.0  0.34390  0.82950  0.05310  1.0000 0.1203967868
H   H20       1.0  0.65610  0.17050  0.94690  1.0000 0.1203967868
H   H21       1.0  0.19660  0.97140  0.31860  1.0000 0.1120544375
H   H22       1.0  0.80340  0.02860  0.68140  1.0000 0.1120544375
H   H23       1.0  0.23910  0.68110  0.38500  1.0000 0.1203967868
H   H24       1.0  0.76090  0.31890  0.61500  1.0000 0.1203967868
H   H25       1.0  0.44760  0.76270  0.17070  1.0000 0.1120544375
H   H26       1.0  0.55240  0.23730  0.82930  1.0000 0.1120544375
H   H27       1.0  0.16260  0.83430  0.85390  1.0000 0.1372446431
H   H28       1.0  0.83740  0.16570  0.14610  1.0000 0.1372446431
H   H29       1.0  0.98890  0.05590  0.72520  1.0000 0.1286260185
H   H30       1.0  0.01110  0.94410  0.27480  1.0000 0.1286260185
H   H31       1.0  0.16050  0.11740  0.86470  1.0000 0.1203967868
H   H32       1.0  0.83950  0.88260  0.13530  1.0000 0.1203967868
H   H33       1.0  0.02460  0.92260  0.64150  1.0000 0.1372446431
H   H34       1.0  0.97540  0.07740  0.35850  1.0000 0.1372446431
H   H35       1.0  0.98160  0.67670  0.76280  1.0000 0.1203967868
H   H36       1.0  0.01840  0.32330  0.23720  1.0000 0.1203967868
H   H37       1.0  0.25430  0.55330  0.31090  1.0000 0.1286260185
H   H38       1.0  0.74570  0.44670  0.68910  1.0000 0.1286260185
H   H39       1.0  0.54070  0.33510  0.19580  1.0000 0.1476520674
H   H40       1.0  0.45930  0.66490  0.80420  1.0000 0.1476520674
H   H41       1.0  0.56660  0.61230  0.18670  1.0000 0.1203967868
H   H42       1.0  0.43340  0.38770  0.81330  1.0000 0.1203967868
H   H43       1.0  0.04800  0.18840  0.64590  1.0000 0.1203967868
H   H44       1.0  0.95200  0.81160  0.35410  1.0000 0.1203967868
H   H45       1.0  0.96450  0.47490  0.68820  1.0000 0.1120544375
H   H46       1.0  0.03550  0.52510  0.31180  1.0000 0.1120544375
H   H47       1.0  0.02750  0.26680  0.86700  1.0000 0.1120544375
H   H48       1.0  0.97250  0.73320  0.13300  1.0000 0.1120544375
H   H49       1.0  0.26900  0.17950  0.26160  1.0000 0.1286260185
H   H50       1.0  0.73100  0.82050  0.73840  1.0000 0.1286260185
H   H51       1.0  0.18150  0.41690  0.38370  1.0000 0.1372446431
H   H52       1.0  0.81850  0.58310  0.61630  1.0000 0.1372446431
H   H53       1.0  0.89350  0.30470  0.01680  1.0000 0.1203967868
H   H54       1.0  0.10650  0.69530  0.98320  1.0000 0.1203967868
H   H55       1.0  0.76470  0.54330  0.13890  1.0000 0.1286260185
H   H56       1.0  0.23530  0.45670  0.86110  1.0000 0.1286260185
C   C1        1.0  0.33440  0.98540  0.91460  1.0000 0.0909511336
C   C2        1.0  0.66560  0.01460  0.08540  1.0000 0.0909511336
C   C3        1.0  0.32770  0.87180  0.00790  1.0000 0.1476520674
C   C4        1.0  0.67230  0.12820  0.99210  1.0000 0.1476520674
C   C5        1.0  0.36910  0.95820  0.17540  1.0000 0.560980669
C   C6        1.0  0.63090  0.04180  0.82460  1.0000 0.560980669
C   C7        1.0  0.33110  0.87840  0.23610  1.0000 -0.0165728502
C   C8        1.0  0.66890  0.12160  0.76390  1.0000 -0.0165728502
C   C9        1.0  0.23700  0.90410  0.30790  1.0000 -0.1486152
C   C10       1.0  0.76300  0.09590  0.69210  1.0000 -0.1486152
C   C11       1.0  0.20390  0.82980  0.36310  1.0000 -0.012127024
C   C12       1.0  0.79610  0.17020  0.63690  1.0000 -0.012127024
C   C13       1.0  0.26110  0.73130  0.34600  1.0000 -0.1486152
C   C14       1.0  0.73890  0.26870  0.65400  1.0000 -0.1486152
C   C15       1.0  0.34840  0.70590  0.27420  1.0000 0.0637903326
C   C16       1.0  0.65160  0.29410  0.72580  1.0000 0.0637903326
C   C17       1.0  0.38480  0.78000  0.21980  1.0000 -0.1768687702
C   C18       1.0  0.61520  0.22000  0.78020  1.0000 -0.1768687702
C   C19       1.0  0.17260  0.97420  0.86680  1.0000 0.165461261
C   C20       1.0  0.82740  0.02580  0.13320  1.0000 0.165461261
C   C21       1.0  0.13910  0.90230  0.83790  1.0000 -0.2419388926
C   C22       1.0  0.86090  0.09770  0.16210  1.0000 -0.2419388926
C   C23       1.0  0.07120  0.93750  0.78580  1.0000 0.1586076034
C   C24       1.0  0.92880  0.06250  0.21420  1.0000 0.1586076034
C   C25       1.0  0.03620  0.03540  0.76150  1.0000 -0.2302083297
C   C26       1.0  0.96380  0.96460  0.23850  1.0000 -0.2302083297
C   C27       1.0  0.06990  0.10420  0.78990  1.0000 0.1286260185
C   C28       1.0  0.93010  0.89580  0.21010  1.0000 0.1286260185
C   C29       1.0  0.13790  0.07120  0.84370  1.0000 -0.2419388926
C   C30       1.0  0.86210  0.92880  0.15630  1.0000 -0.2419388926
C   C31       1.0  0.09830  0.85420  0.43890  1.0000 0.560980669
C   C32       1.0  0.90170  0.14580  0.56110  1.0000 0.560980669
C   C33       1.0  0.01970  0.87030  0.68230  1.0000 0.1286260185
C   C34       1.0  0.98030  0.12970  0.31770  1.0000 0.1286260185
C   C35       1.0  0.99680  0.73910  0.74880  1.0000 0.1586076034
C   C36       1.0  0.00320  0.26090  0.25120  1.0000 0.1586076034
C   C37       1.0  0.40310  0.59980  0.25380  1.0000 0.1286260185
C   C38       1.0  0.59690  0.40020  0.74620  1.0000 0.1286260185
C   C39       1.0  0.33540  0.53300  0.27950  1.0000 -0.2302083297
C   C40       1.0  0.66460  0.46700  0.72050  1.0000 -0.2302083297
C   C41       1.0  0.38980  0.43670  0.25790  1.0000 0.1783787125
C   C42       1.0  0.61020  0.56330  0.74210  1.0000 0.1783787125
C   C43       1.0  0.50710  0.40170  0.21070  1.0000 -0.2419388926
C   C44       1.0  0.49290  0.59830  0.78930  1.0000 -0.2419388926
C   C45       1.0  0.57110  0.46820  0.18700  1.0000 0.1586076034
C   C46       1.0  0.42890  0.53180  0.81300  1.0000 0.1586076034
C   C47       1.0  0.52050  0.56710  0.20630  1.0000 -0.2599943168
C   C48       1.0  0.47950  0.43290  0.79370  1.0000 -0.2599943168
C   C49       1.0  0.04020  0.21010  0.76110  1.0000 0.0661721864
C   C50       1.0  0.95980  0.78990  0.23890  1.0000 0.0661721864
C   C51       1.0  0.03350  0.23800  0.68200  1.0000 -0.1435041315
C   C52       1.0  0.96650  0.76200  0.31800  1.0000 -0.1435041315
C   C53       1.0  0.00680  0.33410  0.65460  1.0000 -0.0165728502
C   C54       1.0  0.99320  0.66590  0.34540  1.0000 -0.0165728502
C   C55       1.0  0.98540  0.40750  0.70630  1.0000 -0.1486152
C   C56       1.0  0.01460  0.59250  0.29370  1.0000 -0.1486152
C   C57       1.0  0.99510  0.38060  0.78520  1.0000 -0.0041800131
C   C58       1.0  0.00490  0.61940  0.21480  1.0000 -0.0041800131
C   C59       1.0  0.02160  0.28380  0.81290  1.0000 -0.1699247844
C   C60       1.0  0.97840  0.71620  0.18710  1.0000 -0.1699247844
C   C61       1.0  0.99830  0.35800  0.56870  1.0000 0.5662469083
C   C62       1.0  0.00170  0.64200  0.43130  1.0000 0.5662469083
C   C63       1.0  0.27000  0.24040  0.27670  1.0000 0.1476520674
C   C64       1.0  0.73000  0.75960  0.72330  1.0000 0.1476520674
C   C65       1.0  0.22020  0.36810  0.34430  1.0000 0.1203967868
C   C66       1.0  0.77980  0.63190  0.65570  1.0000 0.1203967868
C   C67       1.0  0.84060  0.35480  0.05250  1.0000 0.1476520674
C   C68       1.0  0.15940  0.64520  0.94750  1.0000 0.1476520674
C   C69       1.0  0.77370  0.48300  0.11740  1.0000 0.1203967868
C   C70       1.0  0.22630  0.51700  0.88260  1.0000 0.1203967868
C   C71       1.0  0.97380  0.46000  0.84400  1.0000 0.560980669
C   C72       1.0  0.02620  0.54000  0.15600  1.0000 0.560980669
N   N1        1.0  0.38750  0.94280  0.96940  1.0000 -0.3151898867
N   N2        1.0  0.61250  0.05720  0.03060  1.0000 -0.3151898867
N   N3        1.0  0.24780  0.87010  0.97500  1.0000 -0.2302083297
N   N4        1.0  0.75220  0.12990  0.02500  1.0000 -0.2302083297
N   N5        1.0  0.25010  0.94410  0.91630  1.0000 0.1007800587
N   N6        1.0  0.74990  0.05590  0.08370  1.0000 0.1007800587
N   N7        1.0  0.99270  0.78930  0.67570  1.0000 -0.328893166
N   N8        1.0  0.00730  0.21070  0.32430  1.0000 -0.328893166
N   N9        1.0  0.03860  0.86740  0.75320  1.0000 0.1286260185
N   N10       1.0  0.96140  0.13260  0.24680  1.0000 0.1286260185
N   N11       1.0  0.02290  0.78270  0.79770  1.0000 -0.2599943168
N   N12       1.0  0.97710  0.21730  0.20230  1.0000 -0.2656369991
N   N13       1.0  0.18610  0.29070  0.34210  1.0000 -0.328893166
N   N14       1.0  0.81390  0.70930  0.65790  1.0000 -0.328893166
N   N15       1.0  0.35160  0.28470  0.23730  1.0000 -0.2599943168
N   N16       1.0  0.64840  0.71530  0.76270  1.0000 -0.2599943168
N   N17       1.0  0.31880  0.36690  0.28150  1.0000 0.1286260185
N   N18       1.0  0.68120  0.63310  0.71850  1.0000 0.1286260185
N   N19       1.0  0.69130  0.43720  0.13660  1.0000 0.1286260185
N   N20       1.0  0.30870  0.56280  0.86340  1.0000 0.1286260185
N   N21       1.0  0.73010  0.35410  0.09560  1.0000 -0.2302083297
N   N22       1.0  0.26990  0.64590  0.90440  1.0000 -0.2302083297
N   N23       1.0  0.87010  0.43410  0.06460  1.0000 -0.3095663077
N   N24       1.0  0.12990  0.56590  0.93540  1.0000 -0.3095663077
O   O1        1.0  0.45830  0.92940  0.11340  1.0000 -0.5868791229
O   O2        1.0  0.54170  0.07060  0.88660  1.0000 -0.5868791229
O   O3        1.0  0.35590  0.12520  0.03820  1.0000 -0.6607779003
O   O4        1.0  0.64410  0.87480  0.96180  1.0000 -0.6607779003
O   O5        1.0  0.30590  0.04600  0.18580  1.0000 -0.5709994621
O   O6        1.0  0.69410  0.95400  0.81420  1.0000 -0.5709994621
O   O7        1.0  0.10110  0.79050  0.49920  1.0000 -0.5709994621
O   O8        1.0  0.89890  0.20950  0.50080  1.0000 -0.5709994621
O   O9        1.0  0.01590  0.92860  0.43440  1.0000 -0.5594175494
O   O10       1.0  0.98410  0.07140  0.56560  1.0000 -0.5594175494
O   O11       1.0  0.06900  0.29360  0.51750  1.0000 -0.5709994621
O   O12       1.0  0.93100  0.70640  0.48250  1.0000 -0.5709994621
O   O13       1.0  0.92130  0.43180  0.55560  1.0000 -0.5397420711
O   O14       1.0  0.07870  0.56820  0.44440  1.0000 -0.5397420711
O   O15       1.0  0.15000  0.10880  0.43360  1.0000 -0.6607779003
O   O16       1.0  0.85000  0.89120  0.56640  1.0000 -0.6607779003
O   O17       1.0  0.93030  0.39150  0.40930  1.0000 -0.6607779003
O   O18       1.0  0.06970  0.60850  0.59070  1.0000 -0.6607779003
O   O19       1.0  0.02400  0.42990  0.89970  1.0000 -0.5868791229
O   O20       1.0  0.97600  0.57010  0.10030  1.0000 -0.5868791229
O   O21       1.0  0.86610  0.61780  0.97470  1.0000 -0.6607779003
O   O22       1.0  0.13390  0.38220  0.02530  1.0000 -0.6607779003
O   O23       1.0  0.90880  0.54420  0.83290  1.0000 -0.5594175494
O   O24       1.0  0.09120  0.45580  0.16710  1.0000 -0.5594175494
