# DDEC6 charges by PACMAN v1.1 (https://github.com/mtap-research/PACMAN-charge/)
data_2023[CuMn][kgd]2[FSR]1
_chemical_formula_sum              "Mn2 Cu6 H32 C36 S6 N6 O18"
_cell_length_a       12.5547
_cell_length_b       12.6151
_cell_length_c       13.6208
_cell_angle_alpha    93.6199
_cell_angle_beta     116.477
_cell_angle_gamma    119.825

_symmetry_space_group_name_H-M    "P 1"
_symmetry_Int_Tables_number       1

loop_
  _symmetry_equiv_pos_as_xyz
  'x, y, z'

loop_
  _atom_site_type_symbol
  _atom_site_label
  _atom_site_symmetry_multiplicity
  _atom_site_fract_x
  _atom_site_fract_y
  _atom_site_fract_z
  _atom_site_occupancy
  _atom_site_charge
Mn  Mn1       1.0  0.36030  0.16793  0.55736  1.0000 1.06714295
Mn  Mn2       1.0  0.63970  0.83207  0.44264  1.0000 1.06714295
Cu  Cu1       1.0  0.97163  0.11609  0.90296  1.0000 0.1627618909
Cu  Cu2       1.0  0.02837  0.88391  0.09704  1.0000 0.1627618909
Cu  Cu3       1.0  0.77076  0.83563  0.90254  1.0000 0.196913363
Cu  Cu4       1.0  0.22924  0.16437  0.09746  1.0000 0.196913363
Cu  Cu5       1.0  0.93276  0.07667  0.08721  1.0000 0.1839246914
Cu  Cu6       1.0  0.06724  0.92333  0.91279  1.0000 0.1839246914
H   H1        1.0  0.77102  0.15999  0.14080  1.0000 0.1136162743
H   H2        1.0  0.22898  0.84001  0.85920  1.0000 0.1136162743
H   H3        1.0  0.58436  0.18176  0.04452  1.0000 0.1289521024
H   H4        1.0  0.41564  0.81824  0.95548  1.0000 0.1289521024
H   H5        1.0  0.45805  0.11902  0.84026  1.0000 0.1207117239
H   H6        1.0  0.54195  0.88098  0.15974  1.0000 0.1207117239
H   H7        1.0  0.46811  0.61381  0.83660  1.0000 0.1207117239
H   H8        1.0  0.53189  0.38619  0.16340  1.0000 0.1207117239
H   H9        1.0  0.22387  0.94244  0.40146  1.0000 0.3489326365
H   H10       1.0  0.77613  0.05756  0.59854  1.0000 0.3489326365
H   H11       1.0  0.12791  0.97375  0.36405  1.0000 0.2962497339
H   H12       1.0  0.87209  0.02625  0.63595  1.0000 0.2945259377
H   H13       1.0  0.14656  0.18926  0.43463  1.0000 0.3067384079
H   H14       1.0  0.85344  0.81074  0.56537  1.0000 0.3067384079
H   H15       1.0  0.27054  0.31177  0.48272  1.0000 0.3421967789
H   H16       1.0  0.72946  0.68823  0.51728  1.0000 0.3421967789
H   H17       1.0  0.56659  0.28682  0.51091  1.0000 0.3489326365
H   H18       1.0  0.43341  0.71318  0.48909  1.0000 0.3489326365
H   H19       1.0  0.46004  0.16907  0.42110  1.0000 0.3489326365
H   H20       1.0  0.53996  0.83093  0.57890  1.0000 0.3489326365
H   H21       1.0  0.25644  0.66340  0.11333  1.0000 0.1207117239
H   H22       1.0  0.74356  0.33660  0.88667  1.0000 0.1207117239
H   H23       1.0  0.09804  0.55955  0.90992  1.0000 0.1289521024
H   H24       1.0  0.90196  0.44045  0.09008  1.0000 0.1289521024
H   H25       1.0  0.97421  0.33624  0.82784  1.0000 0.1207117239
H   H26       1.0  0.02579  0.66376  0.17216  1.0000 0.1207117239
H   H27       1.0  0.47112  0.60953  0.12985  1.0000 0.1289521024
H   H28       1.0  0.52888  0.39047  0.87015  1.0000 0.1289521024
H   H29       1.0  0.34354  0.52772  0.92520  1.0000 0.1289521024
H   H30       1.0  0.65646  0.47228  0.07480  1.0000 0.1289521024
H   H31       1.0  0.87558  0.79125  0.41280  1.0000 0.3489326365
H   H32       1.0  0.12442  0.20875  0.58720  1.0000 0.3489326365
C   C1        1.0  0.73910  0.79630  0.09900  1.0000 0.2120889664
C   C2        1.0  0.26090  0.20370  0.90100  1.0000 0.2120889664
C   C3        1.0  0.14470  0.36370  0.09300  1.0000 0.2120889664
C   C4        1.0  0.85530  0.63630  0.90700  1.0000 0.2120889664
C   C5        1.0  0.67720  0.03420  0.88370  1.0000 0.217184709
C   C6        1.0  0.32280  0.96580  0.11630  1.0000 0.217184709
C   C7        1.0  0.71830  0.13160  0.05900  1.0000 0.0668208576
C   C8        1.0  0.28170  0.86840  0.94100  1.0000 0.0668208576
C   C9        1.0  0.60750  0.14610  0.00220  1.0000 -0.1620403365
C   C10       1.0  0.39250  0.85390  0.99780  1.0000 -0.1620403365
C   C11       1.0  0.53060  0.10650  0.88060  1.0000 -0.0699504214
C   C12       1.0  0.46940  0.89350  0.11940  1.0000 -0.0699504214
C   C13       1.0  0.48140  0.00920  0.68690  1.0000 0.5897891089
C   C14       1.0  0.51860  0.99080  0.31310  1.0000 0.5897891089
C   C15       1.0  0.56330  0.04780  0.81930  1.0000 -0.0872250911
C   C16       1.0  0.43670  0.95220  0.18070  1.0000 -0.0872250911
C   C17       1.0  0.51910  0.64810  0.91830  1.0000 0.0794946641
C   C18       1.0  0.48090  0.35190  0.08170  1.0000 0.0794946641
C   C19       1.0  0.22240  0.49980  0.14830  1.0000 -0.0872250911
C   C20       1.0  0.77760  0.50020  0.85170  1.0000 -0.0872250911
C   C21       1.0  0.20500  0.57320  0.07850  1.0000 -0.0699504214
C   C22       1.0  0.79500  0.42680  0.92150  1.0000 -0.0699504214
C   C23       1.0  0.67010  0.74420  0.15770  1.0000 -0.0988992363
C   C24       1.0  0.32990  0.25580  0.84230  1.0000 -0.0988992363
C   C25       1.0  0.11150  0.51190  0.95770  1.0000 -0.1531287156
C   C26       1.0  0.88850  0.48810  0.04230  1.0000 -0.1531287156
C   C27       1.0  0.03820  0.37820  0.90930  1.0000 0.0668208576
C   C28       1.0  0.96180  0.62180  0.09070  1.0000 0.0668208576
C   C29       1.0  0.51970  0.64350  0.09220  1.0000 -0.0699504214
C   C30       1.0  0.48030  0.35650  0.90780  1.0000 -0.0699504214
C   C31       1.0  0.44380  0.59510  0.97070  1.0000 -0.1531287156
C   C32       1.0  0.55620  0.40490  0.02930  1.0000 -0.1531287156
C   C33       1.0  0.75560  0.79410  0.29110  1.0000 0.5897891089
C   C34       1.0  0.24440  0.20590  0.70890  1.0000 0.5897891089
C   C35       1.0  0.32870  0.57000  0.27960  1.0000 0.5897891089
C   C36       1.0  0.67130  0.43000  0.72040  1.0000 0.5897891089
S   S1        1.0  0.16105  0.26313  0.17369  1.0000 -0.2827970818
S   S2        1.0  0.83895  0.73687  0.82631  1.0000 -0.2827970818
S   S3        1.0  0.92583  0.93077  0.17483  1.0000 -0.3534109578
S   S4        1.0  0.07417  0.06923  0.82517  1.0000 -0.3534109578
S   S5        1.0  0.72861  0.96589  0.81273  1.0000 -0.3219987139
S   S6        1.0  0.27139  0.03411  0.18727  1.0000 -0.3219987139
N   N1        1.0  0.05570  0.30580  0.97520  1.0000 -0.2125803925
N   N2        1.0  0.94430  0.69420  0.02480  1.0000 -0.2125803925
N   N3        1.0  0.66370  0.74770  0.97980  1.0000 -0.2125803925
N   N4        1.0  0.33630  0.25230  0.02020  1.0000 -0.2125803925
N   N5        1.0  0.75470  0.07830  0.00210  1.0000 -0.2164702178
N   N6        1.0  0.24530  0.92170  0.99790  1.0000 -0.2164702178
O   O1        1.0  0.49190  0.10210  0.65070  1.0000 -0.5962647632
O   O2        1.0  0.50810  0.89790  0.34930  1.0000 -0.5962647632
O   O3        1.0  0.41310  0.89290  0.62460  1.0000 -0.5242456034
O   O4        1.0  0.58690  0.10710  0.37540  1.0000 -0.5242456034
O   O5        1.0  0.73410  0.86470  0.33890  1.0000 -0.5689810649
O   O6        1.0  0.26590  0.13530  0.66110  1.0000 -0.5689810649
O   O7        1.0  0.18740  0.97120  0.42550  1.0000 -0.652292563
O   O8        1.0  0.81260  0.02880  0.57450  1.0000 -0.652292563
O   O9        1.0  0.46220  0.63260  0.31580  1.0000 -0.5962647632
O   O10       1.0  0.53780  0.36740  0.68420  1.0000 -0.5962647632
O   O11       1.0  0.23140  0.23250  0.44560  1.0000 -0.6323586241
O   O12       1.0  0.76860  0.76750  0.55440  1.0000 -0.6323586241
O   O13       1.0  0.47320  0.23450  0.46120  1.0000 -0.6658569113
O   O14       1.0  0.52680  0.76550  0.53880  1.0000 -0.6658569113
O   O15       1.0  0.83460  0.75930  0.34130  1.0000 -0.3750882879
O   O16       1.0  0.16540  0.24070  0.65870  1.0000 -0.3750882879
O   O17       1.0  0.27810  0.56620  0.34080  1.0000 -0.5242456034
O   O18       1.0  0.72190  0.43380  0.65920  1.0000 -0.5242456034
