# DDEC6 charges by PACMAN v1.1 (https://github.com/mtap-research/PACMAN-charge/)
data_2023[Zn][sql]2[FSR]23
_chemical_formula_sum              "Zn2 H36 C60 N8 O8"
_cell_length_a       6.9155
_cell_length_b       12.665
_cell_length_c       17.304
_cell_angle_alpha    110.033
_cell_angle_beta     99.355
_cell_angle_gamma    89.616

_symmetry_space_group_name_H-M    "P 1"
_symmetry_Int_Tables_number       1

loop_
  _symmetry_equiv_pos_as_xyz
  'x, y, z'

loop_
  _atom_site_type_symbol
  _atom_site_label
  _atom_site_symmetry_multiplicity
  _atom_site_fract_x
  _atom_site_fract_y
  _atom_site_fract_z
  _atom_site_occupancy
  _atom_site_charge
Zn  Zn1       1.0  0.81125  0.99881  0.79756  1.0000 0.7456913533
Zn  Zn2       1.0  0.18875  0.00119  0.20244  1.0000 0.744966084
H   H1        1.0  0.33735  0.03412  0.51509  1.0000 0.1197212799
H   H2        1.0  0.66265  0.96588  0.48491  1.0000 0.1197212799
H   H3        1.0  0.20346  0.01951  0.62610  1.0000 0.1197212799
H   H4        1.0  0.79654  0.98049  0.37390  1.0000 0.1197212799
H   H5        1.0  0.79098  0.81581  0.86506  1.0000 0.1197212799
H   H6        1.0  0.20902  0.18419  0.13494  1.0000 0.1197212799
H   H7        1.0  0.19905  0.19488  0.76808  1.0000 0.1399175021
H   H8        1.0  0.80095  0.80512  0.23192  1.0000 0.1399175021
H   H9        1.0  0.70524  0.55005  0.65746  1.0000 0.1143784019
H   H10       1.0  0.29476  0.44995  0.34254  1.0000 0.1143784019
H   H11       1.0  0.42062  0.88011  0.69054  1.0000 0.1197212799
H   H12       1.0  0.57938  0.11989  0.30946  1.0000 0.1197212799
H   H13       1.0  0.47414  0.17209  0.97979  1.0000 0.1143784019
H   H14       1.0  0.52586  0.82791  0.02021  1.0000 0.1197212799
H   H15       1.0  0.76826  0.13004  0.04505  1.0000 0.1197212799
H   H16       1.0  0.23174  0.86996  0.95495  1.0000 0.1197212799
H   H17       1.0  0.22459  0.72323  0.66900  1.0000 0.1399175021
H   H18       1.0  0.77541  0.27677  0.33100  1.0000 0.1399175021
H   H19       1.0  0.06364  0.27555  0.68134  1.0000 0.1197212799
H   H20       1.0  0.93636  0.72445  0.31866  1.0000 0.1197212799
H   H21       1.0  0.39767  0.50396  0.57282  1.0000 0.1143784019
H   H22       1.0  0.60233  0.49604  0.42718  1.0000 0.1143784019
H   H23       1.0  0.61265  0.65383  0.84463  1.0000 0.1399175021
H   H24       1.0  0.38735  0.34617  0.15537  1.0000 0.1399175021
H   H25       1.0  0.03014  0.59034  0.67138  1.0000 0.1311606112
H   H26       1.0  0.96986  0.40966  0.32862  1.0000 0.1311606112
H   H27       1.0  0.85809  0.22899  0.55746  1.0000 0.1197212799
H   H28       1.0  0.14191  0.77101  0.44254  1.0000 0.1197212799
H   H29       1.0  0.54605  0.18072  0.47697  1.0000 0.1311606112
H   H30       1.0  0.45395  0.81928  0.52303  1.0000 0.1311606112
H   H31       1.0  0.69300  0.38600  0.79600  1.0000 0.1311606112
H   H32       1.0  0.30700  0.61400  0.20400  1.0000 0.1311606112
H   H33       1.0  0.38200  0.05600  0.80000  1.0000 0.0921871829
H   H34       1.0  0.61800  0.94400  0.20000  1.0000 0.0921871829
H   H35       1.0  0.87700  0.23300  0.82000  1.0000 0.1197212799
H   H36       1.0  0.12300  0.76700  0.18000  1.0000 0.1197212799
C   C1        1.0  0.91900  0.99260  0.56730  1.0000 -0.0222820701
C   C2        1.0  0.08100  0.00740  0.43270  1.0000 -0.0222820701
C   C3        1.0  0.32350  0.02550  0.96050  1.0000 -0.0222820701
C   C4        1.0  0.67650  0.97450  0.03950  1.0000 -0.0222820701
C   C5        1.0  0.13650  0.05250  0.91390  1.0000 0.544301981
C   C6        1.0  0.86350  0.94750  0.08610  1.0000 0.544301981
C   C7        1.0  0.19990  0.01990  0.50860  1.0000 -0.1145656464
C   C8        1.0  0.80010  0.98010  0.49140  1.0000 -0.1145656464
C   C9        1.0  0.12000  0.01180  0.57490  1.0000 -0.1193209186
C   C10       1.0  0.88000  0.98820  0.42510  1.0000 -0.1193209186
C   C11       1.0  0.45430  0.12700  0.79840  1.0000 0.0980548355
C   C12       1.0  0.54570  0.87300  0.20160  1.0000 0.0980548355
C   C13       1.0  0.82930  0.98670  0.63950  1.0000 0.5539140942
C   C14       1.0  0.17070  0.01330  0.36050  1.0000 0.5539140942
C   C15       1.0  0.42360  0.29930  0.77190  1.0000 0.0980548355
C   C16       1.0  0.57640  0.70070  0.22810  1.0000 0.0980548355
C   C17       1.0  0.28960  0.55850  0.73500  1.0000 0.2072793412
C   C18       1.0  0.71040  0.44150  0.26500  1.0000 0.2072793412
C   C19       1.0  0.39840  0.66760  0.75290  1.0000 0.0921871829
C   C20       1.0  0.60160  0.33240  0.24710  1.0000 0.0921871829
C   C21       1.0  0.67590  0.79570  0.82370  1.0000 0.0921871829
C   C22       1.0  0.32410  0.20430  0.17630  1.0000 0.0921871829
C   C23       1.0  0.33790  0.20550  0.77790  1.0000 -0.164316116
C   C24       1.0  0.66210  0.79450  0.22210  1.0000 -0.164316116
C   C25       1.0  0.67430  0.47520  0.61990  1.0000 -0.1446104852
C   C26       1.0  0.32570  0.52480  0.38010  1.0000 -0.1446104852
C   C27       1.0  0.81350  0.39590  0.61550  1.0000 0.0807167557
C   C28       1.0  0.18650  0.60410  0.38450  1.0000 0.0807167557
C   C29       1.0  0.45920  0.83350  0.72260  1.0000 0.0807167557
C   C30       1.0  0.54080  0.16650  0.27740  1.0000 0.0807167557
C   C31       1.0  0.48490  0.10170  0.98800  1.0000 -0.1193209186
C   C32       1.0  0.51510  0.89830  0.01200  1.0000 -0.1193209186
C   C33       1.0  0.44250  0.33750  0.51850  1.0000 0.0480494908
C   C34       1.0  0.55750  0.66250  0.48150  1.0000 0.0480494908
C   C35       1.0  0.65920  0.07710  0.02680  1.0000 -0.1039516089
C   C36       1.0  0.34080  0.92290  0.97320  1.0000 -0.1039516089
C   C37       1.0  0.34260  0.73940  0.70860  1.0000 -0.1790103895
C   C38       1.0  0.65740  0.26060  0.29140  1.0000 -0.1790103895
C   C39       1.0  0.11780  0.34980  0.69530  1.0000 -0.2275757027
C   C40       1.0  0.88220  0.65020  0.30470  1.0000 -0.2275757027
C   C41       1.0  0.49030  0.44770  0.57080  1.0000 -0.1302240622
C   C42       1.0  0.50970  0.55230  0.42920  1.0000 -0.1302240622
C   C43       1.0  0.01150  0.42720  0.66790  1.0000 0.1197212799
C   C44       1.0  0.98850  0.57280  0.33210  1.0000 0.1197212799
C   C45       1.0  0.24620  0.30990  0.46720  1.0000 0.2761250529
C   C46       1.0  0.75380  0.69010  0.53280  1.0000 0.2761250529
C   C47       1.0  0.56970  0.69940  0.81220  1.0000 -0.1790103895
C   C48       1.0  0.43030  0.30060  0.18780  1.0000 -0.1790103895
C   C49       1.0  0.62730  0.31370  0.79130  1.0000 -0.1699571443
C   C50       1.0  0.37270  0.68630  0.20870  1.0000 -0.1699571443
C   C51       1.0  0.09850  0.53460  0.68850  1.0000 -0.2368502525
C   C52       1.0  0.90150  0.46540  0.31150  1.0000 -0.2368502525
C   C53       1.0  0.73430  0.23220  0.81110  1.0000 0.0807167557
C   C54       1.0  0.26570  0.76780  0.18890  1.0000 0.0807167557
C   C55       1.0  0.76390  0.28470  0.56120  1.0000 -0.1302240622
C   C56       1.0  0.23610  0.71530  0.43880  1.0000 -0.1302240622
C   C57       1.0  0.57920  0.25600  0.51330  1.0000 -0.1193209186
C   C58       1.0  0.42080  0.74400  0.48670  1.0000 -0.1193209186
C   C59       1.0  0.30490  0.38100  0.74330  1.0000 0.2072793412
C   C60       1.0  0.69510  0.61900  0.25670  1.0000 0.2072793412
N   N1        1.0  0.62510  0.86330  0.77930  1.0000 -0.2368502525
N   N2        1.0  0.37490  0.13670  0.22070  1.0000 -0.2368502525
N   N3        1.0  0.39060  0.48410  0.76230  1.0000 -0.3420110103
N   N4        1.0  0.60940  0.51590  0.23770  1.0000 -0.3420110103
N   N5        1.0  0.64970  0.13710  0.81230  1.0000 -0.2275757027
N   N6        1.0  0.35030  0.86290  0.18770  1.0000 -0.2275757027
N   N7        1.0  0.10020  0.29430  0.42640  1.0000 -0.3579067347
N   N8        1.0  0.89980  0.70570  0.57360  1.0000 -0.3579067347
O   O1        1.0  0.00570  0.97040  0.88120  1.0000 -0.5514666396
O   O2        1.0  0.99430  0.02960  0.11880  1.0000 -0.5514666396
O   O3        1.0  0.95050  0.00010  0.70770  1.0000 -0.5514666396
O   O4        1.0  0.04950  0.99990  0.29230  1.0000 -0.5514666396
O   O5        1.0  0.65060  0.96980  0.63170  1.0000 -0.5514666396
O   O6        1.0  0.34940  0.03020  0.36830  1.0000 -0.5514666396
O   O7        1.0  0.11760  0.14520  0.90790  1.0000 -0.5320656357
O   O8        1.0  0.88240  0.85480  0.09210  1.0000 -0.5320656357
