# DDEC6 charges by PACMAN v1.1 (https://github.com/mtap-research/PACMAN-charge/)
data_2023[Ni][dia]3[FSR]2
_chemical_formula_sum              "Ni4 H72 C76 N12 O12"
_cell_length_a       9.918
_cell_length_b       15.7345
_cell_length_c       18.3672
_cell_angle_alpha    90
_cell_angle_beta     90
_cell_angle_gamma    90

_symmetry_space_group_name_H-M    "P 1"
_symmetry_Int_Tables_number       1

loop_
  _symmetry_equiv_pos_as_xyz
  'x, y, z'

loop_
  _atom_site_type_symbol
  _atom_site_label
  _atom_site_symmetry_multiplicity
  _atom_site_fract_x
  _atom_site_fract_y
  _atom_site_fract_z
  _atom_site_occupancy
  _atom_site_charge
Ni  Ni1       1.0  0.66595  0.73353  0.44915  1.0000 0.6818879832
Ni  Ni2       1.0  0.83405  0.26647  0.94915  1.0000 0.6818879832
Ni  Ni3       1.0  0.33405  0.23353  0.05085  1.0000 0.6818879832
Ni  Ni4       1.0  0.16595  0.76647  0.55085  1.0000 0.6818879832
H   H1        1.0  0.65369  0.59415  0.52655  1.0000 0.3259143744
H   H2        1.0  0.84631  0.40585  0.02655  1.0000 0.3259143744
H   H3        1.0  0.34631  0.09415  0.97345  1.0000 0.3259143744
H   H4        1.0  0.15369  0.90585  0.47345  1.0000 0.3259143744
H   H5        1.0  0.71825  0.65484  0.57156  1.0000 0.3052735169
H   H6        1.0  0.78175  0.34516  0.07156  1.0000 0.3052735169
H   H7        1.0  0.28175  0.15484  0.92844  1.0000 0.3052735169
H   H8        1.0  0.21825  0.84516  0.42844  1.0000 0.3052735169
H   H9        1.0  0.78894  0.79968  0.55974  1.0000 0.2598771889
H   H10       1.0  0.71106  0.20032  0.05974  1.0000 0.2598771889
H   H11       1.0  0.21106  0.29968  0.94026  1.0000 0.2598771889
H   H12       1.0  0.28894  0.70032  0.44026  1.0000 0.2598771889
H   H13       1.0  0.27654  0.44184  0.26022  1.0000 0.1286172062
H   H14       1.0  0.22346  0.55816  0.76022  1.0000 0.1286172062
H   H15       1.0  0.72346  0.94184  0.23978  1.0000 0.1286172062
H   H16       1.0  0.77654  0.05816  0.73978  1.0000 0.1286172062
H   H17       1.0  0.21275  0.33851  0.17960  1.0000 0.1022510339
H   H18       1.0  0.28725  0.66149  0.67960  1.0000 0.1022510339
H   H19       1.0  0.78725  0.83851  0.32040  1.0000 0.1022510339
H   H20       1.0  0.71275  0.16149  0.82040  1.0000 0.1022510339
H   H21       1.0  0.47532  0.89534  0.64382  1.0000 0.1286172062
H   H22       1.0  0.02468  0.10466  0.14382  1.0000 0.1286172062
H   H23       1.0  0.52468  0.39534  0.85618  1.0000 0.1286172062
H   H24       1.0  0.97532  0.60466  0.35618  1.0000 0.1286172062
H   H25       1.0  0.61988  0.88470  0.68307  1.0000 0.117693301
H   H26       1.0  0.88012  0.11530  0.18307  1.0000 0.117693301
H   H27       1.0  0.38012  0.38470  0.81693  1.0000 0.117693301
H   H28       1.0  0.11988  0.61530  0.31693  1.0000 0.117693301
H   H29       1.0  0.64638  0.43819  0.16956  1.0000 0.117693301
H   H30       1.0  0.85362  0.56181  0.66956  1.0000 0.117693301
H   H31       1.0  0.35362  0.93819  0.33044  1.0000 0.117693301
H   H32       1.0  0.14638  0.06181  0.83044  1.0000 0.117693301
H   H33       1.0  0.40055  0.48266  0.36340  1.0000 0.117693301
H   H34       1.0  0.09945  0.51734  0.86340  1.0000 0.117693301
H   H35       1.0  0.59945  0.98266  0.13660  1.0000 0.117693301
H   H36       1.0  0.90055  0.01734  0.63660  1.0000 0.117693301
H   H37       1.0  0.62817  0.75569  0.62956  1.0000 0.0803707008
H   H38       1.0  0.87183  0.24431  0.12956  1.0000 0.0803707008
H   H39       1.0  0.37183  0.25569  0.87044  1.0000 0.0803707008
H   H40       1.0  0.12817  0.74431  0.37044  1.0000 0.0803707008
H   H41       1.0  0.57442  0.33647  0.09153  1.0000 0.1022510339
H   H42       1.0  0.92558  0.66353  0.59153  1.0000 0.1022510339
H   H43       1.0  0.42558  0.83647  0.40847  1.0000 0.1022510339
H   H44       1.0  0.07442  0.16353  0.90847  1.0000 0.1022510339
H   H45       1.0  0.48102  0.58465  0.44389  1.0000 0.0909265344
H   H46       1.0  0.01898  0.41535  0.94389  1.0000 0.0909265344
H   H47       1.0  0.51898  0.08465  0.05611  1.0000 0.0909265344
H   H48       1.0  0.98102  0.91535  0.55611  1.0000 0.0909265344
H   H49       1.0  0.57386  0.06765  0.62261  1.0000 0.117693301
H   H50       1.0  0.92614  0.93235  0.12261  1.0000 0.117693301
H   H51       1.0  0.42614  0.56765  0.87739  1.0000 0.117693301
H   H52       1.0  0.07386  0.43235  0.37739  1.0000 0.117693301
H   H53       1.0  0.73336  0.66761  0.29715  1.0000 0.1022510339
H   H54       1.0  0.76664  0.33239  0.79715  1.0000 0.1022510339
H   H55       1.0  0.26664  0.16761  0.20285  1.0000 0.1022510339
H   H56       1.0  0.23336  0.83239  0.70285  1.0000 0.1022510339
H   H57       1.0  0.82655  0.92300  0.44151  1.0000 0.117693301
H   H58       1.0  0.67345  0.07700  0.94151  1.0000 0.117693301
H   H59       1.0  0.17345  0.42300  0.05849  1.0000 0.117693301
H   H60       1.0  0.32655  0.57700  0.55849  1.0000 0.117693301
H   H61       1.0  0.80717  0.07562  0.44315  1.0000 0.1022510339
H   H62       1.0  0.69283  0.92438  0.94315  1.0000 0.1022510339
H   H63       1.0  0.19283  0.57562  0.05685  1.0000 0.1022510339
H   H64       1.0  0.30717  0.42438  0.55685  1.0000 0.1022510339
H   H65       1.0  0.65585  0.57423  0.21292  1.0000 0.1286172062
H   H66       1.0  0.84415  0.42577  0.71292  1.0000 0.1286172062
H   H67       1.0  0.34415  0.07423  0.28708  1.0000 0.1286172062
H   H68       1.0  0.15585  0.92577  0.78708  1.0000 0.1286172062
H   H69       1.0  0.68833  0.14084  0.53184  1.0000 0.1095802811
H   H70       1.0  0.81167  0.85916  0.03184  1.0000 0.1095802811
H   H71       1.0  0.31167  0.64084  0.96816  1.0000 0.1095802811
H   H72       1.0  0.18833  0.35916  0.46816  1.0000 0.1095802811
C   C1        1.0  0.46380  0.76780  0.55650  1.0000 0.5427812178
C   C2        1.0  0.03620  0.23220  0.05650  1.0000 0.5427812178
C   C3        1.0  0.53620  0.26780  0.94350  1.0000 0.5427812178
C   C4        1.0  0.96380  0.73220  0.44350  1.0000 0.5427812178
C   C5        1.0  0.51740  0.51810  0.27740  1.0000 0.1022510339
C   C6        1.0  0.98260  0.48190  0.77740  1.0000 0.1022510339
C   C7        1.0  0.48260  0.01810  0.22260  1.0000 0.1022510339
C   C8        1.0  0.01740  0.98190  0.72260  1.0000 0.1022510339
C   C9        1.0  0.46820  0.45300  0.22490  1.0000 0.1095802811
C   C10       1.0  0.03180  0.54700  0.72490  1.0000 0.1095802811
C   C11       1.0  0.53180  0.95300  0.27510  1.0000 0.1095802811
C   C12       1.0  0.96820  0.04700  0.77510  1.0000 0.1095802811
C   C13       1.0  0.33990  0.42110  0.22570  1.0000 -0.2008371886
C   C14       1.0  0.16010  0.57890  0.72570  1.0000 -0.2008371886
C   C15       1.0  0.66010  0.92110  0.27430  1.0000 -0.2008371886
C   C16       1.0  0.83990  0.07890  0.77430  1.0000 -0.2008371886
C   C17       1.0  0.30240  0.35960  0.17720  1.0000 0.0399329267
C   C18       1.0  0.19760  0.64040  0.67720  1.0000 0.0399329267
C   C19       1.0  0.69760  0.85960  0.32280  1.0000 0.0399329267
C   C20       1.0  0.80240  0.14040  0.82280  1.0000 0.0399329267
C   C21       1.0  0.63130  0.94780  0.58500  1.0000 0.0346632962
C   C22       1.0  0.86870  0.05220  0.08500  1.0000 0.0399329267
C   C23       1.0  0.36870  0.44780  0.91500  1.0000 0.0346632962
C   C24       1.0  0.13130  0.55220  0.41500  1.0000 0.0399329267
C   C25       1.0  0.57250  0.88450  0.63560  1.0000 -0.2717594068
C   C26       1.0  0.92750  0.11550  0.13560  1.0000 -0.2717594068
C   C27       1.0  0.42750  0.38450  0.86440  1.0000 -0.2717594068
C   C28       1.0  0.07250  0.61550  0.36440  1.0000 -0.2717594068
C   C29       1.0  0.55590  0.41870  0.17240  1.0000 -0.2119134675
C   C30       1.0  0.94410  0.58130  0.67240  1.0000 -0.2119134675
C   C31       1.0  0.44410  0.91870  0.32760  1.0000 -0.2119134675
C   C32       1.0  0.05590  0.08130  0.82760  1.0000 -0.2119134675
C   C33       1.0  0.70640  0.90750  0.53130  1.0000 0.1408315365
C   C34       1.0  0.79360  0.09250  0.03130  1.0000 0.1408315365
C   C35       1.0  0.29360  0.40750  0.96870  1.0000 0.1408315365
C   C36       1.0  0.20640  0.59250  0.46870  1.0000 0.1408315365
C   C37       1.0  0.46740  0.52190  0.34790  1.0000 -0.2008371886
C   C38       1.0  0.03260  0.47810  0.84790  1.0000 -0.2008371886
C   C39       1.0  0.53260  0.02190  0.15210  1.0000 -0.2008371886
C   C40       1.0  0.96740  0.97810  0.65210  1.0000 -0.2008371886
C   C41       1.0  0.59480  0.79990  0.59480  1.0000 -0.0091735369
C   C42       1.0  0.90520  0.20010  0.09480  1.0000 -0.0091735369
C   C43       1.0  0.40520  0.29990  0.90520  1.0000 -0.0091735369
C   C44       1.0  0.09480  0.70010  0.40520  1.0000 -0.0091735369
C   C45       1.0  0.51210  0.35830  0.12610  1.0000 0.0502353249
C   C46       1.0  0.98790  0.64170  0.62610  1.0000 0.0502353249
C   C47       1.0  0.48790  0.85830  0.37390  1.0000 0.0502353249
C   C48       1.0  0.01210  0.14170  0.87390  1.0000 0.0502353249
C   C49       1.0  0.51520  0.58290  0.39560  1.0000 0.0502353249
C   C50       1.0  0.98480  0.41710  0.89560  1.0000 0.0502353249
C   C51       1.0  0.48480  0.08290  0.10440  1.0000 0.0502353249
C   C52       1.0  0.01520  0.91710  0.60440  1.0000 0.0502353249
C   C53       1.0  0.62350  0.03820  0.58630  1.0000 -0.1880774956
C   C54       1.0  0.87650  0.96180  0.08630  1.0000 -0.1880774956
C   C55       1.0  0.37650  0.53820  0.91370  1.0000 -0.1880774956
C   C56       1.0  0.12350  0.46180  0.41370  1.0000 -0.1880774956
C   C57       1.0  0.66050  0.63160  0.31030  1.0000 0.0803707008
C   C58       1.0  0.83950  0.36840  0.81030  1.0000 0.0803707008
C   C59       1.0  0.33950  0.13160  0.18970  1.0000 0.0803707008
C   C60       1.0  0.16050  0.86840  0.68970  1.0000 0.0803707008
C   C61       1.0  0.77490  0.95140  0.47760  1.0000 -0.2119134675
C   C62       1.0  0.72510  0.04860  0.97760  1.0000 -0.2119134675
C   C63       1.0  0.22510  0.45140  0.02240  1.0000 -0.2119134675
C   C64       1.0  0.27490  0.54860  0.52240  1.0000 -0.2119134675
C   C65       1.0  0.76370  0.04240  0.47940  1.0000 -0.1113503102
C   C66       1.0  0.73630  0.95760  0.97940  1.0000 -0.1113503102
C   C67       1.0  0.23630  0.54240  0.02060  1.0000 -0.1113503102
C   C68       1.0  0.26370  0.45760  0.52060  1.0000 -0.1113503102
C   C69       1.0  0.61700  0.57470  0.26020  1.0000 -0.2119134675
C   C70       1.0  0.88300  0.42530  0.76020  1.0000 -0.2119134675
C   C71       1.0  0.38300  0.07470  0.23980  1.0000 -0.2119134675
C   C72       1.0  0.11700  0.92530  0.73980  1.0000 -0.2119134675
C   C73       1.0  0.69210  0.08050  0.53200  1.0000 -0.1372498434
C   C74       1.0  0.80790  0.91950  0.03200  1.0000 -0.1372498434
C   C75       1.0  0.30790  0.58050  0.96800  1.0000 -0.1372498434
C   C76       1.0  0.19210  0.41950  0.46800  1.0000 -0.1372498434
N   N1        1.0  0.60970  0.64040  0.37490  1.0000 -0.2225418846
N   N2        1.0  0.89030  0.35960  0.87490  1.0000 -0.2225418846
N   N3        1.0  0.39030  0.14040  0.12510  1.0000 -0.2225418846
N   N4        1.0  0.10970  0.85960  0.62510  1.0000 -0.2225418846
N   N5        1.0  0.70100  0.81740  0.53780  1.0000 -0.4132009606
N   N6        1.0  0.79900  0.18260  0.03780  1.0000 -0.4132009606
N   N7        1.0  0.29900  0.31740  0.96220  1.0000 -0.4132009606
N   N8        1.0  0.20100  0.68260  0.46220  1.0000 -0.4132009606
N   N9        1.0  0.38640  0.32700  0.12560  1.0000 -0.2338186848
N   N10       1.0  0.11360  0.67300  0.62560  1.0000 -0.2338186848
N   N11       1.0  0.61360  0.82700  0.37440  1.0000 -0.2338186848
N   N12       1.0  0.88640  0.17300  0.87440  1.0000 -0.2338186848
O   O1        1.0  0.47710  0.73470  0.49442  1.0000 -0.5701119166
O   O2        1.0  0.02290  0.26530  0.99442  1.0000 -0.5701119166
O   O3        1.0  0.52290  0.23470  0.00558  1.0000 -0.5701119166
O   O4        1.0  0.97710  0.76530  0.50558  1.0000 -0.5701119166
O   O5        1.0  0.71750  0.63560  0.52480  1.0000 -0.6722860794
O   O6        1.0  0.78250  0.36440  0.02480  1.0000 -0.6722860794
O   O7        1.0  0.28250  0.13560  0.97520  1.0000 -0.6722860794
O   O8        1.0  0.21750  0.86440  0.47520  1.0000 -0.6722860794
O   O9        1.0  0.35850  0.77460  0.59129  1.0000 -0.5236843984
O   O10       1.0  0.14150  0.22540  0.09129  1.0000 -0.5236843984
O   O11       1.0  0.64150  0.27460  0.90871  1.0000 -0.5236843984
O   O12       1.0  0.85850  0.72540  0.40871  1.0000 -0.5236843984
