# DDEC6 charges by PACMAN v1.1 (https://github.com/mtap-research/PACMAN-charge/)
data_2023[CrNi][sql]2[FSR]1
_chemical_formula_sum              "Cr4 Ni4 H64 C80 S16 N16 O16"
_cell_length_a       13.0356
_cell_length_b       13.0356
_cell_length_c       23.8304
_cell_angle_alpha    71.3348
_cell_angle_beta     108.665
_cell_angle_gamma    131.882

_symmetry_space_group_name_H-M    "P 1"
_symmetry_Int_Tables_number       1

loop_
  _symmetry_equiv_pos_as_xyz
  'x, y, z'

loop_
  _atom_site_type_symbol
  _atom_site_label
  _atom_site_symmetry_multiplicity
  _atom_site_fract_x
  _atom_site_fract_y
  _atom_site_fract_z
  _atom_site_occupancy
  _atom_site_charge
Cr  Cr1       1.0  0.46748  0.16966  0.34813  1.0000 1.7138034649
Cr  Cr2       1.0  0.16966  0.46748  0.15187  1.0000 1.7138034649
Cr  Cr3       1.0  0.53252  0.83034  0.65187  1.0000 1.7153056212
Cr  Cr4       1.0  0.83034  0.53252  0.84813  1.0000 1.7153056212
Ni  Ni1       1.0  0.25129  0.25129  0.25000  1.0000 0.7331616231
Ni  Ni2       1.0  0.74871  0.74871  0.75000  1.0000 0.7331616231
Ni  Ni3       1.0  0.50000  0.00000  0.50000  1.0000 0.7418748982
Ni  Ni4       1.0  0.00000  0.50000  0.00000  1.0000 0.7418748982
H   H1        1.0  0.97362  0.06368  0.16870  1.0000 0.1184444584
H   H2        1.0  0.06368  0.97362  0.33130  1.0000 0.1184444584
H   H3        1.0  0.02638  0.93632  0.83130  1.0000 0.1184444584
H   H4        1.0  0.93632  0.02638  0.66870  1.0000 0.1184444584
H   H5        1.0  0.84732  0.86308  0.12732  1.0000 0.1299257816
H   H6        1.0  0.86308  0.84732  0.37268  1.0000 0.1299257816
H   H7        1.0  0.15268  0.13692  0.87268  1.0000 0.1299257816
H   H8        1.0  0.13692  0.15268  0.62732  1.0000 0.1299257816
H   H9        1.0  0.17458  0.86206  0.19447  1.0000 0.1439559668
H   H10       1.0  0.86206  0.17458  0.30553  1.0000 0.1439559668
H   H11       1.0  0.82542  0.13794  0.80553  1.0000 0.1439559668
H   H12       1.0  0.13794  0.82542  0.69447  1.0000 0.1439559668
H   H13       1.0  0.28926  0.06058  0.23479  1.0000 0.1184444584
H   H14       1.0  0.06058  0.28926  0.26521  1.0000 0.1184444584
H   H15       1.0  0.71074  0.93942  0.76521  1.0000 0.1184444584
H   H16       1.0  0.93942  0.71074  0.73479  1.0000 0.1184444584
H   H17       1.0  0.45450  0.49122  0.05619  1.0000 0.1299257816
H   H18       1.0  0.49122  0.45450  0.44381  1.0000 0.1299257816
H   H19       1.0  0.54550  0.50878  0.94381  1.0000 0.1299257816
H   H20       1.0  0.50878  0.54550  0.55619  1.0000 0.1299257816
H   H21       1.0  0.28571  0.34897  0.11806  1.0000 0.1075195548
H   H22       1.0  0.34897  0.28571  0.38194  1.0000 0.1075195548
H   H23       1.0  0.71429  0.65103  0.88194  1.0000 0.1075195548
H   H24       1.0  0.65103  0.71429  0.61806  1.0000 0.1075195548
H   H25       1.0  0.56697  0.42341  0.26138  1.0000 0.1184444584
H   H26       1.0  0.42341  0.56697  0.23862  1.0000 0.1184444584
H   H27       1.0  0.43303  0.57659  0.73862  1.0000 0.1184444584
H   H28       1.0  0.57659  0.43303  0.76138  1.0000 0.1184444584
H   H29       1.0  0.74472  0.56422  0.20403  1.0000 0.1299257816
H   H30       1.0  0.56422  0.74472  0.29597  1.0000 0.1299257816
H   H31       1.0  0.25528  0.43578  0.79597  1.0000 0.1299257816
H   H32       1.0  0.43578  0.25528  0.70403  1.0000 0.1299257816
H   H33       1.0  0.71864  0.23946  0.41856  1.0000 0.1075195548
H   H34       1.0  0.23946  0.71864  0.08144  1.0000 0.1075195548
H   H35       1.0  0.28136  0.76054  0.58144  1.0000 0.1075195548
H   H36       1.0  0.76054  0.28136  0.91856  1.0000 0.1075195548
H   H37       1.0  0.93355  0.34307  0.39830  1.0000 0.1299257816
H   H38       1.0  0.34307  0.93355  0.10170  1.0000 0.1299257816
H   H39       1.0  0.06645  0.65693  0.60170  1.0000 0.1299257816
H   H40       1.0  0.65693  0.06645  0.89830  1.0000 0.1299257816
H   H41       1.0  0.93614  0.05224  0.52623  1.0000 0.1299257816
H   H42       1.0  0.05224  0.93614  0.97377  1.0000 0.1299257816
H   H43       1.0  0.06386  0.94776  0.47377  1.0000 0.1299257816
H   H44       1.0  0.94776  0.06386  0.02623  1.0000 0.1299257816
H   H45       1.0  0.72303  0.96077  0.54460  1.0000 0.1184444584
H   H46       1.0  0.96077  0.72303  0.95540  1.0000 0.1184444584
H   H47       1.0  0.27697  0.03923  0.45540  1.0000 0.1184444584
H   H48       1.0  0.03923  0.27697  0.04460  1.0000 0.1184444584
H   H49       1.0  0.31888  0.71808  0.33890  1.0000 0.1439559668
H   H50       1.0  0.71808  0.31888  0.16110  1.0000 0.1439559668
H   H51       1.0  0.68112  0.28192  0.66110  1.0000 0.1439559668
H   H52       1.0  0.28192  0.68112  0.83890  1.0000 0.1439559668
H   H53       1.0  0.43616  0.91312  0.38176  1.0000 0.1184444584
H   H54       1.0  0.91312  0.43616  0.11824  1.0000 0.1184444584
H   H55       1.0  0.56384  0.08688  0.61824  1.0000 0.1184444584
H   H56       1.0  0.08688  0.56384  0.88176  1.0000 0.1184444584
H   H57       1.0  0.36699  0.68951  0.54237  1.0000 0.1184444584
H   H58       1.0  0.68951  0.36699  0.95763  1.0000 0.1184444584
H   H59       1.0  0.63301  0.31049  0.45763  1.0000 0.1184444584
H   H60       1.0  0.31049  0.63301  0.04237  1.0000 0.1184444584
H   H61       1.0  0.24256  0.48724  0.50375  1.0000 0.1299257816
H   H62       1.0  0.48724  0.24256  0.99625  1.0000 0.1299257816
H   H63       1.0  0.75744  0.51276  0.49625  1.0000 0.1299257816
H   H64       1.0  0.51276  0.75744  0.00375  1.0000 0.1299257816
C   C1        1.0  0.01461  0.02179  0.17393  1.0000 0.0989619111
C   C2        1.0  0.02179  0.01461  0.32607  1.0000 0.0989619111
C   C3        1.0  0.98539  0.97821  0.82607  1.0000 0.0989619111
C   C4        1.0  0.97821  0.98539  0.67393  1.0000 0.0989619111
C   C5        1.0  0.93859  0.90261  0.14875  1.0000 -0.2110187225
C   C6        1.0  0.90261  0.93859  0.35125  1.0000 -0.2110187225
C   C7        1.0  0.06141  0.09739  0.85125  1.0000 -0.2110187225
C   C8        1.0  0.09739  0.06141  0.64875  1.0000 -0.2110187225
C   C9        1.0  0.99906  0.84194  0.15561  1.0000 0.1075195548
C   C10       1.0  0.84194  0.99906  0.34439  1.0000 0.1075195548
C   C11       1.0  0.00094  0.15806  0.84439  1.0000 0.1075195548
C   C12       1.0  0.15806  0.00094  0.65561  1.0000 0.1075195548
C   C13       1.0  0.13116  0.90184  0.18846  1.0000 -0.1995908744
C   C14       1.0  0.90184  0.13116  0.31154  1.0000 -0.1995908744
C   C15       1.0  0.86884  0.09816  0.81154  1.0000 -0.1995908744
C   C16       1.0  0.09816  0.86884  0.68846  1.0000 -0.1995908744
C   C17       1.0  0.19881  0.02019  0.21229  1.0000 0.0831170254
C   C18       1.0  0.02019  0.19881  0.28771  1.0000 0.0831170254
C   C19       1.0  0.80119  0.97981  0.78771  1.0000 0.0831170254
C   C20       1.0  0.97981  0.80119  0.71229  1.0000 0.0831170254
C   C21       1.0  0.61781  0.54119  0.12330  1.0000 0.1075195548
C   C22       1.0  0.54119  0.61781  0.37670  1.0000 0.1075195548
C   C23       1.0  0.38219  0.45881  0.87670  1.0000 0.1075195548
C   C24       1.0  0.45881  0.38219  0.62330  1.0000 0.1075195548
C   C25       1.0  0.47998  0.47742  0.09835  1.0000 -0.1995908744
C   C26       1.0  0.47742  0.47998  0.40165  1.0000 -0.1995908744
C   C27       1.0  0.52002  0.52258  0.90165  1.0000 -0.1995908744
C   C28       1.0  0.52258  0.52002  0.59835  1.0000 -0.1995908744
C   C29       1.0  0.38035  0.39365  0.13564  1.0000 0.0831170254
C   C30       1.0  0.39365  0.38035  0.36436  1.0000 0.0831170254
C   C31       1.0  0.61965  0.60635  0.86436  1.0000 0.0831170254
C   C32       1.0  0.60635  0.61965  0.63564  1.0000 0.0831170254
C   C33       1.0  0.54397  0.43643  0.21902  1.0000 0.0989619111
C   C34       1.0  0.43643  0.54397  0.28098  1.0000 0.0989619111
C   C35       1.0  0.45603  0.56357  0.78098  1.0000 0.0989619111
C   C36       1.0  0.56357  0.45603  0.71902  1.0000 0.0989619111
C   C37       1.0  0.65089  0.52091  0.18536  1.0000 -0.1995908744
C   C38       1.0  0.52091  0.65089  0.31464  1.0000 -0.1995908744
C   C39       1.0  0.34911  0.47909  0.81464  1.0000 -0.1995908744
C   C40       1.0  0.47909  0.34911  0.68536  1.0000 -0.1995908744
C   C41       1.0  0.76385  0.20115  0.44096  1.0000 0.0989619111
C   C42       1.0  0.20115  0.76385  0.05904  1.0000 0.0989619111
C   C43       1.0  0.23615  0.79885  0.55904  1.0000 0.0989619111
C   C44       1.0  0.79885  0.23615  0.94096  1.0000 0.0989619111
C   C45       1.0  0.89160  0.26320  0.42811  1.0000 -0.1995908744
C   C46       1.0  0.26320  0.89160  0.07189  1.0000 -0.1995908744
C   C47       1.0  0.10840  0.73680  0.57189  1.0000 -0.1995908744
C   C48       1.0  0.73680  0.10840  0.92811  1.0000 -0.1995908744
C   C49       1.0  0.95822  0.20738  0.45938  1.0000 0.1075195548
C   C50       1.0  0.20738  0.95822  0.04062  1.0000 0.1075195548
C   C51       1.0  0.04178  0.79262  0.54062  1.0000 0.1075195548
C   C52       1.0  0.79262  0.04178  0.95938  1.0000 0.1075195548
C   C53       1.0  0.89334  0.09286  0.50350  1.0000 -0.2110187225
C   C54       1.0  0.09286  0.89334  0.99650  1.0000 -0.2110187225
C   C55       1.0  0.10666  0.90714  0.49650  1.0000 -0.2110187225
C   C56       1.0  0.90714  0.10666  0.00350  1.0000 -0.2110187225
C   C57       1.0  0.76572  0.03848  0.51398  1.0000 0.0903394962
C   C58       1.0  0.03848  0.76572  0.98602  1.0000 0.0903394962
C   C59       1.0  0.23428  0.96152  0.48602  1.0000 0.0903394962
C   C60       1.0  0.96152  0.23428  0.01398  1.0000 0.0903394962
C   C61       1.0  0.26644  0.57996  0.41668  1.0000 0.0989619111
C   C62       1.0  0.57996  0.26644  0.08332  1.0000 0.0989619111
C   C63       1.0  0.73356  0.42004  0.58332  1.0000 0.0989619111
C   C64       1.0  0.42004  0.73356  0.91668  1.0000 0.0989619111
C   C65       1.0  0.32622  0.70958  0.38084  1.0000 -0.1995908744
C   C66       1.0  0.70958  0.32622  0.11916  1.0000 -0.1995908744
C   C67       1.0  0.67378  0.29042  0.61916  1.0000 -0.1995908744
C   C68       1.0  0.29042  0.67378  0.88084  1.0000 -0.1995908744
C   C69       1.0  0.39622  0.82538  0.40680  1.0000 0.0831170254
C   C70       1.0  0.82538  0.39622  0.09320  1.0000 0.0831170254
C   C71       1.0  0.60378  0.17462  0.59320  1.0000 0.0831170254
C   C72       1.0  0.17462  0.60378  0.90680  1.0000 0.0831170254
C   C73       1.0  0.35519  0.69501  0.50033  1.0000 0.0903394962
C   C74       1.0  0.69501  0.35519  0.99967  1.0000 0.0903394962
C   C75       1.0  0.64481  0.30499  0.49967  1.0000 0.0903394962
C   C76       1.0  0.30499  0.64481  0.00033  1.0000 0.0903394962
C   C77       1.0  0.28196  0.57384  0.47782  1.0000 -0.2110187225
C   C78       1.0  0.57384  0.28196  0.02218  1.0000 -0.2110187225
C   C79       1.0  0.71804  0.42616  0.52218  1.0000 -0.2110187225
C   C80       1.0  0.42616  0.71804  0.97782  1.0000 -0.2110187225
S   S1        1.0  0.74368  0.64624  0.07386  1.0000 -0.0110215683
S   S2        1.0  0.64624  0.74368  0.42614  1.0000 -0.0110215683
S   S3        1.0  0.25632  0.35376  0.92614  1.0000 -0.0110215683
S   S4        1.0  0.35376  0.25632  0.57386  1.0000 -0.0110215683
S   S5        1.0  0.92145  0.69065  0.12680  1.0000 0.0416794894
S   S6        1.0  0.69065  0.92145  0.37320  1.0000 0.0416794894
S   S7        1.0  0.07855  0.30935  0.87320  1.0000 0.0416794894
S   S8        1.0  0.30935  0.07855  0.62680  1.0000 0.0416794894
S   S9        1.0  0.12018  0.27262  0.44610  1.0000 -0.0110215683
S   S10       1.0  0.27262  0.12018  0.05390  1.0000 -0.0110215683
S   S11       1.0  0.87982  0.72738  0.55390  1.0000 -0.0110215683
S   S12       1.0  0.72738  0.87982  0.94610  1.0000 -0.0110215683
S   S13       1.0  0.17414  0.43590  0.37923  1.0000 0.0416794894
S   S14       1.0  0.43590  0.17414  0.12077  1.0000 0.0416794894
S   S15       1.0  0.82586  0.56410  0.62077  1.0000 0.0416794894
S   S16       1.0  0.56410  0.82586  0.87923  1.0000 0.0416794894
N   N1        1.0  0.14189  0.08091  0.20503  1.0000 -0.2110187225
N   N2        1.0  0.08091  0.14189  0.29497  1.0000 -0.2110187225
N   N3        1.0  0.85811  0.91909  0.79497  1.0000 -0.2110187225
N   N4        1.0  0.91909  0.85811  0.70503  1.0000 -0.2110187225
N   N5        1.0  0.40984  0.37156  0.19573  1.0000 -0.2169007301
N   N6        1.0  0.37156  0.40984  0.30427  1.0000 -0.2169007301
N   N7        1.0  0.59016  0.62844  0.80427  1.0000 -0.2169007301
N   N8        1.0  0.62844  0.59016  0.69573  1.0000 -0.2169007301
N   N9        1.0  0.69900  0.09020  0.48296  1.0000 -0.2110187225
N   N10       1.0  0.09020  0.69900  0.01704  1.0000 -0.2110187225
N   N11       1.0  0.30100  0.90980  0.51704  1.0000 -0.2110187225
N   N12       1.0  0.90980  0.30100  0.98296  1.0000 -0.2110187225
N   N13       1.0  0.41092  0.82048  0.46632  1.0000 -0.2169007301
N   N14       1.0  0.82048  0.41092  0.03368  1.0000 -0.2169007301
N   N15       1.0  0.58908  0.17952  0.53368  1.0000 -0.2169007301
N   N16       1.0  0.17952  0.58908  0.96632  1.0000 -0.2169007301
O   O1        1.0  0.32844  0.16076  0.31643  1.0000 -0.8215078764
O   O2        1.0  0.16076  0.32844  0.18357  1.0000 -0.8215078764
O   O3        1.0  0.67156  0.83924  0.68357  1.0000 -0.8215078764
O   O4        1.0  0.83924  0.67156  0.81643  1.0000 -0.8215078764
O   O5        1.0  0.45041  0.08059  0.41673  1.0000 -0.8215078764
O   O6        1.0  0.08059  0.45041  0.08327  1.0000 -0.8215078764
O   O7        1.0  0.54959  0.91941  0.58327  1.0000 -0.8215078764
O   O8        1.0  0.91941  0.54959  0.91673  1.0000 -0.8215078764
O   O9        1.0  0.60747  0.33273  0.35308  1.0000 -0.7625661545
O   O10       1.0  0.33273  0.60747  0.14692  1.0000 -0.7625661545
O   O11       1.0  0.39253  0.66727  0.64692  1.0000 -0.7625661545
O   O12       1.0  0.66727  0.39253  0.85308  1.0000 -0.7625661545
O   O13       1.0  0.48595  0.10565  0.30644  1.0000 -0.7625661545
O   O14       1.0  0.10565  0.48595  0.19356  1.0000 -0.7625661545
O   O15       1.0  0.51405  0.89435  0.69356  1.0000 -0.7625661545
O   O16       1.0  0.89435  0.51405  0.80644  1.0000 -0.7625661545
