# DDEC6 charges by PACMAN v1.1 (https://github.com/mtap-research/PACMAN-charge/)
data_2023[In][dia]3[FSR]1
_chemical_formula_sum              "In4 H24 C52 O32"
_cell_length_a       11.8158
_cell_length_b       13.0048
_cell_length_c       15.7655
_cell_angle_alpha    90
_cell_angle_beta     121.257
_cell_angle_gamma    90

_symmetry_space_group_name_H-M    "P 1"
_symmetry_Int_Tables_number       1

loop_
  _symmetry_equiv_pos_as_xyz
  'x, y, z'

loop_
  _atom_site_type_symbol
  _atom_site_label
  _atom_site_symmetry_multiplicity
  _atom_site_fract_x
  _atom_site_fract_y
  _atom_site_fract_z
  _atom_site_occupancy
  _atom_site_charge
In  In1       1.0  0.56935  0.40597  0.36760  1.0000 1.3531750933
In  In2       1.0  0.43065  0.90597  0.13240  1.0000 1.3531750933
In  In3       1.0  0.43065  0.59403  0.63240  1.0000 1.3531750933
In  In4       1.0  0.56935  0.09403  0.86760  1.0000 1.3531750933
H   H1        1.0  0.48820  0.61902  0.10470  1.0000 0.1423141897
H   H2        1.0  0.51180  0.11902  0.39530  1.0000 0.1423141897
H   H3        1.0  0.51180  0.38098  0.89530  1.0000 0.1423141897
H   H4        1.0  0.48820  0.88098  0.60470  1.0000 0.1423141897
H   H5        1.0  0.42226  0.66458  0.94306  1.0000 0.1423141897
H   H6        1.0  0.57774  0.16458  0.55694  1.0000 0.1423141897
H   H7        1.0  0.57774  0.33542  0.05694  1.0000 0.1423141897
H   H8        1.0  0.42226  0.83542  0.44306  1.0000 0.1423141897
H   H9        1.0  0.04577  0.07134  0.08249  1.0000 0.1423141897
H   H10       1.0  0.95423  0.57134  0.41751  1.0000 0.1423141897
H   H11       1.0  0.95423  0.92866  0.91751  1.0000 0.1423141897
H   H12       1.0  0.04577  0.42866  0.58249  1.0000 0.1423141897
H   H13       1.0  0.25438  0.14069  0.18697  1.0000 0.1423141897
H   H14       1.0  0.74562  0.64069  0.31303  1.0000 0.1423141897
H   H15       1.0  0.74562  0.85931  0.81303  1.0000 0.1423141897
H   H16       1.0  0.25438  0.35931  0.68697  1.0000 0.1423141897
H   H17       1.0  0.09248  0.41965  0.15434  1.0000 0.1423141897
H   H18       1.0  0.90752  0.91965  0.34566  1.0000 0.1423141897
H   H19       1.0  0.90752  0.58035  0.84566  1.0000 0.1423141897
H   H20       1.0  0.09248  0.08035  0.65434  1.0000 0.1423141897
H   H21       1.0  0.88489  0.35096  0.04654  1.0000 0.1337783531
H   H22       1.0  0.11511  0.85096  0.45346  1.0000 0.1337783531
H   H23       1.0  0.11511  0.64904  0.95346  1.0000 0.1337783531
H   H24       1.0  0.88489  0.14904  0.54654  1.0000 0.1337783531
C   C1        1.0  0.49793  0.44620  0.52013  1.0000 0.4769694105
C   C2        1.0  0.50207  0.94620  0.97987  1.0000 0.4769694105
C   C3        1.0  0.50207  0.55380  0.47987  1.0000 0.4769694105
C   C4        1.0  0.49793  0.05380  0.02013  1.0000 0.4769694105
C   C5        1.0  0.57370  0.44120  0.19840  1.0000 0.5304401413
C   C6        1.0  0.42630  0.94120  0.30160  1.0000 0.5304401413
C   C7        1.0  0.42630  0.55880  0.80160  1.0000 0.5304401413
C   C8        1.0  0.57370  0.05880  0.69840  1.0000 0.5304401413
C   C9        1.0  0.53800  0.47240  0.09630  1.0000 -0.0081249813
C   C10       1.0  0.46200  0.97240  0.40370  1.0000 -0.0081249813
C   C11       1.0  0.46200  0.52760  0.90370  1.0000 -0.0048592497
C   C12       1.0  0.53800  0.02760  0.59630  1.0000 -0.0081249813
C   C13       1.0  0.32710  0.33220  0.24960  1.0000 0.5401890845
C   C14       1.0  0.67290  0.83220  0.25040  1.0000 0.5401890845
C   C15       1.0  0.67290  0.66780  0.75040  1.0000 0.5401890845
C   C16       1.0  0.32710  0.16780  0.74960  1.0000 0.5401890845
C   C17       1.0  0.80960  0.16160  0.98580  1.0000 0.5401890845
C   C18       1.0  0.19040  0.66160  0.51420  1.0000 0.5401890845
C   C19       1.0  0.19040  0.83840  0.01420  1.0000 0.5401890845
C   C20       1.0  0.80960  0.33840  0.48580  1.0000 0.5401890845
C   C21       1.0  0.49270  0.57120  0.06270  1.0000 -0.0796272993
C   C22       1.0  0.50730  0.07120  0.43730  1.0000 -0.0796272993
C   C23       1.0  0.50730  0.42880  0.93730  1.0000 -0.0796272993
C   C24       1.0  0.49270  0.92880  0.56270  1.0000 -0.0796272993
C   C25       1.0  0.45380  0.59860  0.96600  1.0000 -0.0796272993
C   C26       1.0  0.54620  0.09860  0.53400  1.0000 -0.0796272993
C   C27       1.0  0.54620  0.40140  0.03400  1.0000 -0.0796272993
C   C28       1.0  0.45380  0.90140  0.46600  1.0000 -0.0796272993
C   C29       1.0  0.19390  0.28640  0.18160  1.0000 0.0053476029
C   C30       1.0  0.80610  0.78640  0.31840  1.0000 0.0053476029
C   C31       1.0  0.80610  0.71360  0.81840  1.0000 0.0053476029
C   C32       1.0  0.19390  0.21360  0.68160  1.0000 0.0053476029
C   C33       1.0  0.94430  0.20410  0.05430  1.0000 -0.0081249813
C   C34       1.0  0.05570  0.70410  0.44570  1.0000 -0.0081249813
C   C35       1.0  0.05570  0.79590  0.94570  1.0000 -0.0081249813
C   C36       1.0  0.94430  0.29590  0.55430  1.0000 -0.0081249813
C   C37       1.0  0.05490  0.14140  0.09640  1.0000 -0.0796272993
C   C38       1.0  0.94510  0.64140  0.40360  1.0000 -0.0796272993
C   C39       1.0  0.94510  0.85860  0.90360  1.0000 -0.0796272993
C   C40       1.0  0.05490  0.35860  0.59640  1.0000 -0.0796272993
C   C41       1.0  0.18010  0.18290  0.15960  1.0000 -0.0796272993
C   C42       1.0  0.81990  0.68290  0.34040  1.0000 -0.0796272993
C   C43       1.0  0.81990  0.81710  0.84040  1.0000 -0.0796272993
C   C44       1.0  0.18010  0.31710  0.65960  1.0000 -0.0796272993
C   C45       1.0  0.08330  0.34980  0.13960  1.0000 -0.0940491363
C   C46       1.0  0.91670  0.84980  0.36040  1.0000 -0.0940491363
C   C47       1.0  0.91670  0.65020  0.86040  1.0000 -0.0940491363
C   C48       1.0  0.08330  0.15020  0.63960  1.0000 -0.0940491363
C   C49       1.0  0.95890  0.30840  0.07550  1.0000 -0.0796272993
C   C50       1.0  0.04110  0.80840  0.42450  1.0000 -0.0796272993
C   C51       1.0  0.04110  0.69160  0.92450  1.0000 -0.0796272993
C   C52       1.0  0.95890  0.19160  0.57550  1.0000 -0.0796272993
O   O1        1.0  0.45966  0.44188  0.58067  1.0000 -0.4413198038
O   O2        1.0  0.54034  0.94188  0.91933  1.0000 -0.4413198038
O   O3        1.0  0.54034  0.55812  0.41933  1.0000 -0.4413198038
O   O4        1.0  0.45966  0.05812  0.08067  1.0000 -0.4413198038
O   O5        1.0  0.53320  0.37127  0.48997  1.0000 -0.4720282416
O   O6        1.0  0.46680  0.87127  0.01003  1.0000 -0.4720282416
O   O7        1.0  0.46680  0.62873  0.51003  1.0000 -0.4720282416
O   O8        1.0  0.53320  0.12873  0.98997  1.0000 -0.4720282416
O   O9        1.0  0.71364  0.22442  0.94006  1.0000 -0.4720282416
O   O10       1.0  0.28636  0.72442  0.55994  1.0000 -0.4720282416
O   O11       1.0  0.28636  0.77558  0.05994  1.0000 -0.4720282416
O   O12       1.0  0.71364  0.27558  0.44006  1.0000 -0.4720282416
O   O13       1.0  0.78925  0.06690  0.97195  1.0000 -0.4962424541
O   O14       1.0  0.21075  0.56690  0.52805  1.0000 -0.4946916803
O   O15       1.0  0.21075  0.93310  0.02805  1.0000 -0.4946916803
O   O16       1.0  0.78925  0.43310  0.47195  1.0000 -0.4962424541
O   O17       1.0  0.42941  0.27785  0.28421  1.0000 -0.4720282416
O   O18       1.0  0.57059  0.77785  0.21579  1.0000 -0.4720282416
O   O19       1.0  0.57059  0.72215  0.71579  1.0000 -0.4720282416
O   O20       1.0  0.42941  0.22215  0.78421  1.0000 -0.4720282416
O   O21       1.0  0.54987  0.50325  0.24917  1.0000 -0.4720282416
O   O22       1.0  0.45013  0.00325  0.25083  1.0000 -0.4720282416
O   O23       1.0  0.45013  0.49675  0.75083  1.0000 -0.4720282416
O   O24       1.0  0.54987  0.99675  0.74917  1.0000 -0.4720282416
O   O25       1.0  0.33660  0.42540  0.27210  1.0000 -0.4962424541
O   O26       1.0  0.66340  0.92540  0.22790  1.0000 -0.4962424541
O   O27       1.0  0.66340  0.57460  0.72790  1.0000 -0.4962424541
O   O28       1.0  0.33660  0.07460  0.77210  1.0000 -0.4962424541
O   O29       1.0  0.62080  0.35610  0.23200  1.0000 -0.4628982648
O   O30       1.0  0.37920  0.85610  0.26800  1.0000 -0.4628982648
O   O31       1.0  0.37920  0.64390  0.76800  1.0000 -0.4628982648
O   O32       1.0  0.62080  0.14390  0.73200  1.0000 -0.4628982648
