# DDEC6 charges by PACMAN v1.1 (https://github.com/mtap-research/PACMAN-charge/)
data_2023[TiCu][nan]3[FSR]5
_chemical_formula_sum              "Ti4 Cu4 H80 C104 N32 O16 F24"
_cell_length_a       19.8281
_cell_length_b       19.8281
_cell_length_c       19.8281
_cell_angle_alpha    130.613
_cell_angle_beta     130.613
_cell_angle_gamma    72.4291

_symmetry_space_group_name_H-M    "P 1"
_symmetry_Int_Tables_number       1

loop_
  _symmetry_equiv_pos_as_xyz
  'x, y, z'

loop_
  _atom_site_type_symbol
  _atom_site_label
  _atom_site_symmetry_multiplicity
  _atom_site_fract_x
  _atom_site_fract_y
  _atom_site_fract_z
  _atom_site_occupancy
  _atom_site_charge
Ti  Ti1       1.0  0.37500  0.15340  0.27840  1.0000 2.1699487042
Ti  Ti2       1.0  0.87500  0.09660  0.72160  1.0000 2.1699487042
Ti  Ti3       1.0  0.90340  0.12500  0.27840  1.0000 2.1699487042
Ti  Ti4       1.0  0.84660  0.62500  0.72160  1.0000 2.1699487042
Cu  Cu1       1.0  0.62631  0.12631  0.50000  1.0000 0.7676729184
Cu  Cu2       1.0  0.87631  0.87631  0.00000  1.0000 0.7676729184
Cu  Cu3       1.0  0.12369  0.12369  0.00000  1.0000 0.7676729184
Cu  Cu4       1.0  0.87369  0.37369  0.50000  1.0000 0.7676729184
H   H1        1.0  0.43287  0.99588  0.30099  1.0000 0.1235833015
H   H2        1.0  0.69489  0.13188  0.69901  1.0000 0.1235833015
H   H3        1.0  0.74588  0.94489  0.06301  1.0000 0.1235833015
H   H4        1.0  0.88188  0.68287  0.93699  1.0000 0.1235833015
H   H5        1.0  0.05511  0.25412  0.93699  1.0000 0.1235833015
H   H6        1.0  0.31713  0.11812  0.06301  1.0000 0.1235833015
H   H7        1.0  0.86812  0.30511  0.30099  1.0000 0.1235833015
H   H8        1.0  0.00412  0.56713  0.69901  1.0000 0.1235833015
H   H9        1.0  0.66632  0.93656  0.46086  1.0000 0.1412394956
H   H10       1.0  0.47570  0.20546  0.53914  1.0000 0.1412394956
H   H11       1.0  0.68656  0.72570  0.77024  1.0000 0.1412394956
H   H12       1.0  0.95546  0.91632  0.22976  1.0000 0.1412394956
H   H13       1.0  0.27430  0.31344  0.22976  1.0000 0.1412394956
H   H14       1.0  0.08368  0.04454  0.77024  1.0000 0.1412394956
H   H15       1.0  0.79454  0.52430  0.46086  1.0000 0.1412394956
H   H16       1.0  0.06344  0.33368  0.53914  1.0000 0.1412394956
H   H17       1.0  0.54950  0.81190  0.34050  1.0000 0.1288779788
H   H18       1.0  0.47140  0.20900  0.65950  1.0000 0.1288779788
H   H19       1.0  0.56190  0.72140  0.76240  1.0000 0.1288779788
H   H20       1.0  0.95900  0.79950  0.23760  1.0000 0.1288779788
H   H21       1.0  0.27860  0.43810  0.23760  1.0000 0.1288779788
H   H22       1.0  0.20050  0.04100  0.76240  1.0000 0.1288779788
H   H23       1.0  0.79100  0.52860  0.34050  1.0000 0.1288779788
H   H24       1.0  0.18810  0.45050  0.65950  1.0000 0.1288779788
H   H25       1.0  0.40427  0.70794  0.14943  1.0000 0.1288779788
H   H26       1.0  0.55851  0.25484  0.85057  1.0000 0.1288779788
H   H27       1.0  0.45794  0.80851  0.80367  1.0000 0.1288779788
H   H28       1.0  0.00484  0.65427  0.19633  1.0000 0.1288779788
H   H29       1.0  0.19149  0.54206  0.19633  1.0000 0.1288779788
H   H30       1.0  0.34573  0.99516  0.80367  1.0000 0.1288779788
H   H31       1.0  0.74516  0.44149  0.14943  1.0000 0.1288779788
H   H32       1.0  0.29206  0.59573  0.85057  1.0000 0.1288779788
H   H33       1.0  0.13357  0.69500  0.98505  1.0000 0.1412394956
H   H34       1.0  0.70995  0.14852  0.01495  1.0000 0.1412394956
H   H35       1.0  0.44500  0.95995  0.06143  1.0000 0.1412394956
H   H36       1.0  0.89852  0.38357  0.93857  1.0000 0.1412394956
H   H37       1.0  0.04005  0.55500  0.93857  1.0000 0.1412394956
H   H38       1.0  0.61643  0.10148  0.06143  1.0000 0.1412394956
H   H39       1.0  0.85148  0.29005  0.98505  1.0000 0.1412394956
H   H40       1.0  0.30500  0.86643  0.01495  1.0000 0.1412394956
H   H41       1.0  0.30801  0.93728  0.24101  1.0000 0.14816796
H   H42       1.0  0.69627  0.06700  0.75899  1.0000 0.14816796
H   H43       1.0  0.68728  0.94627  0.12927  1.0000 0.14816796
H   H44       1.0  0.81700  0.55801  0.87073  1.0000 0.14816796
H   H45       1.0  0.05373  0.31272  0.87073  1.0000 0.14816796
H   H46       1.0  0.44199  0.18300  0.12927  1.0000 0.14816796
H   H47       1.0  0.93300  0.30373  0.24101  1.0000 0.14816796
H   H48       1.0  0.06272  0.69199  0.75899  1.0000 0.14816796
H   H49       1.0  0.03275  0.77338  0.00411  1.0000 0.1288779788
H   H50       1.0  0.76927  0.02864  0.99589  1.0000 0.1288779788
H   H51       1.0  0.52338  0.01927  0.24063  1.0000 0.1288779788
H   H52       1.0  0.77864  0.28275  0.75937  1.0000 0.1288779788
H   H53       1.0  0.98073  0.47662  0.75937  1.0000 0.1288779788
H   H54       1.0  0.71725  0.22136  0.24063  1.0000 0.1288779788
H   H55       1.0  0.97136  0.23073  0.00411  1.0000 0.1288779788
H   H56       1.0  0.22662  0.96725  0.99589  1.0000 0.1288779788
H   H57       1.0  0.04141  0.03330  0.15341  1.0000 0.1288779788
H   H58       1.0  0.87989  0.88800  0.84659  1.0000 0.1288779788
H   H59       1.0  0.78330  0.12989  0.49189  1.0000 0.1288779788
H   H60       1.0  0.63800  0.29141  0.50811  1.0000 0.1288779788
H   H61       1.0  0.87011  0.21670  0.50811  1.0000 0.1288779788
H   H62       1.0  0.70859  0.36200  0.49189  1.0000 0.1288779788
H   H63       1.0  0.11200  0.12011  0.15341  1.0000 0.1288779788
H   H64       1.0  0.96670  0.95859  0.84659  1.0000 0.1288779788
H   H65       1.0  0.18733  0.00276  0.19229  1.0000 0.1412394956
H   H66       1.0  0.81047  0.99504  0.80771  1.0000 0.1412394956
H   H67       1.0  0.75276  0.06047  0.31543  1.0000 0.1412394956
H   H68       1.0  0.74504  0.43733  0.68457  1.0000 0.1412394956
H   H69       1.0  0.93953  0.24724  0.68457  1.0000 0.1412394956
H   H70       1.0  0.56267  0.25496  0.31543  1.0000 0.1412394956
H   H71       1.0  0.00496  0.18953  0.19229  1.0000 0.1412394956
H   H72       1.0  0.99724  0.81267  0.80771  1.0000 0.1412394956
H   H73       1.0  0.30600  0.49775  0.96351  1.0000 0.3579779636
H   H74       1.0  0.53424  0.34249  0.03649  1.0000 0.3579779636
H   H75       1.0  0.24775  0.78424  0.69175  1.0000 0.3579779636
H   H76       1.0  0.09249  0.55600  0.30825  1.0000 0.3579779636
H   H77       1.0  0.21576  0.75225  0.30825  1.0000 0.3579779636
H   H78       1.0  0.44400  0.90751  0.69175  1.0000 0.3579779636
H   H79       1.0  0.65751  0.46576  0.96351  1.0000 0.3579779636
H   H80       1.0  0.50225  0.69400  0.03649  1.0000 0.3579779636
C   C1        1.0  0.47640  0.96530  0.32510  1.0000 0.1412394956
C   C2        1.0  0.64020  0.15130  0.67490  1.0000 0.1412394956
C   C3        1.0  0.71530  0.89020  0.98890  1.0000 0.1412394956
C   C4        1.0  0.90130  0.72640  0.01110  1.0000 0.1412394956
C   C5        1.0  0.10980  0.28470  0.01110  1.0000 0.1412394956
C   C6        1.0  0.27360  0.09870  0.98890  1.0000 0.1412394956
C   C7        1.0  0.84870  0.35980  0.32510  1.0000 0.1412394956
C   C8        1.0  0.03470  0.52360  0.67490  1.0000 0.1412394956
C   C9        1.0  0.60420  0.93320  0.41380  1.0000 -0.0103740421
C   C10       1.0  0.51940  0.19040  0.58620  1.0000 -0.0103740421
C   C11       1.0  0.68320  0.76940  0.82900  1.0000 -0.0103740421
C   C12       1.0  0.94040  0.85420  0.17100  1.0000 -0.0103740421
C   C13       1.0  0.23060  0.31680  0.17100  1.0000 -0.0103740421
C   C14       1.0  0.14580  0.05960  0.82900  1.0000 -0.0103740421
C   C15       1.0  0.80960  0.48060  0.41380  1.0000 -0.0103740421
C   C16       1.0  0.06680  0.39580  0.58620  1.0000 -0.0103740421
C   C17       1.0  0.54050  0.86360  0.34590  1.0000 -0.1158872074
C   C18       1.0  0.51770  0.19460  0.65410  1.0000 -0.1158872074
C   C19       1.0  0.61360  0.76770  0.82310  1.0000 -0.1158872074
C   C20       1.0  0.94460  0.79050  0.17690  1.0000 -0.1158872074
C   C21       1.0  0.23230  0.38640  0.17690  1.0000 -0.1158872074
C   C22       1.0  0.20950  0.05540  0.82310  1.0000 -0.1158872074
C   C23       1.0  0.80540  0.48230  0.34590  1.0000 -0.1158872074
C   C24       1.0  0.13640  0.45950  0.65410  1.0000 -0.1158872074
C   C25       1.0  0.36710  0.83100  0.20470  1.0000 0.1929077726
C   C26       1.0  0.62630  0.16240  0.79530  1.0000 0.1929077726
C   C27       1.0  0.58100  0.87630  0.96390  1.0000 0.1929077726
C   C28       1.0  0.91240  0.61710  0.03610  1.0000 0.1929077726
C   C29       1.0  0.12370  0.41900  0.03610  1.0000 0.1929077726
C   C30       1.0  0.38290  0.08760  0.96390  1.0000 0.1929077726
C   C31       1.0  0.83760  0.37370  0.20470  1.0000 0.1929077726
C   C32       1.0  0.16900  0.63290  0.79530  1.0000 0.1929077726
C   C33       1.0  0.35580  0.73700  0.14060  1.0000 -0.2392446402
C   C34       1.0  0.59640  0.21520  0.85940  1.0000 -0.2392446402
C   C35       1.0  0.48700  0.84640  0.88120  1.0000 -0.2392446402
C   C36       1.0  0.96520  0.60580  0.11880  1.0000 -0.2392446402
C   C37       1.0  0.15360  0.51300  0.11880  1.0000 -0.2392446402
C   C38       1.0  0.39420  0.03480  0.88120  1.0000 -0.2392446402
C   C39       1.0  0.78480  0.40360  0.14060  1.0000 -0.2392446402
C   C40       1.0  0.26300  0.64420  0.85940  1.0000 -0.2392446402
C   C41       1.0  0.26420  0.68690  0.05730  1.0000 -0.0103740421
C   C42       1.0  0.62960  0.20690  0.94270  1.0000 -0.0103740421
C   C43       1.0  0.43690  0.87960  0.92270  1.0000 -0.0103740421
C   C44       1.0  0.95690  0.51420  0.07730  1.0000 -0.0103740421
C   C45       1.0  0.12040  0.56310  0.07730  1.0000 -0.0103740421
C   C46       1.0  0.48580  0.04310  0.92270  1.0000 -0.0103740421
C   C47       1.0  0.79310  0.37040  0.05730  1.0000 -0.0103740421
C   C48       1.0  0.31310  0.73580  0.94270  1.0000 -0.0103740421
C   C49       1.0  0.19270  0.72860  0.04090  1.0000 -0.1724641383
C   C50       1.0  0.68770  0.15180  0.95910  1.0000 -0.1724641383
C   C51       1.0  0.47860  0.93770  0.03590  1.0000 -0.1724641383
C   C52       1.0  0.90180  0.44270  0.96410  1.0000 -0.1724641383
C   C53       1.0  0.06230  0.52140  0.96410  1.0000 -0.1724641383
C   C54       1.0  0.55730  0.09820  0.03590  1.0000 -0.1724641383
C   C55       1.0  0.84820  0.31230  0.04090  1.0000 -0.1724641383
C   C56       1.0  0.27140  0.80730  0.95910  1.0000 -0.1724641383
C   C57       1.0  0.20940  0.82410  0.11010  1.0000 0.1954100799
C   C58       1.0  0.71400  0.09930  0.88990  1.0000 0.1954100799
C   C59       1.0  0.57410  0.96400  0.11470  1.0000 0.1954100799
C   C60       1.0  0.84930  0.45940  0.88530  1.0000 0.1954100799
C   C61       1.0  0.03600  0.42590  0.88530  1.0000 0.1954100799
C   C62       1.0  0.54060  0.15070  0.11470  1.0000 0.1954100799
C   C63       1.0  0.90070  0.28600  0.11010  1.0000 0.1954100799
C   C64       1.0  0.17590  0.79060  0.88990  1.0000 0.1954100799
C   C65       1.0  0.29680  0.87410  0.19310  1.0000 -0.2392446402
C   C66       1.0  0.68100  0.10370  0.80690  1.0000 -0.2392446402
C   C67       1.0  0.62410  0.93100  0.07730  1.0000 -0.2392446402
C   C68       1.0  0.85370  0.54680  0.92270  1.0000 -0.2392446402
C   C69       1.0  0.06900  0.37590  0.92270  1.0000 -0.2392446402
C   C70       1.0  0.45320  0.14630  0.07730  1.0000 -0.2392446402
C   C71       1.0  0.89630  0.31900  0.19310  1.0000 -0.2392446402
C   C72       1.0  0.12590  0.70320  0.80690  1.0000 -0.2392446402
C   C73       1.0  0.24870  0.58710  0.98420  1.0000 0.5385488715
C   C74       1.0  0.60290  0.26450  0.01580  1.0000 0.5385488715
C   C75       1.0  0.33710  0.85290  0.83840  1.0000 0.5385488715
C   C76       1.0  0.01450  0.49870  0.16160  1.0000 0.5385488715
C   C77       1.0  0.14710  0.66290  0.16160  1.0000 0.5385488715
C   C78       1.0  0.50130  0.98550  0.83840  1.0000 0.5385488715
C   C79       1.0  0.73550  0.39710  0.98420  1.0000 0.5385488715
C   C80       1.0  0.41290  0.75130  0.01580  1.0000 0.5385488715
C   C81       1.0  0.05280  0.83450  0.04610  1.0000 0.1288779788
C   C82       1.0  0.78840  0.00670  0.95390  1.0000 0.1288779788
C   C83       1.0  0.58450  0.03840  0.28170  1.0000 0.1288779788
C   C84       1.0  0.75670  0.30280  0.71830  1.0000 0.1288779788
C   C85       1.0  0.96160  0.41550  0.71830  1.0000 0.1288779788
C   C86       1.0  0.69720  0.24330  0.28170  1.0000 0.1288779788
C   C87       1.0  0.99330  0.21160  0.04610  1.0000 0.1288779788
C   C88       1.0  0.16550  0.94720  0.95390  1.0000 0.1288779788
C   C89       1.0  0.05740  0.97690  0.12750  1.0000 -0.0237852653
C   C90       1.0  0.84940  0.92990  0.87250  1.0000 -0.0237852653
C   C91       1.0  0.72690  0.09940  0.41950  1.0000 -0.0237852653
C   C92       1.0  0.67990  0.30740  0.58050  1.0000 -0.0237852653
C   C93       1.0  0.90060  0.27310  0.58050  1.0000 -0.0237852653
C   C94       1.0  0.69260  0.32010  0.41950  1.0000 -0.0237852653
C   C95       1.0  0.07010  0.15060  0.12750  1.0000 -0.0237852653
C   C96       1.0  0.02310  0.94260  0.87250  1.0000 -0.0237852653
C   C97       1.0  0.13860  0.96050  0.15050  1.0000 -0.0885861855
C   C98       1.0  0.81000  0.98810  0.84950  1.0000 -0.0885861855
C   C99       1.0  0.71050  0.06000  0.32190  1.0000 -0.0885861855
C   C100      1.0  0.73810  0.38860  0.67810  1.0000 -0.0885861855
C   C101      1.0  0.94000  0.28950  0.67810  1.0000 -0.0885861855
C   C102      1.0  0.61140  0.26190  0.32190  1.0000 -0.0885861855
C   C103      1.0  0.01190  0.19000  0.15050  1.0000 -0.0885861855
C   C104      1.0  0.03950  0.86140  0.84950  1.0000 -0.0885861855
N   N1        1.0  0.56570  0.99900  0.40330  1.0000 -0.2657163892
N   N2        1.0  0.59570  0.16240  0.59670  1.0000 -0.2657163892
N   N3        1.0  0.74900  0.84570  0.93330  1.0000 -0.2657163892
N   N4        1.0  0.91240  0.81570  0.06670  1.0000 -0.2657163892
N   N5        1.0  0.15430  0.25100  0.06670  1.0000 -0.2657163892
N   N6        1.0  0.18430  0.08760  0.93330  1.0000 -0.2657163892
N   N7        1.0  0.83760  0.40430  0.40330  1.0000 -0.2657163892
N   N8        1.0  0.00100  0.43430  0.59670  1.0000 -0.2657163892
N   N9        1.0  0.45710  0.88570  0.29020  1.0000 0.0028621634
N   N10       1.0  0.59550  0.16690  0.70980  1.0000 0.0028621634
N   N11       1.0  0.63570  0.84550  0.92860  1.0000 0.0028621634
N   N12       1.0  0.91690  0.70710  0.07140  1.0000 0.0028621634
N   N13       1.0  0.15450  0.36430  0.07140  1.0000 0.0028621634
N   N14       1.0  0.29290  0.08310  0.92860  1.0000 0.0028621634
N   N15       1.0  0.83310  0.40450  0.29020  1.0000 0.0028621634
N   N16       1.0  0.11430  0.54290  0.70980  1.0000 0.0028621634
N   N17       1.0  0.13520  0.87090  0.09990  1.0000 0.0088769381
N   N18       1.0  0.77100  0.03530  0.90010  1.0000 0.0088769381
N   N19       1.0  0.62090  0.02100  0.23570  1.0000 0.0088769381
N   N20       1.0  0.78530  0.38520  0.76430  1.0000 0.0088769381
N   N21       1.0  0.97900  0.37910  0.76430  1.0000 0.0088769381
N   N22       1.0  0.61480  0.21470  0.23570  1.0000 0.0088769381
N   N23       1.0  0.96470  0.22900  0.09990  1.0000 0.0088769381
N   N24       1.0  0.12910  0.86480  0.90010  1.0000 0.0088769381
N   N25       1.0  0.00260  0.89700  0.06040  1.0000 -0.2627668086
N   N26       1.0  0.83660  0.94220  0.93960  1.0000 -0.2627668086
N   N27       1.0  0.64700  0.08660  0.39440  1.0000 -0.2627668086
N   N28       1.0  0.69220  0.25260  0.60560  1.0000 -0.2627668086
N   N29       1.0  0.91340  0.35300  0.60560  1.0000 -0.2627668086
N   N30       1.0  0.74740  0.30780  0.39440  1.0000 -0.2627668086
N   N31       1.0  0.05780  0.16340  0.06040  1.0000 -0.2627668086
N   N32       1.0  0.10300  0.99740  0.93960  1.0000 -0.2627668086
O   O1        1.0  0.31940  0.55540  0.00760  1.0000 -0.4388303388
O   O2        1.0  0.54780  0.31180  0.99240  1.0000 -0.4388303388
O   O3        1.0  0.30540  0.79780  0.73600  1.0000 -0.4388303388
O   O4        1.0  0.06180  0.56940  0.26400  1.0000 -0.4388303388
O   O5        1.0  0.20220  0.69460  0.26400  1.0000 -0.4388303388
O   O6        1.0  0.43060  0.93820  0.73600  1.0000 -0.4388303388
O   O7        1.0  0.68820  0.45220  0.00760  1.0000 -0.4388303388
O   O8        1.0  0.44460  0.68060  0.99240  1.0000 -0.4388303388
O   O9        1.0  0.17250  0.54010  0.90880  1.0000 -0.5012805913
O   O10       1.0  0.63130  0.26370  0.09120  1.0000 -0.5012805913
O   O11       1.0  0.29010  0.88130  0.86760  1.0000 -0.5012805913
O   O12       1.0  0.01370  0.42250  0.13240  1.0000 -0.5012805913
O   O13       1.0  0.11870  0.70990  0.13240  1.0000 -0.5012805913
O   O14       1.0  0.57750  0.98630  0.86760  1.0000 -0.5012805913
O   O15       1.0  0.73630  0.36870  0.90880  1.0000 -0.5012805913
O   O16       1.0  0.45990  0.82750  0.09120  1.0000 -0.5012805913
F   F1        1.0  0.48860  0.15530  0.39010  1.0000 -0.6280230511
F   F2        1.0  0.76520  0.09850  0.60990  1.0000 -0.6280230511
F   F3        1.0  0.90530  0.01520  0.16670  1.0000 -0.6280230511
F   F4        1.0  0.84850  0.73860  0.83330  1.0000 -0.6280230511
F   F5        1.0  0.98480  0.09470  0.83330  1.0000 -0.6280230511
F   F6        1.0  0.26140  0.15150  0.16670  1.0000 -0.6280230511
F   F7        1.0  0.90150  0.23480  0.39010  1.0000 -0.6280230511
F   F8        1.0  0.84470  0.51140  0.60990  1.0000 -0.6280230511
F   F9        1.0  0.37500  0.26340  0.38840  1.0000 -0.6218933467
F   F10       1.0  0.87500  0.98660  0.61160  1.0000 -0.6218933467
F   F11       1.0  0.01340  0.12500  0.38840  1.0000 -0.6218933467
F   F12       1.0  0.73660  0.62500  0.61160  1.0000 -0.6218933467
F   F13       1.0  0.32061  0.09411  0.27990  1.0000 -0.6280230511
F   F14       1.0  0.81421  0.04071  0.72010  1.0000 -0.6280230511
F   F15       1.0  0.84411  0.06421  0.27350  1.0000 -0.6280230511
F   F16       1.0  0.79071  0.57061  0.72650  1.0000 -0.6280230511
F   F17       1.0  0.93579  0.15589  0.72650  1.0000 -0.6280230511
F   F18       1.0  0.42939  0.20929  0.27350  1.0000 -0.6280230511
F   F19       1.0  0.95929  0.18579  0.27990  1.0000 -0.6280230511
F   F20       1.0  0.90589  0.67939  0.72010  1.0000 -0.6280230511
F   F21       1.0  0.37500  0.04180  0.16680  1.0000 -0.6218933467
F   F22       1.0  0.87500  0.20820  0.83320  1.0000 -0.6218933467
F   F23       1.0  0.79180  0.12500  0.16680  1.0000 -0.6218933467
F   F24       1.0  0.95820  0.62500  0.83320  1.0000 -0.6218933467
