# DDEC6 charges by PACMAN v1.1 (https://github.com/mtap-research/PACMAN-charge/)
data_2023[Co][dia]3[FSR]1
_chemical_formula_sum              "Co2 H80 C72 N16 O4"
_cell_length_a       13.8682
_cell_length_b       13.8682
_cell_length_c       21.5234
_cell_angle_alpha    64.3099
_cell_angle_beta     115.69
_cell_angle_gamma    143.361

_symmetry_space_group_name_H-M    "P 1"
_symmetry_Int_Tables_number       1

loop_
  _symmetry_equiv_pos_as_xyz
  'x, y, z'

loop_
  _atom_site_type_symbol
  _atom_site_label
  _atom_site_symmetry_multiplicity
  _atom_site_fract_x
  _atom_site_fract_y
  _atom_site_fract_z
  _atom_site_occupancy
  _atom_site_charge
Co  Co1       1.0  0.69011  0.69011  0.75000  1.0000 0.7335599824
Co  Co2       1.0  0.30989  0.30989  0.25000  1.0000 0.7335599824
H   H1        1.0  0.69477  0.45615  0.88054  1.0000 0.1011501406
H   H2        1.0  0.45615  0.69477  0.61946  1.0000 0.1011501406
H   H3        1.0  0.30523  0.54385  0.11946  1.0000 0.1011501406
H   H4        1.0  0.54385  0.30523  0.38054  1.0000 0.1011501406
H   H5        1.0  0.99364  0.85152  0.68986  1.0000 0.1184694681
H   H6        1.0  0.85152  0.99364  0.81014  1.0000 0.1184694681
H   H7        1.0  0.00636  0.14848  0.31014  1.0000 0.1184694681
H   H8        1.0  0.14848  0.00636  0.18986  1.0000 0.1184694681
H   H9        1.0  0.16408  0.87824  0.66695  1.0000 0.1011501406
H   H10       1.0  0.87824  0.16408  0.83305  1.0000 0.1011501406
H   H11       1.0  0.83592  0.12176  0.33305  1.0000 0.1011501406
H   H12       1.0  0.12176  0.83592  0.16695  1.0000 0.1011501406
H   H13       1.0  0.19720  0.72376  0.73549  1.0000 0.1011501406
H   H14       1.0  0.72376  0.19719  0.76451  1.0000 0.1011501406
H   H15       1.0  0.80280  0.27623  0.26451  1.0000 0.1011501406
H   H16       1.0  0.27624  0.80280  0.23549  1.0000 0.1011501406
H   H17       1.0  0.06468  0.53700  0.83096  1.0000 0.1091784371
H   H18       1.0  0.53700  0.06468  0.66904  1.0000 0.1091784371
H   H19       1.0  0.93532  0.46300  0.16904  1.0000 0.1091784371
H   H20       1.0  0.46300  0.93532  0.33096  1.0000 0.1091784371
H   H21       1.0  0.74362  0.29358  0.94570  1.0000 0.1091784371
H   H22       1.0  0.29358  0.74362  0.55430  1.0000 0.1091784371
H   H23       1.0  0.25638  0.70642  0.05430  1.0000 0.1091784371
H   H24       1.0  0.70642  0.25638  0.44570  1.0000 0.1091784371
H   H25       1.0  0.82759  0.30525  0.90774  1.0000 0.1091784371
H   H26       1.0  0.30525  0.82759  0.59226  1.0000 0.1091784371
H   H27       1.0  0.17241  0.69475  0.09226  1.0000 0.1091784371
H   H28       1.0  0.69475  0.17241  0.40774  1.0000 0.1091784371
H   H29       1.0  0.08630  0.53524  0.96057  1.0000 0.1011501406
H   H30       1.0  0.53524  0.08630  0.53943  1.0000 0.1011501406
H   H31       1.0  0.91370  0.46476  0.03943  1.0000 0.1011501406
H   H32       1.0  0.46476  0.91370  0.46057  1.0000 0.1011501406
H   H33       1.0  0.98200  0.37704  0.01574  1.0000 0.1011501406
H   H34       1.0  0.37704  0.98200  0.48426  1.0000 0.1011501406
H   H35       1.0  0.01800  0.62296  0.98426  1.0000 0.1011501406
H   H36       1.0  0.62296  0.01800  0.51574  1.0000 0.1011501406
H   H37       1.0  0.94523  0.86719  0.49004  1.0000 0.1011501406
H   H38       1.0  0.86719  0.94523  0.00996  1.0000 0.1011501406
H   H39       1.0  0.05477  0.13281  0.50996  1.0000 0.1011501406
H   H40       1.0  0.13281  0.05477  0.99004  1.0000 0.1011501406
H   H41       1.0  0.95413  0.98821  0.42904  1.0000 0.1011501406
H   H42       1.0  0.98821  0.95413  0.07096  1.0000 0.1011501406
H   H43       1.0  0.04587  0.01179  0.57096  1.0000 0.1011501406
H   H44       1.0  0.01179  0.04587  0.92904  1.0000 0.1011501406
H   H45       1.0  0.76369  0.90305  0.46775  1.0000 0.1091784371
H   H46       1.0  0.90305  0.76369  0.03225  1.0000 0.1091784371
H   H47       1.0  0.23631  0.09695  0.53225  1.0000 0.1091784371
H   H48       1.0  0.09695  0.23631  0.96775  1.0000 0.1091784371
H   H49       1.0  0.69755  0.76107  0.44653  1.0000 0.1091784371
H   H50       1.0  0.76107  0.69755  0.05347  1.0000 0.1091784371
H   H51       1.0  0.30245  0.23893  0.55347  1.0000 0.1091784371
H   H52       1.0  0.23893  0.30245  0.94653  1.0000 0.1091784371
H   H53       1.0  0.74785  0.86289  0.58923  1.0000 0.1011501406
H   H54       1.0  0.86289  0.74785  0.91077  1.0000 0.1011501406
H   H55       1.0  0.25215  0.13711  0.41077  1.0000 0.1011501406
H   H56       1.0  0.13711  0.25215  0.08923  1.0000 0.1011501406
H   H57       1.0  0.53640  0.35816  0.72552  1.0000 0.1184694681
H   H58       1.0  0.35816  0.53640  0.77448  1.0000 0.1184694681
H   H59       1.0  0.46360  0.64184  0.27448  1.0000 0.1184694681
H   H60       1.0  0.64184  0.46360  0.22552  1.0000 0.1184694681
H   H61       1.0  0.52111  0.21569  0.68573  1.0000 0.1011501406
H   H62       1.0  0.21569  0.52111  0.81427  1.0000 0.1011501406
H   H63       1.0  0.47889  0.78431  0.31427  1.0000 0.1011501406
H   H64       1.0  0.78431  0.47889  0.18573  1.0000 0.1011501406
H   H65       1.0  0.59358  0.30372  0.58111  1.0000 0.1011501406
H   H66       1.0  0.30372  0.59358  0.91889  1.0000 0.1011501406
H   H67       1.0  0.40642  0.69628  0.41889  1.0000 0.1011501406
H   H68       1.0  0.69628  0.40642  0.08111  1.0000 0.1011501406
H   H69       1.0  0.68004  0.53404  0.50898  1.0000 0.1308965175
H   H70       1.0  0.53404  0.68004  0.99102  1.0000 0.1308965175
H   H71       1.0  0.31996  0.46596  0.49102  1.0000 0.1308965175
H   H72       1.0  0.46596  0.31996  0.00898  1.0000 0.1308965175
H   H73       1.0  0.36011  0.40259  0.71570  1.0000 0.3119297488
H   H74       1.0  0.40259  0.36011  0.78430  1.0000 0.3119297488
H   H75       1.0  0.63989  0.59741  0.28430  1.0000 0.3119297488
H   H76       1.0  0.59741  0.63989  0.21570  1.0000 0.3119297488
H   H77       1.0  0.95611  0.01045  0.71911  1.0000 0.3416174515
H   H78       1.0  0.01045  0.95611  0.78089  1.0000 0.3416174515
H   H79       1.0  0.04389  0.98955  0.28089  1.0000 0.3416174515
H   H80       1.0  0.98955  0.04389  0.21911  1.0000 0.3416174515
C   C1        1.0  0.76976  0.51084  0.85375  1.0000 0.0819224356
C   C2        1.0  0.51084  0.76976  0.64625  1.0000 0.0819224356
C   C3        1.0  0.23024  0.48916  0.14625  1.0000 0.0819224356
C   C4        1.0  0.48916  0.23024  0.35375  1.0000 0.0819224356
C   C5        1.0  0.92426  0.67414  0.77454  1.0000 0.1308965175
C   C6        1.0  0.67414  0.92426  0.72546  1.0000 0.1308965175
C   C7        1.0  0.07574  0.32586  0.22546  1.0000 0.1308965175
C   C8        1.0  0.32586  0.07574  0.27454  1.0000 0.1308965175
C   C9        1.0  0.00621  0.78799  0.71789  1.0000 -0.19091625
C   C10       1.0  0.78799  0.00621  0.78211  1.0000 -0.19091625
C   C11       1.0  0.99379  0.21201  0.28211  1.0000 -0.19091625
C   C12       1.0  0.21201  0.99379  0.21789  1.0000 -0.19091625
C   C13       1.0  0.10810  0.80330  0.70476  1.0000 -0.132117881
C   C14       1.0  0.80330  0.10810  0.79524  1.0000 -0.132117881
C   C15       1.0  0.89190  0.19670  0.29524  1.0000 -0.132117881
C   C16       1.0  0.19670  0.89190  0.20476  1.0000 -0.132117881
C   C17       1.0  0.12851  0.71029  0.74630  1.0000 -0.1210241161
C   C18       1.0  0.71029  0.12851  0.75370  1.0000 -0.1210241161
C   C19       1.0  0.87149  0.28971  0.25370  1.0000 -0.1210241161
C   C20       1.0  0.28971  0.87149  0.24630  1.0000 -0.1210241161
C   C21       1.0  0.05046  0.59914  0.80280  1.0000 -0.2096434073
C   C22       1.0  0.59914  0.05046  0.69720  1.0000 -0.2096434073
C   C23       1.0  0.94954  0.40086  0.19720  1.0000 -0.2096434073
C   C24       1.0  0.40086  0.94954  0.30280  1.0000 -0.2096434073
C   C25       1.0  0.94827  0.58353  0.81621  1.0000 0.0819224356
C   C26       1.0  0.58353  0.94827  0.68379  1.0000 0.0819224356
C   C27       1.0  0.05173  0.41647  0.18379  1.0000 0.0819224356
C   C28       1.0  0.41647  0.05173  0.31621  1.0000 0.0819224356
C   C29       1.0  0.84005  0.36895  0.92531  1.0000 -0.1210241161
C   C30       1.0  0.36895  0.84005  0.57469  1.0000 -0.1210241161
C   C31       1.0  0.15995  0.63105  0.07469  1.0000 -0.1210241161
C   C32       1.0  0.63105  0.15995  0.42531  1.0000 -0.1210241161
C   C33       1.0  0.98965  0.45635  0.98158  1.0000 -0.2190462635
C   C34       1.0  0.45635  0.98965  0.51842  1.0000 -0.2190462635
C   C35       1.0  0.01035  0.54365  0.01842  1.0000 -0.2190462635
C   C36       1.0  0.54365  0.01035  0.48158  1.0000 -0.2190462635
C   C37       1.0  0.93530  0.93550  0.47700  1.0000 -0.2096434073
C   C38       1.0  0.93550  0.93530  0.02300  1.0000 -0.2096434073
C   C39       1.0  0.06470  0.06450  0.52300  1.0000 -0.2096434073
C   C40       1.0  0.06450  0.06470  0.97700  1.0000 -0.2096434073
C   C41       1.0  0.77270  0.83390  0.48080  1.0000 -0.1472348408
C   C42       1.0  0.83390  0.77270  0.01920  1.0000 -0.1472348408
C   C43       1.0  0.22730  0.16610  0.51920  1.0000 -0.1472348408
C   C44       1.0  0.16610  0.22730  0.98080  1.0000 -0.1472348408
C   C45       1.0  0.71544  0.76936  0.59582  1.0000 0.0819224356
C   C46       1.0  0.76936  0.71544  0.90418  1.0000 0.0819224356
C   C47       1.0  0.28456  0.23064  0.40418  1.0000 0.0819224356
C   C48       1.0  0.23064  0.28456  0.09582  1.0000 0.0819224356
C   C49       1.0  0.62713  0.54107  0.64112  1.0000 0.1184694681
C   C50       1.0  0.54107  0.62713  0.85888  1.0000 0.1184694681
C   C51       1.0  0.37287  0.45893  0.35888  1.0000 0.1184694681
C   C52       1.0  0.45893  0.37287  0.14112  1.0000 0.1184694681
C   C53       1.0  0.56779  0.39581  0.68303  1.0000 -0.19091625
C   C54       1.0  0.39581  0.56779  0.81697  1.0000 -0.19091625
C   C55       1.0  0.43221  0.60419  0.31697  1.0000 -0.19091625
C   C56       1.0  0.60419  0.43221  0.18303  1.0000 -0.19091625
C   C57       1.0  0.55800  0.31160  0.65860  1.0000 -0.1472348408
C   C58       1.0  0.31160  0.55800  0.84140  1.0000 -0.1472348408
C   C59       1.0  0.44200  0.68840  0.34140  1.0000 -0.1472348408
C   C60       1.0  0.68840  0.44200  0.15860  1.0000 -0.1472348408
C   C61       1.0  0.60115  0.36465  0.59500  1.0000 -0.1210241161
C   C62       1.0  0.36465  0.60115  0.90500  1.0000 -0.1210241161
C   C63       1.0  0.39885  0.63535  0.40500  1.0000 -0.1210241161
C   C64       1.0  0.63535  0.39885  0.09500  1.0000 -0.1210241161
C   C65       1.0  0.65392  0.50108  0.55220  1.0000 -0.19091625
C   C66       1.0  0.50108  0.65392  0.94780  1.0000 -0.19091625
C   C67       1.0  0.34608  0.49892  0.44780  1.0000 -0.19091625
C   C68       1.0  0.49892  0.34608  0.05220  1.0000 -0.19091625
C   C69       1.0  0.66706  0.58994  0.57659  1.0000 0.0709627284
C   C70       1.0  0.58994  0.66706  0.92341  1.0000 0.0709627284
C   C71       1.0  0.33294  0.41006  0.42341  1.0000 0.0709627284
C   C72       1.0  0.41006  0.33294  0.07659  1.0000 0.0709627284
N   N1        1.0  0.80863  0.62477  0.79904  1.0000 -0.3908492015
N   N2        1.0  0.62477  0.80863  0.70096  1.0000 -0.3908492015
N   N3        1.0  0.19137  0.37523  0.20096  1.0000 -0.3908492015
N   N4        1.0  0.37523  0.19137  0.29904  1.0000 -0.3908492015
N   N5        1.0  0.84989  0.48171  0.86694  1.0000 -0.0222885222
N   N6        1.0  0.48171  0.84989  0.63306  1.0000 -0.0222885222
N   N7        1.0  0.15011  0.51829  0.13306  1.0000 -0.0222885222
N   N8        1.0  0.51829  0.15011  0.36694  1.0000 -0.0222885222
N   N9        1.0  0.66044  0.65816  0.65263  1.0000 -0.3908492015
N   N10       1.0  0.65816  0.66044  0.84737  1.0000 -0.3908492015
N   N11       1.0  0.33956  0.34184  0.34737  1.0000 -0.3908492015
N   N12       1.0  0.34184  0.33956  0.15263  1.0000 -0.3908492015
N   N13       1.0  0.72017  0.73523  0.54862  1.0000 -0.0222885222
N   N14       1.0  0.73523  0.72017  0.95138  1.0000 -0.0222885222
N   N15       1.0  0.27983  0.26477  0.45138  1.0000 -0.0222885222
N   N16       1.0  0.26477  0.27983  0.04862  1.0000 -0.0222885222
O   O1        1.0  0.43690  0.43690  0.75000  1.0000 -0.6810150282
O   O2        1.0  0.56310  0.56310  0.25000  1.0000 -0.6810150282
O   O3        1.0  0.93160  0.93160  0.75000  1.0000 -0.688255115
O   O4        1.0  0.06840  0.06840  0.25000  1.0000 -0.688255115
