# DDEC6 charges by PACMAN v1.1 (https://github.com/mtap-research/PACMAN-charge/)
data_2023[Cd][nan]3[FSR]4
_chemical_formula_sum              "Cd2 H40 C50 N12 O12"
_cell_length_a       10.6117
_cell_length_b       12.0498
_cell_length_c       13.7644
_cell_angle_alpha    77.307
_cell_angle_beta     68.498
_cell_angle_gamma    66.081

_symmetry_space_group_name_H-M    "P 1"
_symmetry_Int_Tables_number       1

loop_
  _symmetry_equiv_pos_as_xyz
  'x, y, z'

loop_
  _atom_site_type_symbol
  _atom_site_label
  _atom_site_symmetry_multiplicity
  _atom_site_fract_x
  _atom_site_fract_y
  _atom_site_fract_z
  _atom_site_occupancy
  _atom_site_charge
Cd  Cd1       1.0  0.90836  0.21228  0.21989  1.0000 0.8117531514
Cd  Cd2       1.0  0.09164  0.78772  0.78011  1.0000 0.8117531514
H   H1        1.0  0.59813  0.44683  0.31357  1.0000 0.1175244605
H   H2        1.0  0.40187  0.55317  0.68643  1.0000 0.1175244605
H   H3        1.0  0.26017  0.67950  0.53786  1.0000 0.1114519289
H   H4        1.0  0.73983  0.32050  0.46214  1.0000 0.1114519289
H   H5        1.0  0.40445  0.65122  0.37263  1.0000 0.1298387697
H   H6        1.0  0.59555  0.34878  0.62737  1.0000 0.1298387697
H   H7        1.0  0.03852  0.82403  0.29066  1.0000 0.1523013985
H   H8        1.0  0.96148  0.17597  0.70934  1.0000 0.1523013985
H   H9        1.0  0.54100  0.15755  0.53768  1.0000 0.1114519289
H   H10       1.0  0.45900  0.84245  0.46232  1.0000 0.1114519289
H   H11       1.0  0.90103  0.47263  0.05167  1.0000 0.1298387697
H   H12       1.0  0.09897  0.52737  0.94833  1.0000 0.1298387697
H   H13       1.0  0.68058  0.64608  0.04292  1.0000 0.1374324554
H   H14       1.0  0.31942  0.35392  0.95708  1.0000 0.1374324554
H   H15       1.0  0.28917  0.70894  0.96314  1.0000 0.1114519289
H   H16       1.0  0.71083  0.29106  0.03686  1.0000 0.1114519289
H   H17       1.0  0.41655  0.66178  0.07436  1.0000 0.1374324554
H   H18       1.0  0.58345  0.33822  0.92564  1.0000 0.1374324554
H   H19       1.0  0.31304  0.93251  0.03422  1.0000 0.1175244605
H   H20       1.0  0.68696  0.06749  0.96578  1.0000 0.1175244605
H   H21       1.0  0.36630  0.24631  0.68053  1.0000 0.1114519289
H   H22       1.0  0.63370  0.75369  0.31947  1.0000 0.1114519289
H   H23       1.0  0.48305  0.13895  0.72340  1.0000 0.1114519289
H   H24       1.0  0.51695  0.86105  0.27660  1.0000 0.1114519289
H   H25       1.0  0.32331  0.19196  0.79716  1.0000 0.1298387697
H   H26       1.0  0.67669  0.80804  0.20284  1.0000 0.1298387697
H   H27       1.0  0.65099  0.81733  0.77655  1.0000 0.1175244605
H   H28       1.0  0.34901  0.18267  0.22345  1.0000 0.1175244605
H   H29       1.0  0.48496  0.85316  0.79509  1.0000 0.1175244605
H   H30       1.0  0.51504  0.14684  0.20491  1.0000 0.1175244605
H   H31       1.0  0.58604  0.71558  0.79571  1.0000 0.1298387697
H   H32       1.0  0.41396  0.28442  0.20429  1.0000 0.1298387697
H   H33       1.0  0.86077  0.89397  0.63330  1.0000 0.1298387697
H   H34       1.0  0.13923  0.10603  0.36670  1.0000 0.1298387697
H   H35       1.0  0.93275  0.89121  0.17347  1.0000 0.1374324554
H   H36       1.0  0.06725  0.10879  0.82653  1.0000 0.1374324554
H   H37       1.0  0.92437  0.89215  0.44520  1.0000 0.1374324554
H   H38       1.0  0.07563  0.10785  0.55480  1.0000 0.1374324554
H   H39       1.0  0.88460  0.91159  0.00971  1.0000 0.1175244605
H   H40       1.0  0.11540  0.08841  0.99029  1.0000 0.1175244605
C   C1        1.0  0.20470  0.13180  0.12442  1.0000 0.5403886413
C   C2        1.0  0.79530  0.86820  0.87558  1.0000 0.5403886413
C   C3        1.0  0.64640  0.47420  0.24732  1.0000 0.0838454267
C   C4        1.0  0.35360  0.52580  0.75268  1.0000 0.0838454267
C   C5        1.0  0.70530  0.10310  0.34742  1.0000 0.5551485991
C   C6        1.0  0.29470  0.89690  0.65258  1.0000 0.5545781826
C   C7        1.0  0.60030  0.04710  0.42555  1.0000 -0.1027395079
C   C8        1.0  0.39970  0.95290  0.57445  1.0000 -0.1027395079
C   C9        1.0  0.36030  0.06520  0.06329  1.0000 -0.1059326479
C   C10       1.0  0.63970  0.93480  0.93671  1.0000 -0.1059326479
C   C11       1.0  0.20840  0.74104  0.34777  1.0000 0.2090595787
C   C12       1.0  0.79160  0.25896  0.65223  1.0000 0.2090595787
C   C13       1.0  0.16800  0.73390  0.53817  1.0000 0.0967686822
C   C14       1.0  0.83200  0.26610  0.46183  1.0000 0.0967686822
C   C15       1.0  0.21640  0.74861  0.17067  1.0000 0.2090595787
C   C16       1.0  0.78360  0.25139  0.82933  1.0000 0.2090595787
C   C17       1.0  0.35720  0.67519  0.32224  1.0000 -0.3032522822
C   C18       1.0  0.64280  0.32481  0.67776  1.0000 -0.3032522822
C   C19       1.0  0.13750  0.77896  0.27277  1.0000 -0.2396687021
C   C20       1.0  0.86250  0.22104  0.72723  1.0000 -0.2396687021
C   C21       1.0  0.52430  0.09410  0.52257  1.0000 -0.2542384887
C   C22       1.0  0.47570  0.90590  0.47743  1.0000 -0.2542384887
C   C23       1.0  0.81140  0.48910  0.10350  1.0000 -0.0289358077
C   C24       1.0  0.18860  0.51090  0.89650  1.0000 -0.0289358077
C   C25       1.0  0.42360  0.04810  0.59762  1.0000 0.1982232382
C   C26       1.0  0.57640  0.95190  0.40238  1.0000 0.1982232382
C   C27       1.0  0.52520  0.89546  0.95789  1.0000 0.1818141615
C   C28       1.0  0.47480  0.10454  0.04211  1.0000 0.1818141615
C   C29       1.0  0.69040  0.58580  0.09787  1.0000 -0.1027395079
C   C30       1.0  0.30960  0.41420  0.90213  1.0000 -0.1027395079
C   C31       1.0  0.43270  0.64655  0.21920  1.0000 0.2090595787
C   C32       1.0  0.56730  0.35345  0.78080  1.0000 0.2090595787
C   C33       1.0  0.19360  0.75710  0.99472  1.0000 0.0967686822
C   C34       1.0  0.80640  0.24290  0.00528  1.0000 0.0967686822
C   C35       1.0  0.36430  0.68211  0.14288  1.0000 -0.2728531907
C   C36       1.0  0.63570  0.31789  0.85712  1.0000 -0.2728531907
C   C37       1.0  0.38840  0.96020  0.02044  1.0000 -0.2396687021
C   C38       1.0  0.61160  0.03980  0.97956  1.0000 -0.2396687021
C   C39       1.0  0.38280  0.17320  0.72670  1.0000 -0.2396687021
C   C40       1.0  0.61720  0.82680  0.27330  1.0000 -0.2396687021
C   C41       1.0  0.56780  0.79440  0.81380  1.0000 -0.2172800178
C   C42       1.0  0.43220  0.20560  0.18620  1.0000 -0.2172800178
C   C43       1.0  0.95140  0.85060  0.58970  1.0000 -0.0289358077
C   C44       1.0  0.04860  0.14940  0.41030  1.0000 -0.0289358077
C   C45       1.0  0.99890  0.85700  0.11180  1.0000 -0.0896532709
C   C46       1.0  0.00110  0.14300  0.88820  1.0000 -0.0896532709
C   C47       1.0  0.98490  0.84920  0.48610  1.0000 -0.1027395079
C   C48       1.0  0.01510  0.15080  0.51390  1.0000 -0.1027395079
C   C49       1.0  0.97370  0.86720  0.02090  1.0000 -0.0289358077
C   C50       1.0  0.02630  0.13280  0.97910  1.0000 -0.0289358077
N   N1        1.0  0.58410  0.57586  0.19163  1.0000 -0.0015612305
N   N2        1.0  0.41590  0.42414  0.80837  1.0000 -0.0015612305
N   N3        1.0  0.06700  0.78075  0.62178  1.0000 -0.2609466488
N   N4        1.0  0.93300  0.21925  0.37822  1.0000 -0.2609466488
N   N5        1.0  0.78368  0.41880  0.19620  1.0000 -0.2856042559
N   N6        1.0  0.21632  0.58120  0.80380  1.0000 -0.2856042559
N   N7        1.0  0.12560  0.77194  0.45251  1.0000 0.0032801549
N   N8        1.0  0.87440  0.22806  0.54749  1.0000 0.0032801549
N   N9        1.0  0.14170  0.78590  0.09490  1.0000 -0.0015612305
N   N10       1.0  0.85830  0.21410  0.90510  1.0000 0.0032801549
N   N11       1.0  0.09550  0.80410  0.94719  1.0000 -0.2728531907
N   N12       1.0  0.90450  0.19590  0.05281  1.0000 -0.2728531907
O   O1        1.0  0.13415  0.06530  0.17931  1.0000 -0.5410528605
O   O2        1.0  0.86585  0.93470  0.82069  1.0000 -0.5410528605
O   O3        1.0  0.65968  0.21843  0.33171  1.0000 -0.5852732683
O   O4        1.0  0.34032  0.78157  0.66829  1.0000 -0.5852732683
O   O5        1.0  0.83197  0.03824  0.30333  1.0000 -0.5344883228
O   O6        1.0  0.16803  0.96176  0.69667  1.0000 -0.5344883228
O   O7        1.0  0.15167  0.24443  0.11441  1.0000 -0.5344883228
O   O8        1.0  0.84833  0.75557  0.88559  1.0000 -0.5410528605
O   O9        1.0  0.54071  0.79032  0.92208  1.0000 -0.166790689
O   O10       1.0  0.45929  0.20968  0.07792  1.0000 -0.166790689
O   O11       1.0  0.34680  0.08800  0.69579  1.0000 -0.1482677335
O   O12       1.0  0.65320  0.91200  0.30421  1.0000 -0.1482677335
