# DDEC6 charges by PACMAN v1.1 (https://github.com/mtap-research/PACMAN-charge/)
data_2023[Ni][sql]2[FSR]2
_chemical_formula_sum              "Ni1 H30 C36 N4 O10"
_cell_length_a       9.1682
_cell_length_b       11.0784
_cell_length_c       11.5024
_cell_angle_alpha    106.76
_cell_angle_beta     100.147
_cell_angle_gamma    98.203

_symmetry_space_group_name_H-M    "P 1"
_symmetry_Int_Tables_number       1

loop_
  _symmetry_equiv_pos_as_xyz
  'x, y, z'

loop_
  _atom_site_type_symbol
  _atom_site_label
  _atom_site_symmetry_multiplicity
  _atom_site_fract_x
  _atom_site_fract_y
  _atom_site_fract_z
  _atom_site_occupancy
  _atom_site_charge
Ni  Ni1       1.0  0.50000  0.50000  0.00000  1.0000 0.7994759009
H   H1        1.0  0.58300  0.30600  0.87790  1.0000 0.357598953
H   H2        1.0  0.41700  0.69400  0.12210  1.0000 0.357598953
H   H3        1.0  0.51500  0.25460  0.95700  1.0000 0.3396224306
H   H4        1.0  0.48500  0.74540  0.04300  1.0000 0.3396224306
H   H5        1.0  0.69053  0.26473  0.65300  1.0000 0.357598953
H   H6        1.0  0.30947  0.73527  0.34700  1.0000 0.357598953
H   H7        1.0  0.82194  0.05361  0.45274  1.0000 0.1206422468
H   H8        1.0  0.17806  0.94639  0.54726  1.0000 0.1206422468
H   H9        1.0  0.84824  0.86156  0.32199  1.0000 0.1105957069
H   H10       1.0  0.15176  0.13844  0.67801  1.0000 0.1105957069
H   H11       1.0  0.73250  0.66746  0.33749  1.0000 0.1105957069
H   H12       1.0  0.26750  0.33254  0.66251  1.0000 0.1105957069
H   H13       1.0  0.57466  0.85900  0.62274  1.0000 0.1206422468
H   H14       1.0  0.42534  0.14100  0.37726  1.0000 0.1206422468
H   H15       1.0  0.36653  0.33481  0.32366  1.0000 0.1206422468
H   H16       1.0  0.63347  0.66519  0.67634  1.0000 0.1206422468
H   H17       1.0  0.24617  0.29577  0.04010  1.0000 0.1105957069
H   H18       1.0  0.75383  0.70423  0.95990  1.0000 0.1105957069
H   H19       1.0  0.17951  0.50877  0.82590  1.0000 0.126687795
H   H20       1.0  0.82049  0.49123  0.17410  1.0000 0.126687795
H   H21       1.0  0.93088  0.40052  0.83170  1.0000 0.13554471
H   H22       1.0  0.06912  0.59948  0.16830  1.0000 0.13554471
H   H23       1.0  0.83500  0.22830  0.93024  1.0000 0.126687795
H   H24       1.0  0.16500  0.77170  0.06976  1.0000 0.126687795
H   H25       1.0  0.92361  0.29539  0.06945  1.0000 0.1206422468
H   H26       1.0  0.07639  0.70461  0.93055  1.0000 0.1206422468
H   H27       1.0  0.02080  0.16607  0.18023  1.0000 0.126687795
H   H28       1.0  0.97920  0.83393  0.81977  1.0000 0.126687795
H   H29       1.0  0.07361  0.97227  0.19075  1.0000 0.126687795
H   H30       1.0  0.92639  0.02773  0.80925  1.0000 0.126687795
C   C1        1.0  0.67350  0.09860  0.63690  1.0000 0.5392954276
C   C2        1.0  0.32650  0.90140  0.36310  1.0000 0.5392954276
C   C3        1.0  0.69600  0.97690  0.55150  1.0000 -0.039934296
C   C4        1.0  0.30400  0.02310  0.44850  1.0000 -0.039934296
C   C5        1.0  0.77740  0.97630  0.46040  1.0000 -0.1071374192
C   C6        1.0  0.22260  0.02370  0.53960  1.0000 -0.1071374192
C   C7        1.0  0.79210  0.86170  0.38200  1.0000 -0.0902532636
C   C8        1.0  0.20790  0.13830  0.61800  1.0000 -0.0902532636
C   C9        1.0  0.72380  0.74550  0.39130  1.0000 -0.1260069384
C   C10       1.0  0.27620  0.25450  0.60870  1.0000 -0.1260069384
C   C11       1.0  0.64370  0.74860  0.48128  1.0000 0.0662242697
C   C12       1.0  0.35630  0.25140  0.51872  1.0000 0.0662242697
C   C13       1.0  0.62880  0.86010  0.56170  1.0000 -0.1410172692
C   C14       1.0  0.37120  0.13990  0.43830  1.0000 -0.1410172692
C   C15       1.0  0.56460  0.61950  0.48970  1.0000 0.0638630168
C   C16       1.0  0.43540  0.38050  0.51030  1.0000 0.0638630168
C   C17       1.0  0.48140  0.51800  0.38336  1.0000 -0.0575296282
C   C18       1.0  0.51860  0.48200  0.61664  1.0000 -0.0575296282
C   C19       1.0  0.42000  0.40140  0.39510  1.0000 -0.1701525747
C   C20       1.0  0.58000  0.59860  0.60490  1.0000 -0.1701525747
C   C21       1.0  0.44600  0.53610  0.25665  1.0000 0.56540256
C   C22       1.0  0.55400  0.46390  0.74335  1.0000 0.56540256
C   C23       1.0  0.19950  0.33580  0.98740  1.0000 0.0889631176
C   C24       1.0  0.80050  0.66420  0.01260  1.0000 0.0889631176
C   C25       1.0  0.16190  0.45220  0.87030  1.0000 -0.039934296
C   C26       1.0  0.83810  0.54780  0.12970  1.0000 -0.039934296
C   C27       1.0  0.02410  0.39240  0.87260  1.0000 -0.1025311871
C   C28       1.0  0.97590  0.60760  0.12740  1.0000 -0.1025311871
C   C29       1.0  0.93200  0.24420  0.98780  1.0000 -0.1701525747
C   C30       1.0  0.06800  0.75580  0.01220  1.0000 -0.1701525747
C   C31       1.0  0.96820  0.11740  0.99420  1.0000 0.0889631176
C   C32       1.0  0.03180  0.88260  0.00580  1.0000 0.0889631176
C   C33       1.0  0.01220  0.09920  0.10700  1.0000 -0.1509378849
C   C34       1.0  0.98780  0.90080  0.89300  1.0000 -0.1509378849
C   C35       1.0  0.04390  0.98300  0.11340  1.0000 -0.1410172692
C   C36       1.0  0.95610  0.01700  0.88660  1.0000 -0.1410172692
N   N1        1.0  0.27240  0.41702  0.94366  1.0000 -0.2915465607
N   N2        1.0  0.72760  0.58298  0.05634  1.0000 -0.2915465607
N   N3        1.0  0.04860  0.31760  0.94670  1.0000 0.0403866434
N   N4        1.0  0.95140  0.68240  0.05330  1.0000 0.0403866434
O   O1        1.0  0.50522  0.47443  0.17436  1.0000 -0.5452452972
O   O2        1.0  0.49478  0.52557  0.82564  1.0000 -0.5452452972
O   O3        1.0  0.56560  0.32169  0.95015  1.0000 -0.657253988
O   O4        1.0  0.43440  0.67831  0.04985  1.0000 -0.657253988
O   O5        1.0  0.35750  0.60965  0.24226  1.0000 -0.5575872733
O   O6        1.0  0.64250  0.39035  0.75774  1.0000 -0.5575872733
O   O7        1.0  0.61850  0.10200  0.72560  1.0000 -0.5049371793
O   O8        1.0  0.38150  0.89800  0.27440  1.0000 -0.5049371793
O   O9        1.0  0.71740  0.20128  0.60613  1.0000 -0.4711335375
O   O10       1.0  0.28260  0.79872  0.39387  1.0000 -0.4711335375
