# DDEC6 charges by PACMAN v1.1 (https://github.com/mtap-research/PACMAN-charge/)
data_2023[Co][sql]2[FSR]3
_chemical_formula_sum              "Co4 H52 C76 N20 O16"
_cell_length_a       9.9668
_cell_length_b       13.7306
_cell_length_c       16.2107
_cell_angle_alpha    90
_cell_angle_beta     101.342
_cell_angle_gamma    90

_symmetry_space_group_name_H-M    "P 1"
_symmetry_Int_Tables_number       1

loop_
  _symmetry_equiv_pos_as_xyz
  'x, y, z'

loop_
  _atom_site_type_symbol
  _atom_site_label
  _atom_site_symmetry_multiplicity
  _atom_site_fract_x
  _atom_site_fract_y
  _atom_site_fract_z
  _atom_site_occupancy
  _atom_site_charge
Co  Co1       1.0  0.12830  0.48763  0.91976  1.0000 0.8638342595
Co  Co2       1.0  0.87170  0.51237  0.08024  1.0000 0.8638342595
Co  Co3       1.0  0.87170  0.98763  0.58024  1.0000 0.8638342595
Co  Co4       1.0  0.12830  0.01237  0.41976  1.0000 0.8638342595
H   H1        1.0  0.40930  0.52950  0.08260  1.0000 0.1301008638
H   H2        1.0  0.59070  0.47050  0.91740  1.0000 0.1301008638
H   H3        1.0  0.64010  0.52280  0.31560  1.0000 0.1104572376
H   H4        1.0  0.35990  0.47720  0.68440  1.0000 0.1104572376
H   H5        1.0  0.44460  0.53110  0.37250  1.0000 0.1104572376
H   H6        1.0  0.55540  0.46890  0.62750  1.0000 0.1104572376
H   H7        1.0  0.23190  0.54210  0.28450  1.0000 0.1019450737
H   H8        1.0  0.76810  0.45790  0.71550  1.0000 0.1019450737
H   H9        1.0  0.33820  0.35170  0.05390  1.0000 0.1301008638
H   H10       1.0  0.66180  0.64830  0.94610  1.0000 0.1301008638
H   H11       1.0  0.33830  0.17440  0.06290  1.0000 0.1301008638
H   H12       1.0  0.66170  0.82560  0.93710  1.0000 0.1301008638
H   H13       1.0  0.94510  0.10620  0.87760  1.0000 0.1380216952
H   H14       1.0  0.05490  0.89380  0.12240  1.0000 0.1380216952
H   H15       1.0  0.90450  0.94330  0.83900  1.0000 0.1380216952
H   H16       1.0  0.09550  0.05670  0.16100  1.0000 0.1380216952
H   H17       1.0  0.27040  0.87520  0.97680  1.0000 0.1104572376
H   H18       1.0  0.72960  0.12480  0.02320  1.0000 0.1104572376
H   H19       1.0  0.94030  0.79960  0.76120  1.0000 0.1380216952
H   H20       1.0  0.05970  0.20040  0.23880  1.0000 0.1380216952
H   H21       1.0  0.95640  0.62200  0.76540  1.0000 0.1203973418
H   H22       1.0  0.04360  0.37800  0.23460  1.0000 0.1203973418
H   H23       1.0  0.17360  0.71630  0.97720  1.0000 0.1104572376
H   H24       1.0  0.82640  0.28370  0.02280  1.0000 0.1104572376
H   H25       1.0  0.02670  0.26030  0.88860  1.0000 0.1104572376
H   H26       1.0  0.97330  0.73970  0.11140  1.0000 0.1104572376
H   H27       1.0  0.59070  0.02950  0.41740  1.0000 0.1301008638
H   H28       1.0  0.40930  0.97050  0.58260  1.0000 0.1301008638
H   H29       1.0  0.35990  0.02280  0.18440  1.0000 0.1104572376
H   H30       1.0  0.64010  0.97720  0.81560  1.0000 0.1104572376
H   H31       1.0  0.55540  0.03110  0.12750  1.0000 0.1104572376
H   H32       1.0  0.44460  0.96890  0.87250  1.0000 0.1104572376
H   H33       1.0  0.76810  0.04210  0.21550  1.0000 0.1019450737
H   H34       1.0  0.23190  0.95790  0.78450  1.0000 0.1019450737
H   H35       1.0  0.66180  0.85170  0.44610  1.0000 0.1301008638
H   H36       1.0  0.33820  0.14830  0.55390  1.0000 0.1301008638
H   H37       1.0  0.66170  0.67440  0.43710  1.0000 0.1301008638
H   H38       1.0  0.33830  0.32560  0.56290  1.0000 0.1301008638
H   H39       1.0  0.05490  0.60620  0.62240  1.0000 0.1380216952
H   H40       1.0  0.94510  0.39380  0.37760  1.0000 0.1380216952
H   H41       1.0  0.09550  0.44330  0.66100  1.0000 0.1380216952
H   H42       1.0  0.90450  0.55670  0.33900  1.0000 0.1380216952
H   H43       1.0  0.72960  0.37520  0.52320  1.0000 0.1104572376
H   H44       1.0  0.27040  0.62480  0.47680  1.0000 0.1104572376
H   H45       1.0  0.05970  0.29960  0.73880  1.0000 0.1380216952
H   H46       1.0  0.94030  0.70040  0.26120  1.0000 0.1380216952
H   H47       1.0  0.04360  0.12200  0.73460  1.0000 0.1203973418
H   H48       1.0  0.95640  0.87800  0.26540  1.0000 0.1203973418
H   H49       1.0  0.82640  0.21630  0.52280  1.0000 0.1104572376
H   H50       1.0  0.17360  0.78370  0.47720  1.0000 0.1104572376
H   H51       1.0  0.97330  0.76030  0.61140  1.0000 0.1104572376
H   H52       1.0  0.02670  0.23970  0.38860  1.0000 0.1104572376
C   C1        1.0  0.16004  0.54096  0.11759  1.0000 0.5625647878
C   C2        1.0  0.83996  0.45904  0.88241  1.0000 0.5625647878
C   C3        1.0  0.29874  0.53756  0.17477  1.0000 -0.0250535818
C   C4        1.0  0.70126  0.46244  0.82523  1.0000 -0.0250535818
C   C5        1.0  0.41632  0.53075  0.14067  1.0000 -0.1236627946
C   C6        1.0  0.58368  0.46925  0.85933  1.0000 -0.1236627946
C   C7        1.0  0.54450  0.52576  0.19382  1.0000 -0.0023425217
C   C8        1.0  0.45550  0.47424  0.80618  1.0000 -0.0023425217
C   C9        1.0  0.67090  0.52067  0.15598  1.0000 0.5314640975
C   C10       1.0  0.32910  0.47933  0.84402  1.0000 0.5314640975
C   C11       1.0  0.55460  0.52620  0.28026  1.0000 -0.1119538049
C   C12       1.0  0.44540  0.47380  0.71974  1.0000 -0.1119538049
C   C13       1.0  0.43760  0.53160  0.31445  1.0000 -0.1008593868
C   C14       1.0  0.56240  0.46840  0.68555  1.0000 -0.1008593868
C   C15       1.0  0.31020  0.53780  0.26163  1.0000 -0.1119538049
C   C16       1.0  0.68980  0.46220  0.73837  1.0000 -0.1119538049
C   C17       1.0  0.27470  0.31080  0.02130  1.0000 -0.0134477751
C   C18       1.0  0.72530  0.68920  0.97870  1.0000 -0.0134477751
C   C19       1.0  0.27590  0.21260  0.02660  1.0000 -0.0944829309
C   C20       1.0  0.72410  0.78740  0.97340  1.0000 -0.0944829309
C   C21       1.0  0.13410  0.08210  0.94680  1.0000 0.2737183845
C   C22       1.0  0.86590  0.91790  0.05320  1.0000 0.2737183845
C   C23       1.0  0.01040  0.05852  0.89617  1.0000 -0.2117840448
C   C24       1.0  0.98960  0.94148  0.10383  1.0000 -0.2117840448
C   C25       1.0  0.98610  0.96194  0.87380  1.0000 -0.1008593868
C   C26       1.0  0.01390  0.03806  0.12620  1.0000 -0.1008593868
C   C27       1.0  0.08590  0.89352  0.90440  1.0000 0.0898278666
C   C28       1.0  0.91410  0.10648  0.09560  1.0000 0.0898278666
C   C29       1.0  0.20510  0.92202  0.95598  1.0000 -0.0207077587
C   C30       1.0  0.79490  0.07798  0.04402  1.0000 -0.0207077587
C   C31       1.0  0.98890  0.76191  0.80475  1.0000 -0.1008593868
C   C32       1.0  0.01110  0.23809  0.19525  1.0000 -0.1008593868
C   C33       1.0  0.99860  0.66385  0.80776  1.0000 -0.0250535818
C   C34       1.0  0.00140  0.33615  0.19224  1.0000 -0.0250535818
C   C35       1.0  0.11790  0.71448  0.92396  1.0000 0.1019450737
C   C36       1.0  0.88210  0.28552  0.07604  1.0000 0.1019450737
C   C37       1.0  0.10470  0.26150  0.93085  1.0000 0.0898278666
C   C38       1.0  0.89530  0.73850  0.06915  1.0000 0.0898278666
C   C39       1.0  0.83996  0.04096  0.38241  1.0000 0.5625647878
C   C40       1.0  0.16004  0.95904  0.61759  1.0000 0.5625647878
C   C41       1.0  0.70126  0.03756  0.32523  1.0000 -0.0250535818
C   C42       1.0  0.29874  0.96244  0.67477  1.0000 -0.0250535818
C   C43       1.0  0.58368  0.03075  0.35933  1.0000 -0.1236627946
C   C44       1.0  0.41632  0.96925  0.64067  1.0000 -0.1236627946
C   C45       1.0  0.45550  0.02576  0.30618  1.0000 -0.0023425217
C   C46       1.0  0.54450  0.97424  0.69382  1.0000 -0.0023425217
C   C47       1.0  0.32910  0.02067  0.34402  1.0000 0.5314640975
C   C48       1.0  0.67090  0.97933  0.65598  1.0000 0.5314640975
C   C49       1.0  0.44540  0.02620  0.21974  1.0000 -0.1119538049
C   C50       1.0  0.55460  0.97380  0.78026  1.0000 -0.1119538049
C   C51       1.0  0.56240  0.03160  0.18555  1.0000 -0.1008593868
C   C52       1.0  0.43760  0.96840  0.81445  1.0000 -0.1008593868
C   C53       1.0  0.68980  0.03780  0.23837  1.0000 -0.1119538049
C   C54       1.0  0.31020  0.96220  0.76163  1.0000 -0.1119538049
C   C55       1.0  0.72530  0.81080  0.47870  1.0000 -0.0134477751
C   C56       1.0  0.27470  0.18920  0.52130  1.0000 -0.0134477751
C   C57       1.0  0.72410  0.71260  0.47340  1.0000 -0.0944829309
C   C58       1.0  0.27590  0.28740  0.52660  1.0000 -0.0944829309
C   C59       1.0  0.86590  0.58210  0.55320  1.0000 0.2737183845
C   C60       1.0  0.13410  0.41790  0.44680  1.0000 0.2737183845
C   C61       1.0  0.98960  0.55852  0.60383  1.0000 -0.2117840448
C   C62       1.0  0.01040  0.44148  0.39617  1.0000 -0.2117840448
C   C63       1.0  0.01390  0.46194  0.62620  1.0000 -0.1008593868
C   C64       1.0  0.98610  0.53806  0.37380  1.0000 -0.1008593868
C   C65       1.0  0.91410  0.39352  0.59560  1.0000 0.0898278666
C   C66       1.0  0.08590  0.60648  0.40440  1.0000 0.0898278666
C   C67       1.0  0.79490  0.42202  0.54402  1.0000 -0.0207077587
C   C68       1.0  0.20510  0.57798  0.45598  1.0000 -0.0207077587
C   C69       1.0  0.01110  0.26191  0.69525  1.0000 -0.1008593868
C   C70       1.0  0.98890  0.73809  0.30475  1.0000 -0.1008593868
C   C71       1.0  0.00140  0.16385  0.69224  1.0000 -0.0250535818
C   C72       1.0  0.99860  0.83615  0.30776  1.0000 -0.0250535818
C   C73       1.0  0.88210  0.21448  0.57604  1.0000 0.1019450737
C   C74       1.0  0.11790  0.78552  0.42396  1.0000 0.1019450737
C   C75       1.0  0.89530  0.76150  0.56915  1.0000 0.0898278666
C   C76       1.0  0.10470  0.23850  0.43085  1.0000 0.0898278666
N   N1        1.0  0.16720  0.34138  0.96138  1.0000 -0.2728551949
N   N2        1.0  0.83280  0.65862  0.03862  1.0000 -0.2728551949
N   N3        1.0  0.16760  0.18061  0.96836  1.0000 -0.0207077587
N   N4        1.0  0.83240  0.81939  0.03164  1.0000 -0.0207077587
N   N5        1.0  0.23060  0.01601  0.97749  1.0000 -0.3013287807
N   N6        1.0  0.76940  0.98399  0.02251  1.0000 -0.3013287807
N   N7        1.0  0.06615  0.79445  0.87982  1.0000 0.0061080655
N   N8        1.0  0.93385  0.20555  0.12018  1.0000 0.0061080655
N   N9        1.0  0.07936  0.63453  0.88218  1.0000 -0.2728551949
N   N10       1.0  0.92064  0.36547  0.11782  1.0000 -0.2728551949
N   N11       1.0  0.83280  0.84138  0.53862  1.0000 -0.2728551949
N   N12       1.0  0.16720  0.15862  0.46138  1.0000 -0.2728551949
N   N13       1.0  0.83240  0.68061  0.53164  1.0000 -0.0207077587
N   N14       1.0  0.16760  0.31939  0.46836  1.0000 -0.0207077587
N   N15       1.0  0.76940  0.51601  0.52251  1.0000 -0.3013287807
N   N16       1.0  0.23060  0.48399  0.47749  1.0000 -0.3013287807
N   N17       1.0  0.93385  0.29445  0.62018  1.0000 0.0061080655
N   N18       1.0  0.06615  0.70555  0.37982  1.0000 0.0061080655
N   N19       1.0  0.92064  0.13453  0.61782  1.0000 -0.2728551949
N   N20       1.0  0.07936  0.86547  0.38218  1.0000 -0.2728551949
O   O1        1.0  0.15412  0.53255  0.04078  1.0000 -0.5591378683
O   O2        1.0  0.84588  0.46745  0.95922  1.0000 -0.5591378683
O   O3        1.0  0.05769  0.55068  0.15152  1.0000 -0.5478792811
O   O4        1.0  0.94231  0.44932  0.84848  1.0000 -0.5478792811
O   O5        1.0  0.78357  0.54534  0.19866  1.0000 -0.5591378683
O   O6        1.0  0.21643  0.45466  0.80134  1.0000 -0.5591378683
O   O7        1.0  0.65993  0.49238  0.08163  1.0000 -0.521363976
O   O8        1.0  0.34007  0.50762  0.91837  1.0000 -0.521363976
O   O9        1.0  0.84588  0.03255  0.45922  1.0000 -0.5591378683
O   O10       1.0  0.15412  0.96745  0.54078  1.0000 -0.5591378683
O   O11       1.0  0.94231  0.05068  0.34848  1.0000 -0.5478792811
O   O12       1.0  0.05769  0.94932  0.65152  1.0000 -0.5478792811
O   O13       1.0  0.21643  0.04534  0.30134  1.0000 -0.5591378683
O   O14       1.0  0.78357  0.95466  0.69866  1.0000 -0.5591378683
O   O15       1.0  0.34007  0.99238  0.41837  1.0000 -0.521363976
O   O16       1.0  0.65993  0.00762  0.58163  1.0000 -0.521363976
