# DDEC6 charges by PACMAN v1.1 (https://github.com/mtap-research/PACMAN-charge/)
data_2023[Er][nan]3[FSR]2
_chemical_formula_sum              "Er4 H86 C102 N2 O32"
_cell_length_a       9.6965
_cell_length_b       13.7603
_cell_length_c       22.5832
_cell_angle_alpha    83.287
_cell_angle_beta     78.791
_cell_angle_gamma    84.572

_symmetry_space_group_name_H-M    "P 1"
_symmetry_Int_Tables_number       1

loop_
  _symmetry_equiv_pos_as_xyz
  'x, y, z'

loop_
  _atom_site_type_symbol
  _atom_site_label
  _atom_site_symmetry_multiplicity
  _atom_site_fract_x
  _atom_site_fract_y
  _atom_site_fract_z
  _atom_site_occupancy
  _atom_site_charge
Er  Er1       1.0  0.74467  0.01757  0.50384  1.0000 2.0766167392
Er  Er2       1.0  0.25533  0.98243  0.49616  1.0000 2.0766167392
Er  Er3       1.0  0.51141  0.57066  0.09685  1.0000 2.0259296645
Er  Er4       1.0  0.48859  0.42934  0.90315  1.0000 2.0259296645
H   H1        1.0  0.51241  0.15433  0.48581  1.0000 0.3873952528
H   H2        1.0  0.48759  0.84567  0.51419  1.0000 0.3873952528
H   H3        1.0  0.63154  0.19889  0.45091  1.0000 0.3778573473
H   H4        1.0  0.36846  0.80111  0.54909  1.0000 0.3778573473
H   H5        1.0  0.92346  0.12998  0.55386  1.0000 0.4064674725
H   H6        1.0  0.07654  0.87002  0.44614  1.0000 0.4064674725
H   H7        1.0  0.78100  0.16797  0.57770  1.0000 0.4031806936
H   H8        1.0  0.21900  0.83203  0.42230  1.0000 0.4031806936
H   H9        1.0  0.67659  0.53593  0.18438  1.0000 0.3668642391
H   H10       1.0  0.32341  0.46407  0.81562  1.0000 0.3668642391
H   H11       1.0  0.72813  0.61673  0.14785  1.0000 0.3465509166
H   H12       1.0  0.27187  0.38327  0.85215  1.0000 0.3465509166
H   H13       1.0  0.98874  0.71894  0.41326  1.0000 0.113315354
H   H14       1.0  0.01126  0.28106  0.58674  1.0000 0.113315354
H   H15       1.0  0.62132  0.67023  0.52834  1.0000 0.1200843647
H   H16       1.0  0.37868  0.32977  0.47166  1.0000 0.1200843647
H   H17       1.0  0.02474  0.55381  0.39975  1.0000 0.113315354
H   H18       1.0  0.97526  0.44619  0.60025  1.0000 0.113315354
H   H19       1.0  0.65562  0.50524  0.51398  1.0000 0.1200843647
H   H20       1.0  0.34438  0.49476  0.48602  1.0000 0.1200843647
H   H21       1.0  0.80887  0.36608  0.48520  1.0000 0.113315354
H   H22       1.0  0.19113  0.63392  0.51480  1.0000 0.113315354
H   H23       1.0  0.95536  0.28196  0.42358  1.0000 0.1200843647
H   H24       1.0  0.04464  0.71804  0.57642  1.0000 0.1200843647
H   H25       1.0  0.22392  0.31565  0.37663  1.0000 0.1200843647
H   H26       1.0  0.77608  0.68435  0.62337  1.0000 0.1200843647
H   H27       1.0  0.89285  0.45964  0.31545  1.0000 0.113315354
H   H28       1.0  0.10715  0.54036  0.68455  1.0000 0.113315354
H   H29       1.0  0.37191  0.37335  0.28873  1.0000 0.1200843647
H   H30       1.0  0.62809  0.62665  0.71127  1.0000 0.1200843647
H   H31       1.0  0.03848  0.50682  0.22307  1.0000 0.1200843647
H   H32       1.0  0.96152  0.49318  0.77693  1.0000 0.1200843647
H   H33       1.0  0.74432  0.21974  0.96736  1.0000 0.1200843647
H   H34       1.0  0.25568  0.78026  0.03264  1.0000 0.1200843647
H   H35       1.0  0.62908  0.27245  0.14312  1.0000 0.1297152897
H   H36       1.0  0.37092  0.72755  0.85688  1.0000 0.1297152897
H   H37       1.0  0.84519  0.06737  0.99705  1.0000 0.113315354
H   H38       1.0  0.15481  0.93263  0.00295  1.0000 0.113315354
H   H39       1.0  0.73648  0.12177  0.17266  1.0000 0.113315354
H   H40       1.0  0.26352  0.87823  0.82734  1.0000 0.113315354
H   H41       1.0  0.92815  0.95162  0.06945  1.0000 0.1200843647
H   H42       1.0  0.07185  0.04838  0.93055  1.0000 0.1200843647
H   H43       1.0  0.92290  0.86461  0.15410  1.0000 0.1200843647
H   H44       1.0  0.07710  0.13539  0.84590  1.0000 0.1200843647
H   H45       1.0  0.94810  0.94152  0.25771  1.0000 0.1200843647
H   H46       1.0  0.05190  0.05848  0.74229  1.0000 0.1200843647
H   H47       1.0  0.58486  0.93975  0.19613  1.0000 0.1200843647
H   H48       1.0  0.41514  0.06025  0.80387  1.0000 0.1200843647
H   H49       1.0  0.82089  0.96568  0.35385  1.0000 0.1200843647
H   H50       1.0  0.17911  0.03432  0.64615  1.0000 0.1200843647
H   H51       1.0  0.45794  0.95649  0.29318  1.0000 0.1200843647
H   H52       1.0  0.54206  0.04351  0.70682  1.0000 0.1200843647
H   H53       1.0  0.11349  0.81913  0.68003  1.0000 0.1200843647
H   H54       1.0  0.88651  0.18087  0.31997  1.0000 0.1200843647
H   H55       1.0  0.72074  0.92661  0.66176  1.0000 0.1200843647
H   H56       1.0  0.27926  0.07339  0.33824  1.0000 0.1200843647
H   H57       1.0  0.02696  0.75299  0.77856  1.0000 0.1200843647
H   H58       1.0  0.97304  0.24701  0.22144  1.0000 0.1200843647
H   H59       1.0  0.63572  0.86751  0.76225  1.0000 0.1200843647
H   H60       1.0  0.36428  0.13249  0.23775  1.0000 0.1200843647
H   H61       1.0  0.78501  0.69766  0.85413  1.0000 0.1200843647
H   H62       1.0  0.21499  0.30234  0.14587  1.0000 0.1200843647
H   H63       1.0  0.66712  0.78009  0.92651  1.0000 0.1297152897
H   H64       1.0  0.33288  0.21991  0.07349  1.0000 0.1297152897
H   H65       1.0  0.84134  0.97129  0.82823  1.0000 0.113315354
H   H66       1.0  0.15866  0.02871  0.17177  1.0000 0.113315354
H   H67       1.0  0.48302  0.91482  0.94764  1.0000 0.113315354
H   H68       1.0  0.51698  0.08518  0.05236  1.0000 0.113315354
H   H69       1.0  0.77574  0.13789  0.82754  1.0000 0.1200843647
H   H70       1.0  0.22426  0.86211  0.17246  1.0000 0.1200843647
H   H71       1.0  0.41527  0.08048  0.94467  1.0000 0.1200843647
H   H72       1.0  0.58473  0.91952  0.05533  1.0000 0.1200843647
H   H73       1.0  0.78714  0.51508  0.95380  1.0000 0.113315354
H   H74       1.0  0.21286  0.48492  0.04620  1.0000 0.113315354
H   H75       1.0  0.95748  0.75414  0.96168  1.0000 0.1297152897
H   H76       1.0  0.04252  0.24586  0.03832  1.0000 0.1297152897
H   H77       1.0  0.00220  0.68031  0.01607  1.0000 0.1297152897
H   H78       1.0  0.99780  0.31969  0.98393  1.0000 0.1297152897
H   H79       1.0  0.84001  0.71710  0.01780  1.0000 0.1497976233
H   H80       1.0  0.15999  0.28290  0.98220  1.0000 0.1497976233
H   H81       1.0  0.99982  0.52798  0.89595  1.0000 0.1391201143
H   H82       1.0  0.00018  0.47202  0.10405  1.0000 0.1391201143
H   H83       1.0  0.11223  0.57708  0.92417  1.0000 0.1391201143
H   H84       1.0  0.88777  0.42292  0.07583  1.0000 0.1391201143
H   H85       1.0  0.02825  0.64106  0.87689  1.0000 0.1297152897
H   H86       1.0  0.97175  0.35894  0.12311  1.0000 0.1297152897
C   C1        1.0  0.78370  0.81720  0.48457  1.0000 0.5722371687
C   C2        1.0  0.21630  0.18280  0.51543  1.0000 0.5722371687
C   C3        1.0  0.80170  0.71160  0.47289  1.0000 -0.0319147533
C   C4        1.0  0.19830  0.28840  0.52711  1.0000 -0.0319147533
C   C5        1.0  0.92120  0.67520  0.43420  1.0000 -0.0996718639
C   C6        1.0  0.07880  0.32480  0.56580  1.0000 -0.0996718639
C   C7        1.0  0.70360  0.64680  0.50220  1.0000 -0.0996718639
C   C8        1.0  0.29640  0.35320  0.49780  1.0000 -0.0996718639
C   C9        1.0  0.94240  0.57700  0.42590  1.0000 -0.1401549185
C   C10       1.0  0.05760  0.42300  0.57410  1.0000 -0.1401549185
C   C11       1.0  0.72450  0.54840  0.49360  1.0000 -0.1582105536
C   C12       1.0  0.27550  0.45160  0.50640  1.0000 -0.1582105536
C   C13       1.0  0.84350  0.51060  0.45590  1.0000 0.1200843647
C   C14       1.0  0.15650  0.48940  0.54410  1.0000 0.1200843647
C   C15       1.0  0.86570  0.40370  0.45330  1.0000 -0.149328618
C   C16       1.0  0.13430  0.59630  0.54670  1.0000 -0.149328618
C   C17       1.0  0.95250  0.35110  0.41380  1.0000 -0.1333887825
C   C18       1.0  0.04750  0.64890  0.58620  1.0000 -0.1333887825
C   C19       1.0  0.04550  0.38610  0.35630  1.0000 0.113315354
C   C20       1.0  0.95450  0.61390  0.64370  1.0000 0.113315354
C   C21       1.0  0.18580  0.35810  0.34660  1.0000 -0.1401549185
C   C22       1.0  0.81420  0.64190  0.65340  1.0000 -0.1401549185
C   C23       1.0  0.99110  0.44130  0.31000  1.0000 -0.1582105536
C   C24       1.0  0.00890  0.55870  0.69000  1.0000 -0.1582105536
C   C25       1.0  0.27350  0.39070  0.29350  1.0000 -0.0913368172
C   C26       1.0  0.72650  0.60930  0.70650  1.0000 -0.0913368172
C   C27       1.0  0.07830  0.47090  0.25500  1.0000 -0.0996718639
C   C28       1.0  0.92170  0.52910  0.74500  1.0000 -0.0996718639
C   C29       1.0  0.22130  0.44800  0.24719  1.0000 -0.0319147533
C   C30       1.0  0.77870  0.55200  0.75281  1.0000 -0.0319147533
C   C31       1.0  0.60740  0.35920  0.03360  1.0000 0.6435858657
C   C32       1.0  0.39260  0.64080  0.96640  1.0000 0.6435858657
C   C33       1.0  0.67640  0.26180  0.05196  1.0000 -0.0475799988
C   C34       1.0  0.32360  0.73820  0.94804  1.0000 -0.0475799988
C   C35       1.0  0.74140  0.19980  0.00928  1.0000 -0.0913368172
C   C36       1.0  0.25860  0.80020  0.99072  1.0000 -0.0913368172
C   C37       1.0  0.67430  0.23090  0.11320  1.0000 -0.0996718639
C   C38       1.0  0.32570  0.76910  0.88680  1.0000 -0.0996718639
C   C39       1.0  0.80190  0.10900  0.02718  1.0000 -0.1720035325
C   C40       1.0  0.19810  0.89100  0.97282  1.0000 -0.1720035325
C   C41       1.0  0.73700  0.14070  0.13080  1.0000 -0.1582105536
C   C42       1.0  0.26300  0.85930  0.86920  1.0000 -0.1582105536
C   C43       1.0  0.80170  0.07650  0.08800  1.0000 0.1200843647
C   C44       1.0  0.19830  0.92350  0.91200  1.0000 0.1200843647
C   C45       1.0  0.86990  0.97960  0.10300  1.0000 -0.1582105536
C   C46       1.0  0.13010  0.02040  0.89700  1.0000 -0.1582105536
C   C47       1.0  0.86430  0.92390  0.15580  1.0000 -0.1401549185
C   C48       1.0  0.13570  0.07610  0.84420  1.0000 -0.1401549185
C   C49       1.0  0.78030  0.94030  0.21689  1.0000 0.1200843647
C   C50       1.0  0.21970  0.05970  0.78311  1.0000 0.1200843647
C   C51       1.0  0.84800  0.94640  0.26450  1.0000 -0.149328618
C   C52       1.0  0.15200  0.05360  0.73550  1.0000 -0.149328618
C   C53       1.0  0.63340  0.94440  0.22830  1.0000 -0.149328618
C   C54       1.0  0.36660  0.05560  0.77170  1.0000 -0.149328618
C   C55       1.0  0.77230  0.95950  0.32190  1.0000 -0.0913368172
C   C56       1.0  0.22770  0.04050  0.67810  1.0000 -0.0913368172
C   C57       1.0  0.55790  0.95500  0.28589  1.0000 -0.0996718639
C   C58       1.0  0.44210  0.04500  0.71411  1.0000 -0.0996718639
C   C59       1.0  0.62660  0.96360  0.33327  1.0000 -0.0319147533
C   C60       1.0  0.37340  0.03640  0.66667  1.0000 -0.0319147533
C   C61       1.0  0.54370  0.97900  0.39583  1.0000 0.6506074568
C   C62       1.0  0.45630  0.02100  0.60417  1.0000 0.6506074568
C   C63       1.0  0.98160  0.91760  0.59721  1.0000 0.6506074568
C   C64       1.0  0.01840  0.08240  0.40279  1.0000 0.6506074568
C   C65       1.0  0.92620  0.87870  0.66137  1.0000 -0.0475799988
C   C66       1.0  0.07380  0.12130  0.33863  1.0000 -0.0475799988
C   C67       1.0  0.01570  0.82810  0.69636  1.0000 -0.0913368172
C   C68       1.0  0.98430  0.17190  0.30364  1.0000 -0.0913368172
C   C69       1.0  0.78370  0.89260  0.68582  1.0000 -0.0996718639
C   C70       1.0  0.21630  0.10740  0.31418  1.0000 -0.0996718639
C   C71       1.0  0.96450  0.79000  0.75539  1.0000 -0.1582105536
C   C72       1.0  0.03550  0.21000  0.24461  1.0000 -0.1582105536
C   C73       1.0  0.73300  0.85670  0.74561  1.0000 -0.149328618
C   C74       1.0  0.26700  0.14330  0.25439  1.0000 -0.149328618
C   C75       1.0  0.82230  0.80550  0.78099  1.0000 0.1200843647
C   C76       1.0  0.17770  0.19450  0.21901  1.0000 0.1200843647
C   C77       1.0  0.76830  0.76630  0.84434  1.0000 -0.1401549185
C   C78       1.0  0.23170  0.23370  0.15566  1.0000 -0.1401549185
C   C79       1.0  0.69900  0.81710  0.88891  1.0000 -0.1401549185
C   C80       1.0  0.30100  0.18290  0.11109  1.0000 -0.1401549185
C   C81       1.0  0.66570  0.92420  0.88684  1.0000 0.1200843647
C   C82       1.0  0.33430  0.07580  0.11316  1.0000 0.1200843647
C   C83       1.0  0.75410  0.99300  0.85170  1.0000 -0.1582105536
C   C84       1.0  0.24590  0.00700  0.14830  1.0000 -0.1582105536
C   C85       1.0  0.54200  0.95990  0.92194  1.0000 -0.1582105536
C   C86       1.0  0.45800  0.04010  0.07806  1.0000 -0.1582105536
C   C87       1.0  0.71470  0.09210  0.85130  1.0000 -0.1063158314
C   C88       1.0  0.28530  0.90790  0.14870  1.0000 -0.1063158314
C   C89       1.0  0.50190  0.05860  0.92080  1.0000 -0.0996718639
C   C90       1.0  0.49810  0.94140  0.07920  1.0000 -0.0996718639
C   C91       1.0  0.58740  0.12600  0.88486  1.0000 -0.0319147533
C   C92       1.0  0.41260  0.87400  0.11514  1.0000 -0.0319147533
C   C93       1.0  0.54480  0.23280  0.88490  1.0000 0.5503881623
C   C94       1.0  0.45520  0.76720  0.11510  1.0000 0.5503881623
C   C95       1.0  0.79630  0.56720  0.97650  1.0000 0.3290812125
C   C96       1.0  0.20370  0.43280  0.02350  1.0000 0.3290812125
C   C97       1.0  0.92920  0.69850  0.99140  1.0000 -0.3393929104
C   C98       1.0  0.07080  0.30150  0.00860  1.0000 -0.3393929104
C   C99       1.0  0.02190  0.58830  0.91020  1.0000 -0.3593355666
C   C100      1.0  0.97810  0.41170  0.08980  1.0000 -0.3593355666
C   C101      1.0  0.32000  0.48310  0.19120  1.0000 0.5722371687
C   C102      1.0  0.68000  0.51690  0.80880  1.0000 0.5722371687
N   N1        1.0  0.91120  0.61600  0.96015  1.0000 0.0240047288
N   N2        1.0  0.08880  0.38400  0.03985  1.0000 0.0240047288
O   O1        1.0  0.60100  0.16700  0.48778  1.0000 -0.7797798465
O   O2        1.0  0.39900  0.83300  0.51222  1.0000 -0.7797798465
O   O3        1.0  0.83690  0.14870  0.54164  1.0000 -0.792038406
O   O4        1.0  0.16310  0.85130  0.45836  1.0000 -0.792038406
O   O5        1.0  0.61050  0.99640  0.43534  1.0000 -0.6992773662
O   O6        1.0  0.38950  0.00360  0.56466  1.0000 -0.6992773662
O   O7        1.0  0.89470  0.95310  0.56422  1.0000 -0.6992773662
O   O8        1.0  0.10530  0.04690  0.43578  1.0000 -0.6992773662
O   O9        1.0  0.11250  0.91340  0.57968  1.0000 -0.6707279633
O   O10       1.0  0.88750  0.08660  0.42032  1.0000 -0.6707279633
O   O11       1.0  0.41330  0.97400  0.40523  1.0000 -0.6551958571
O   O12       1.0  0.58670  0.02600  0.59477  1.0000 -0.6551958571
O   O13       1.0  0.70280  0.55810  0.14646  1.0000 -0.7692272912
O   O14       1.0  0.29720  0.44190  0.85354  1.0000 -0.7692272912
O   O15       1.0  0.70160  0.58460  0.01878  1.0000 -0.542678381
O   O16       1.0  0.29840  0.41540  0.98122  1.0000 -0.542678381
O   O17       1.0  0.44820  0.48560  0.19413  1.0000 -0.649404789
O   O18       1.0  0.55180  0.51440  0.80587  1.0000 -0.649404789
O   O19       1.0  0.27700  0.51270  0.14241  1.0000 -0.6245618413
O   O20       1.0  0.72300  0.48730  0.85759  1.0000 -0.6245618413
O   O21       1.0  0.55270  0.41300  0.07453  1.0000 -0.6707279633
O   O22       1.0  0.44730  0.58700  0.92547  1.0000 -0.6707279633
O   O23       1.0  0.60980  0.38230  0.97770  1.0000 -0.6843512903
O   O24       1.0  0.39020  0.61770  0.02230  1.0000 -0.685120369
O   O25       1.0  0.62490  0.29550  0.85393  1.0000 -0.6315228591
O   O26       1.0  0.37510  0.70450  0.14607  1.0000 -0.6315228591
O   O27       1.0  0.43060  0.26120  0.91760  1.0000 -0.6414879511
O   O28       1.0  0.56940  0.73880  0.08240  1.0000 -0.6414879511
O   O29       1.0  0.87430  0.87542  0.45669  1.0000 -0.6414879511
O   O30       1.0  0.12570  0.12458  0.54331  1.0000 -0.6414879511
O   O31       1.0  0.67910  0.84801  0.52258  1.0000 -0.6414879511
O   O32       1.0  0.32090  0.15199  0.47742  1.0000 -0.6414879511
