# DDEC6 charges by PACMAN v1.1 (https://github.com/mtap-research/PACMAN-charge/)
data_2023[Zn][nan]3[FSR]2
_chemical_formula_sum              "Zn4 H80 C116 N4 O16"
_cell_length_a       12.4322
_cell_length_b       12.4322
_cell_length_c       27.9275
_cell_angle_alpha    87.7199
_cell_angle_beta     92.2801
_cell_angle_gamma    135.578

_symmetry_space_group_name_H-M    "P 1"
_symmetry_Int_Tables_number       1

loop_
  _symmetry_equiv_pos_as_xyz
  'x, y, z'

loop_
  _atom_site_type_symbol
  _atom_site_label
  _atom_site_symmetry_multiplicity
  _atom_site_fract_x
  _atom_site_fract_y
  _atom_site_fract_z
  _atom_site_occupancy
  _atom_site_charge
Zn  Zn1       1.0  0.44074  0.34936  0.49622  1.0000 0.8138667665
Zn  Zn2       1.0  0.34936  0.44074  0.00378  1.0000 0.8138667665
Zn  Zn3       1.0  0.55926  0.65064  0.50378  1.0000 0.8138667665
Zn  Zn4       1.0  0.65064  0.55926  0.99622  1.0000 0.8138667665
H   H1        1.0  0.48353  0.81277  0.09232  1.0000 0.1184091086
H   H2        1.0  0.81277  0.48353  0.40768  1.0000 0.1184091086
H   H3        1.0  0.51647  0.18723  0.90768  1.0000 0.1184091086
H   H4        1.0  0.18723  0.51647  0.59232  1.0000 0.1184091086
H   H5        1.0  0.87345  0.92333  0.09572  1.0000 0.1184091086
H   H6        1.0  0.92333  0.87345  0.40428  1.0000 0.1184091086
H   H7        1.0  0.12655  0.07667  0.90428  1.0000 0.1184091086
H   H8        1.0  0.07667  0.12655  0.59572  1.0000 0.1184091086
H   H9        1.0  0.59456  0.01598  0.14067  1.0000 0.1184091086
H   H10       1.0  0.01598  0.59456  0.35933  1.0000 0.1184091086
H   H11       1.0  0.40544  0.98402  0.85933  1.0000 0.1184091086
H   H12       1.0  0.98402  0.40544  0.64067  1.0000 0.1184091086
H   H13       1.0  0.97963  0.11891  0.14618  1.0000 0.1184091086
H   H14       1.0  0.11891  0.97963  0.35382  1.0000 0.1184091086
H   H15       1.0  0.02037  0.88109  0.85382  1.0000 0.1184091086
H   H16       1.0  0.88109  0.02037  0.64618  1.0000 0.1184091086
H   H17       1.0  0.82291  0.32031  0.14082  1.0000 0.1184091086
H   H18       1.0  0.32031  0.82291  0.35918  1.0000 0.1184091086
H   H19       1.0  0.17709  0.67969  0.85918  1.0000 0.1184091086
H   H20       1.0  0.67969  0.17709  0.64082  1.0000 0.1184091086
H   H21       1.0  0.94285  0.16125  0.23153  1.0000 0.1184091086
H   H22       1.0  0.16125  0.94285  0.26847  1.0000 0.1184091086
H   H23       1.0  0.05715  0.83875  0.76847  1.0000 0.1184091086
H   H24       1.0  0.83875  0.05715  0.73153  1.0000 0.1184091086
H   H25       1.0  0.85839  0.54795  0.19185  1.0000 0.1399093628
H   H26       1.0  0.54795  0.85839  0.30815  1.0000 0.1399093628
H   H27       1.0  0.14161  0.45205  0.80815  1.0000 0.1399093628
H   H28       1.0  0.45205  0.14161  0.69185  1.0000 0.1399093628
H   H29       1.0  0.03724  0.67338  0.19954  1.0000 0.1399093628
H   H30       1.0  0.67338  0.03724  0.30046  1.0000 0.1399093628
H   H31       1.0  0.96276  0.32662  0.80046  1.0000 0.1399093628
H   H32       1.0  0.32662  0.96276  0.69954  1.0000 0.1399093628
H   H33       1.0  0.96542  0.59800  0.14925  1.0000 0.1399093628
H   H34       1.0  0.59800  0.96542  0.35075  1.0000 0.1399093628
H   H35       1.0  0.03458  0.40200  0.85075  1.0000 0.1399093628
H   H36       1.0  0.40200  0.03458  0.64925  1.0000 0.1399093628
H   H37       1.0  0.05941  0.54625  0.26037  1.0000 0.1184091086
H   H38       1.0  0.54625  0.05941  0.23963  1.0000 0.1184091086
H   H39       1.0  0.94059  0.45375  0.73963  1.0000 0.1184091086
H   H40       1.0  0.45375  0.94059  0.76037  1.0000 0.1184091086
H   H41       1.0  0.21782  0.59210  0.30777  1.0000 0.113540762
H   H42       1.0  0.59210  0.21782  0.19223  1.0000 0.113540762
H   H43       1.0  0.78218  0.40790  0.69223  1.0000 0.113540762
H   H44       1.0  0.40790  0.78218  0.80777  1.0000 0.113540762
H   H45       1.0  0.97712  0.15332  0.31040  1.0000 0.1184091086
H   H46       1.0  0.15332  0.97712  0.18960  1.0000 0.1184091086
H   H47       1.0  0.02288  0.84668  0.68960  1.0000 0.1184091086
H   H48       1.0  0.84668  0.02288  0.81040  1.0000 0.1184091086
H   H49       1.0  0.10360  0.18700  0.37928  1.0000 0.1184091086
H   H50       1.0  0.18700  0.10360  0.12072  1.0000 0.1184091086
H   H51       1.0  0.89640  0.81300  0.62072  1.0000 0.1184091086
H   H52       1.0  0.81300  0.89640  0.87928  1.0000 0.1184091086
H   H53       1.0  0.34437  0.62427  0.37628  1.0000 0.1184091086
H   H54       1.0  0.62427  0.34437  0.12372  1.0000 0.1184091086
H   H55       1.0  0.65563  0.37573  0.62372  1.0000 0.1184091086
H   H56       1.0  0.37573  0.65563  0.87628  1.0000 0.1184091086
H   H57       1.0  0.45709  0.14667  0.45203  1.0000 0.113540762
H   H58       1.0  0.14667  0.45709  0.04797  1.0000 0.113540762
H   H59       1.0  0.54291  0.85333  0.54797  1.0000 0.113540762
H   H60       1.0  0.85333  0.54291  0.95203  1.0000 0.113540762
H   H61       1.0  0.19394  0.06110  0.54678  1.0000 0.113540762
H   H62       1.0  0.06110  0.19394  0.95322  1.0000 0.113540762
H   H63       1.0  0.80606  0.93890  0.45322  1.0000 0.113540762
H   H64       1.0  0.93890  0.80606  0.04678  1.0000 0.113540762
H   H65       1.0  0.06324  0.81208  0.55037  1.0000 0.1399093628
H   H66       1.0  0.81208  0.06324  0.94963  1.0000 0.1399093628
H   H67       1.0  0.93676  0.18792  0.44963  1.0000 0.1399093628
H   H68       1.0  0.18792  0.93676  0.05037  1.0000 0.1399093628
H   H69       1.0  0.32987  0.89747  0.45224  1.0000 0.1338089429
H   H70       1.0  0.89747  0.32987  0.04776  1.0000 0.1338089429
H   H71       1.0  0.67013  0.10253  0.54776  1.0000 0.1338089429
H   H72       1.0  0.10253  0.67013  0.95224  1.0000 0.1338089429
H   H73       1.0  0.90102  0.58058  0.53172  1.0000 0.1184091086
H   H74       1.0  0.58058  0.90102  0.96828  1.0000 0.1184091086
H   H75       1.0  0.09898  0.41942  0.46828  1.0000 0.1184091086
H   H76       1.0  0.41942  0.09898  0.03172  1.0000 0.1184091086
H   H77       1.0  0.24438  0.67553  0.47081  1.0000 0.1184091086
H   H78       1.0  0.67553  0.24438  0.02919  1.0000 0.1184091086
H   H79       1.0  0.75562  0.32448  0.52919  1.0000 0.1184091086
H   H80       1.0  0.32448  0.75562  0.97081  1.0000 0.1184091086
C   C1        1.0  0.59369  0.71291  0.05696  1.0000 0.5729624502
C   C2        1.0  0.71291  0.59369  0.44304  1.0000 0.5729624502
C   C3        1.0  0.40631  0.28709  0.94304  1.0000 0.5729624502
C   C4        1.0  0.28709  0.40631  0.55696  1.0000 0.5729624502
C   C5        1.0  0.66439  0.84221  0.08905  1.0000 -0.0389853842
C   C6        1.0  0.84221  0.66439  0.41095  1.0000 -0.0389853842
C   C7        1.0  0.33561  0.15779  0.91095  1.0000 -0.0389853842
C   C8        1.0  0.15779  0.33561  0.58905  1.0000 -0.0389853842
C   C9        1.0  0.58451  0.87469  0.10296  1.0000 -0.0988705406
C   C10       1.0  0.87469  0.58451  0.39704  1.0000 -0.0988705406
C   C11       1.0  0.41549  0.12531  0.89704  1.0000 -0.0988705406
C   C12       1.0  0.12531  0.41549  0.60296  1.0000 -0.0988705406
C   C13       1.0  0.81490  0.93930  0.10527  1.0000 -0.0988705406
C   C14       1.0  0.93930  0.81490  0.39473  1.0000 -0.0988705406
C   C15       1.0  0.18510  0.06070  0.89473  1.0000 -0.0988705406
C   C16       1.0  0.06070  0.18510  0.60527  1.0000 -0.0988705406
C   C17       1.0  0.65089  0.99651  0.13218  1.0000 -0.1514147945
C   C18       1.0  0.99651  0.65089  0.36782  1.0000 -0.1514147945
C   C19       1.0  0.34911  0.00349  0.86782  1.0000 -0.1514147945
C   C20       1.0  0.00349  0.34911  0.63218  1.0000 -0.1514147945
C   C21       1.0  0.87930  0.05790  0.13502  1.0000 -0.1514147945
C   C22       1.0  0.05790  0.87930  0.36498  1.0000 -0.1514147945
C   C23       1.0  0.12070  0.94210  0.86498  1.0000 -0.1514147945
C   C24       1.0  0.94210  0.12070  0.63502  1.0000 -0.1514147945
C   C25       1.0  0.79897  0.08923  0.14887  1.0000 0.066474656
C   C26       1.0  0.08923  0.79897  0.35113  1.0000 0.066474656
C   C27       1.0  0.20103  0.91077  0.85113  1.0000 0.066474656
C   C28       1.0  0.91077  0.20103  0.64887  1.0000 0.066474656
C   C29       1.0  0.87181  0.21879  0.18102  1.0000 0.0779667091
C   C30       1.0  0.21879  0.87181  0.31898  1.0000 0.0779667091
C   C31       1.0  0.12819  0.78121  0.81898  1.0000 0.0779667091
C   C32       1.0  0.78121  0.12819  0.68102  1.0000 0.0779667091
C   C33       1.0  0.87210  0.33030  0.16888  1.0000 -0.2385562934
C   C34       1.0  0.33030  0.87210  0.33112  1.0000 -0.2385562934
C   C35       1.0  0.12790  0.66970  0.83112  1.0000 -0.2385562934
C   C36       1.0  0.66970  0.12790  0.66888  1.0000 -0.2385562934
C   C37       1.0  0.94256  0.23424  0.22324  1.0000 -0.2101641387
C   C38       1.0  0.23424  0.94256  0.27676  1.0000 -0.2101641387
C   C39       1.0  0.05744  0.76576  0.77676  1.0000 -0.2101641387
C   C40       1.0  0.76576  0.05744  0.72324  1.0000 -0.2101641387
C   C41       1.0  0.95200  0.58020  0.18330  1.0000 -0.4498458333
C   C42       1.0  0.58020  0.95200  0.31670  1.0000 -0.4498458333
C   C43       1.0  0.04800  0.41980  0.81670  1.0000 -0.4498458333
C   C44       1.0  0.41980  0.04800  0.68330  1.0000 -0.4498458333
C   C45       1.0  0.94410  0.45330  0.19800  1.0000 0.187710362
C   C46       1.0  0.45330  0.94410  0.30200  1.0000 0.187710362
C   C47       1.0  0.05590  0.54670  0.80200  1.0000 0.187710362
C   C48       1.0  0.54670  0.05590  0.69800  1.0000 0.187710362
C   C49       1.0  0.01270  0.46410  0.24040  1.0000 -0.2216819837
C   C50       1.0  0.46410  0.01270  0.25960  1.0000 -0.2216819837
C   C51       1.0  0.98730  0.53590  0.75960  1.0000 -0.2216819837
C   C52       1.0  0.53590  0.98730  0.74040  1.0000 -0.2216819837
C   C53       1.0  0.01389  0.35651  0.25400  1.0000 0.0869196452
C   C54       1.0  0.35651  0.01389  0.24600  1.0000 0.0869196452
C   C55       1.0  0.98611  0.64349  0.74600  1.0000 0.0869196452
C   C56       1.0  0.64349  0.98611  0.75400  1.0000 0.0869196452
C   C57       1.0  0.09236  0.37384  0.29869  1.0000 0.0779667091
C   C58       1.0  0.37384  0.09236  0.20131  1.0000 0.0779667091
C   C59       1.0  0.90764  0.62616  0.70131  1.0000 0.0779667091
C   C60       1.0  0.62616  0.90764  0.79869  1.0000 0.0779667091
C   C61       1.0  0.19610  0.50830  0.32079  1.0000 -0.1514147945
C   C62       1.0  0.50830  0.19610  0.17921  1.0000 -0.1514147945
C   C63       1.0  0.80390  0.49170  0.67921  1.0000 -0.1514147945
C   C64       1.0  0.49170  0.80390  0.82079  1.0000 -0.1514147945
C   C65       1.0  0.05540  0.25160  0.32260  1.0000 -0.1662559636
C   C66       1.0  0.25160  0.05540  0.17740  1.0000 -0.1662559636
C   C67       1.0  0.94460  0.74840  0.67740  1.0000 -0.1662559636
C   C68       1.0  0.74840  0.94460  0.82260  1.0000 -0.1662559636
C   C69       1.0  0.13160  0.27180  0.36404  1.0000 -0.1156243957
C   C70       1.0  0.27180  0.13160  0.13596  1.0000 -0.1156243957
C   C71       1.0  0.86840  0.72820  0.63596  1.0000 -0.1156243957
C   C72       1.0  0.72820  0.86840  0.86404  1.0000 -0.1156243957
C   C73       1.0  0.27250  0.52810  0.36228  1.0000 -0.113972155
C   C74       1.0  0.52810  0.27250  0.13772  1.0000 -0.113972155
C   C75       1.0  0.72750  0.47190  0.63772  1.0000 -0.113972155
C   C76       1.0  0.47190  0.72750  0.86228  1.0000 -0.113972155
C   C77       1.0  0.24527  0.41133  0.38276  1.0000 -0.0272385115
C   C78       1.0  0.41133  0.24527  0.11724  1.0000 -0.0272385115
C   C79       1.0  0.75473  0.58867  0.61724  1.0000 -0.0272385115
C   C80       1.0  0.58867  0.75473  0.88276  1.0000 -0.0272385115
C   C81       1.0  0.33333  0.43725  0.42666  1.0000 0.5729624502
C   C82       1.0  0.43725  0.33333  0.07334  1.0000 0.5729624502
C   C83       1.0  0.66667  0.56275  0.57334  1.0000 0.5729624502
C   C84       1.0  0.56275  0.66667  0.92666  1.0000 0.5729624502
C   C85       1.0  0.37418  0.07802  0.47235  1.0000 0.0779667091
C   C86       1.0  0.07802  0.37418  0.02765  1.0000 0.0779667091
C   C87       1.0  0.62582  0.92198  0.52765  1.0000 0.0779667091
C   C88       1.0  0.92198  0.62582  0.97235  1.0000 0.0779667091
C   C89       1.0  0.22370  0.02850  0.52670  1.0000 0.0779667091
C   C90       1.0  0.02850  0.22370  0.97330  1.0000 0.0779667091
C   C91       1.0  0.77630  0.97150  0.47330  1.0000 0.0779667091
C   C92       1.0  0.97150  0.77630  0.02670  1.0000 0.0779667091
C   C93       1.0  0.14330  0.87730  0.52890  1.0000 -0.2101641387
C   C94       1.0  0.87730  0.14330  0.97110  1.0000 -0.2101641387
C   C95       1.0  0.85670  0.12270  0.47110  1.0000 -0.2101641387
C   C96       1.0  0.12270  0.85670  0.02890  1.0000 -0.2101641387
C   C97       1.0  0.29770  0.92730  0.47250  1.0000 -0.2216819837
C   C98       1.0  0.92730  0.29770  0.02750  1.0000 -0.2216819837
C   C99       1.0  0.70230  0.07270  0.52750  1.0000 -0.2216819837
C   C100      1.0  0.07270  0.70230  0.97250  1.0000 -0.2216819837
C   C101      1.0  0.17713  0.82107  0.50102  1.0000 0.113540762
C   C102      1.0  0.82107  0.17713  0.99898  1.0000 0.113540762
C   C103      1.0  0.82287  0.17893  0.49898  1.0000 0.113540762
C   C104      1.0  0.17893  0.82287  0.00102  1.0000 0.113540762
C   C105      1.0  0.08672  0.65608  0.50155  1.0000 0.066474656
C   C106      1.0  0.65608  0.08672  0.99845  1.0000 0.066474656
C   C107      1.0  0.91328  0.34392  0.49845  1.0000 0.066474656
C   C108      1.0  0.34392  0.91328  0.00155  1.0000 0.066474656
C   C109      1.0  0.94217  0.54883  0.51867  1.0000 -0.1250257618
C   C110      1.0  0.54883  0.94217  0.98133  1.0000 -0.1250257618
C   C111      1.0  0.05783  0.45117  0.48133  1.0000 -0.1250257618
C   C112      1.0  0.45117  0.05783  0.01867  1.0000 -0.1250257618
C   C113      1.0  0.14507  0.60473  0.48265  1.0000 -0.1379186041
C   C114      1.0  0.60473  0.14507  0.01735  1.0000 -0.1379186041
C   C115      1.0  0.85493  0.39527  0.51735  1.0000 -0.1379186041
C   C116      1.0  0.39527  0.85493  0.98265  1.0000 -0.1379186041
N   N1        1.0  0.33729  0.12991  0.49895  1.0000 -0.1930481173
N   N2        1.0  0.12991  0.33729  0.00105  1.0000 -0.1930481173
N   N3        1.0  0.66271  0.87009  0.50105  1.0000 -0.1930481173
N   N4        1.0  0.87009  0.66271  0.99895  1.0000 -0.1930481173
O   O1        1.0  0.68089  0.70551  0.04110  1.0000 -0.549119664
O   O2        1.0  0.70551  0.68089  0.45890  1.0000 -0.549119664
O   O3        1.0  0.31911  0.29449  0.95890  1.0000 -0.549119664
O   O4        1.0  0.29449  0.31911  0.54110  1.0000 -0.549119664
O   O5        1.0  0.45408  0.62072  0.04696  1.0000 -0.5191624589
O   O6        1.0  0.62072  0.45408  0.45304  1.0000 -0.5191624589
O   O7        1.0  0.54592  0.37928  0.95304  1.0000 -0.5191624589
O   O8        1.0  0.37928  0.54592  0.54696  1.0000 -0.5191624589
O   O9        1.0  0.32212  0.33308  0.44033  1.0000 -0.5191624589
O   O10       1.0  0.33308  0.32212  0.05967  1.0000 -0.5191624589
O   O11       1.0  0.67788  0.66692  0.55967  1.0000 -0.5191624589
O   O12       1.0  0.66692  0.67788  0.94033  1.0000 -0.5191624589
O   O13       1.0  0.41331  0.56409  0.44684  1.0000 -0.5381632574
O   O14       1.0  0.56409  0.41331  0.05316  1.0000 -0.5381632574
O   O15       1.0  0.58669  0.43591  0.55316  1.0000 -0.5381632574
O   O16       1.0  0.43591  0.58669  0.94684  1.0000 -0.5381632574
