# DDEC6 charges by PACMAN v1.1 (https://github.com/mtap-research/PACMAN-charge/)
data_2023[Cd][dia]3[FSR]5
_chemical_formula_sum              "Cd2 H40 C120 N8 O48"
_cell_length_a       16.1838
_cell_length_b       16.1838
_cell_length_c       18.5428
_cell_angle_alpha    67.3926
_cell_angle_beta     112.607
_cell_angle_gamma    90.4634

_symmetry_space_group_name_H-M    "P 1"
_symmetry_Int_Tables_number       1

loop_
  _symmetry_equiv_pos_as_xyz
  'x, y, z'

loop_
  _atom_site_type_symbol
  _atom_site_label
  _atom_site_symmetry_multiplicity
  _atom_site_fract_x
  _atom_site_fract_y
  _atom_site_fract_z
  _atom_site_occupancy
  _atom_site_charge
Cd  Cd1       1.0  0.04307  0.04307  0.75000  1.0000 1.0241922626
Cd  Cd2       1.0  0.95693  0.95693  0.25000  1.0000 1.0241922626
H   H1        1.0  0.29460  0.25180  0.08250  1.0000 0.1357319319
H   H2        1.0  0.25180  0.29460  0.41750  1.0000 0.1357319319
H   H3        1.0  0.70540  0.74820  0.91750  1.0000 0.1357319319
H   H4        1.0  0.74820  0.70540  0.58250  1.0000 0.1357319319
H   H5        1.0  0.06570  0.22910  0.90670  1.0000 0.1601470896
H   H6        1.0  0.22910  0.06570  0.59330  1.0000 0.1601470896
H   H7        1.0  0.93430  0.77090  0.09330  1.0000 0.1601470896
H   H8        1.0  0.77090  0.93430  0.40670  1.0000 0.1601470896
H   H9        1.0  0.30070  0.07070  0.98540  1.0000 0.1357319319
H   H10       1.0  0.07070  0.30070  0.51460  1.0000 0.1357319319
H   H11       1.0  0.69930  0.92930  0.01460  1.0000 0.1357319319
H   H12       1.0  0.92930  0.69930  0.48540  1.0000 0.1357319319
H   H13       1.0  0.26010  0.55710  0.13060  1.0000 0.1486965002
H   H14       1.0  0.55710  0.26010  0.36940  1.0000 0.1486965002
H   H15       1.0  0.73990  0.44290  0.86940  1.0000 0.1486965002
H   H16       1.0  0.44290  0.73990  0.63060  1.0000 0.1486965002
H   H17       1.0  0.20060  0.75340  0.89570  1.0000 0.1486965002
H   H18       1.0  0.75340  0.20060  0.60430  1.0000 0.1486965002
H   H19       1.0  0.79940  0.24660  0.10430  1.0000 0.1486965002
H   H20       1.0  0.24660  0.79940  0.39570  1.0000 0.1486965002
H   H21       1.0  0.06060  0.76840  0.02960  1.0000 0.1324878299
H   H22       1.0  0.76840  0.06060  0.47040  1.0000 0.1324878299
H   H23       1.0  0.93940  0.23160  0.97040  1.0000 0.1324878299
H   H24       1.0  0.23160  0.93940  0.52960  1.0000 0.1324878299
H   H25       1.0  0.99370  0.56290  0.79820  1.0000 0.1486965002
H   H26       1.0  0.56290  0.99370  0.70180  1.0000 0.1486965002
H   H27       1.0  0.00630  0.43710  0.20180  1.0000 0.1486965002
H   H28       1.0  0.43710  0.00630  0.29820  1.0000 0.1486965002
H   H29       1.0  0.91130  0.67870  0.80110  1.0000 0.1486965002
H   H30       1.0  0.67870  0.91130  0.69890  1.0000 0.1486965002
H   H31       1.0  0.08870  0.32130  0.19890  1.0000 0.1486965002
H   H32       1.0  0.32130  0.08870  0.30110  1.0000 0.1486965002
H   H33       1.0  0.32080  0.38420  0.96300  1.0000 0.1324878299
H   H34       1.0  0.38420  0.32080  0.53700  1.0000 0.1324878299
H   H35       1.0  0.67920  0.61580  0.03700  1.0000 0.1324878299
H   H36       1.0  0.61580  0.67920  0.46300  1.0000 0.1324878299
H   H37       1.0  0.44440  0.31180  0.96090  1.0000 0.1486965002
H   H38       1.0  0.31180  0.44440  0.53910  1.0000 0.1486965002
H   H39       1.0  0.55560  0.68820  0.03910  1.0000 0.1486965002
H   H40       1.0  0.68820  0.55560  0.46090  1.0000 0.1486965002
C   C1        1.0  0.12771  0.10401  0.87220  1.0000 0.5275923275
C   C2        1.0  0.10401  0.12771  0.62780  1.0000 0.5275923275
C   C3        1.0  0.87229  0.89599  0.12780  1.0000 0.5275923275
C   C4        1.0  0.89599  0.87229  0.37220  1.0000 0.5275923275
C   C5        1.0  0.41320  0.12520  0.10110  1.0000 0.5142009148
C   C6        1.0  0.12520  0.41320  0.39890  1.0000 0.5142009148
C   C7        1.0  0.58680  0.87480  0.89890  1.0000 0.5142009148
C   C8        1.0  0.87480  0.58680  0.60110  1.0000 0.5142009148
C   C9        1.0  0.31315  0.15555  0.04350  1.0000 0.0053734452
C   C10       1.0  0.15555  0.31315  0.45650  1.0000 0.0044894229
C   C11       1.0  0.68685  0.84445  0.95650  1.0000 0.0044894229
C   C12       1.0  0.84445  0.68685  0.54350  1.0000 0.0053734452
C   C13       1.0  0.26502  0.22422  0.04600  1.0000 -0.1498811219
C   C14       1.0  0.22422  0.26502  0.45400  1.0000 -0.1498811219
C   C15       1.0  0.73498  0.77578  0.95400  1.0000 -0.1498811219
C   C16       1.0  0.77578  0.73498  0.54600  1.0000 -0.1498811219
C   C17       1.0  0.17300  0.25180  0.99430  1.0000 0.173298935
C   C18       1.0  0.25180  0.17300  0.50570  1.0000 0.173298935
C   C19       1.0  0.82700  0.74820  0.00570  1.0000 0.173298935
C   C20       1.0  0.74820  0.82700  0.49430  1.0000 0.173298935
C   C21       1.0  0.12776  0.21138  0.94000  1.0000 -0.1211856379
C   C22       1.0  0.21138  0.12776  0.56000  1.0000 -0.1211856379
C   C23       1.0  0.87224  0.78862  0.06000  1.0000 -0.1211856379
C   C24       1.0  0.78862  0.87224  0.44000  1.0000 -0.1211856379
C   C25       1.0  0.17595  0.14397  0.93550  1.0000 0.0358603989
C   C26       1.0  0.14397  0.17595  0.56450  1.0000 0.0358603989
C   C27       1.0  0.82405  0.85603  0.06450  1.0000 0.0358603989
C   C28       1.0  0.85603  0.82405  0.43550  1.0000 0.0358603989
C   C29       1.0  0.26859  0.11619  0.98790  1.0000 -0.0870158764
C   C30       1.0  0.11619  0.26859  0.51210  1.0000 -0.0870158764
C   C31       1.0  0.73141  0.88381  0.01210  1.0000 -0.0870158764
C   C32       1.0  0.88381  0.73141  0.48790  1.0000 -0.0870158764
C   C33       1.0  0.07162  0.86732  0.88230  1.0000 0.5275923275
C   C34       1.0  0.86732  0.07162  0.61770  1.0000 0.5275923275
C   C35       1.0  0.92838  0.13268  0.11770  1.0000 0.5275923275
C   C36       1.0  0.13268  0.92838  0.38230  1.0000 0.5275923275
C   C37       1.0  0.13858  0.62060  0.17070  1.0000 0.5163428673
C   C38       1.0  0.62060  0.13858  0.32930  1.0000 0.5163428673
C   C39       1.0  0.86142  0.37940  0.82930  1.0000 0.5163428673
C   C40       1.0  0.37940  0.86142  0.67070  1.0000 0.5163428673
C   C41       1.0  0.15652  0.65614  0.09230  1.0000 0.0053734452
C   C42       1.0  0.65614  0.15652  0.40770  1.0000 0.0053734452
C   C43       1.0  0.84348  0.34386  0.90770  1.0000 0.0053734452
C   C44       1.0  0.34386  0.84348  0.59230  1.0000 0.0053734452
C   C45       1.0  0.22535  0.61137  0.08600  1.0000 -0.1498811219
C   C46       1.0  0.61137  0.22535  0.41400  1.0000 -0.1498811219
C   C47       1.0  0.77465  0.38863  0.91400  1.0000 -0.1498811219
C   C48       1.0  0.38863  0.77465  0.58600  1.0000 -0.1498811219
C   C49       1.0  0.24106  0.64864  0.01290  1.0000 0.1751192996
C   C50       1.0  0.64864  0.24106  0.48710  1.0000 0.173298935
C   C51       1.0  0.75894  0.35136  0.98710  1.0000 0.1751192996
C   C52       1.0  0.35136  0.75894  0.51290  1.0000 0.1751192996
C   C53       1.0  0.18975  0.72973  0.94500  1.0000 -0.1498811219
C   C54       1.0  0.72973  0.18975  0.55500  1.0000 -0.1498811219
C   C55       1.0  0.81025  0.27027  0.05500  1.0000 -0.1498811219
C   C56       1.0  0.27027  0.81025  0.44500  1.0000 -0.1498811219
C   C57       1.0  0.12227  0.77471  0.95180  1.0000 0.0312737082
C   C58       1.0  0.77471  0.12227  0.54820  1.0000 0.0312737082
C   C59       1.0  0.87773  0.22529  0.04820  1.0000 0.0312737082
C   C60       1.0  0.22529  0.87773  0.45180  1.0000 0.0312737082
C   C61       1.0  0.10584  0.73804  0.02520  1.0000 -0.0827334485
C   C62       1.0  0.73804  0.10584  0.47480  1.0000 -0.0827334485
C   C63       1.0  0.89416  0.26196  0.97480  1.0000 -0.0827334485
C   C64       1.0  0.26196  0.89416  0.52520  1.0000 -0.0827334485
C   C65       1.0  0.08858  0.40578  0.92150  1.0000 0.4607140758
C   C66       1.0  0.40578  0.08858  0.57850  1.0000 0.4607140758
C   C67       1.0  0.91142  0.59422  0.07850  1.0000 0.4607140758
C   C68       1.0  0.59422  0.91142  0.42150  1.0000 0.4607140758
C   C69       1.0  0.03337  0.47757  0.92280  1.0000 -0.0401132343
C   C70       1.0  0.47757  0.03337  0.57720  1.0000 -0.0401132343
C   C71       1.0  0.96663  0.52243  0.07720  1.0000 -0.0401132343
C   C72       1.0  0.52243  0.96663  0.42280  1.0000 -0.0401132343
C   C73       1.0  0.98990  0.55610  0.84890  1.0000 -0.0187660603
C   C74       1.0  0.55610  0.98990  0.65110  1.0000 -0.0187660603
C   C75       1.0  0.01010  0.44390  0.15110  1.0000 -0.0187660603
C   C76       1.0  0.44390  0.01010  0.34890  1.0000 -0.0187660603
C   C77       1.0  0.94000  0.62600  0.85060  1.0000 -0.0401132343
C   C78       1.0  0.62600  0.94000  0.64940  1.0000 -0.0401132343
C   C79       1.0  0.06000  0.37400  0.14940  1.0000 -0.0401132343
C   C80       1.0  0.37400  0.06000  0.35060  1.0000 -0.0401132343
C   C81       1.0  0.93350  0.61630  0.92530  1.0000 -0.048488646
C   C82       1.0  0.61630  0.93350  0.57470  1.0000 -0.048488646
C   C83       1.0  0.06650  0.38370  0.07470  1.0000 -0.048488646
C   C84       1.0  0.38370  0.06650  0.42530  1.0000 -0.048488646
C   C85       1.0  0.02545  0.46485  0.99940  1.0000 0.0312737082
C   C86       1.0  0.46485  0.02545  0.50060  1.0000 0.0312737082
C   C87       1.0  0.97455  0.53515  0.00060  1.0000 0.0312737082
C   C88       1.0  0.53515  0.97455  0.49940  1.0000 0.0312737082
C   C89       1.0  0.11699  0.30859  0.07350  1.0000 0.4405543023
C   C90       1.0  0.30859  0.11699  0.42650  1.0000 0.4405543023
C   C91       1.0  0.88301  0.69141  0.92650  1.0000 0.4405543023
C   C92       1.0  0.69141  0.88301  0.57350  1.0000 0.4405543023
C   C93       1.0  0.30498  0.52618  0.99420  1.0000 0.446185995
C   C94       1.0  0.52618  0.30498  0.50580  1.0000 0.446185995
C   C95       1.0  0.69502  0.47382  0.00580  1.0000 0.446185995
C   C96       1.0  0.47382  0.69502  0.49420  1.0000 0.446185995
C   C97       1.0  0.39484  0.64544  0.02150  1.0000 0.4405543023
C   C98       1.0  0.64544  0.39484  0.47850  1.0000 0.4405543023
C   C99       1.0  0.60516  0.35456  0.97850  1.0000 0.4405543023
C   C100      1.0  0.35456  0.60516  0.52150  1.0000 0.4405543023
C   C101      1.0  0.38195  0.48355  0.98850  1.0000 -0.048488646
C   C102      1.0  0.48355  0.38195  0.51150  1.0000 -0.048488646
C   C103      1.0  0.61805  0.51645  0.01150  1.0000 -0.048488646
C   C104      1.0  0.51645  0.61805  0.48850  1.0000 -0.048488646
C   C105      1.0  0.37466  0.40766  0.97250  1.0000 -0.048488646
C   C106      1.0  0.40766  0.37466  0.52750  1.0000 -0.048488646
C   C107      1.0  0.62534  0.59234  0.02750  1.0000 -0.048488646
C   C108      1.0  0.59234  0.62534  0.47250  1.0000 -0.048488646
C   C109      1.0  0.44920  0.36440  0.97050  1.0000 -0.030757828
C   C110      1.0  0.36440  0.44920  0.52950  1.0000 -0.030757828
C   C111      1.0  0.55080  0.63560  0.02950  1.0000 -0.030757828
C   C112      1.0  0.63560  0.55080  0.47050  1.0000 -0.030757828
C   C113      1.0  0.47199  0.60039  0.01730  1.0000 -0.030757828
C   C114      1.0  0.60039  0.47199  0.48270  1.0000 -0.030757828
C   C115      1.0  0.52801  0.39961  0.98270  1.0000 -0.030757828
C   C116      1.0  0.39961  0.52801  0.51730  1.0000 -0.030757828
C   C117      1.0  0.46316  0.52142  0.00170  1.0000 0.0312737082
C   C118      1.0  0.52142  0.46316  0.49830  1.0000 0.0312737082
C   C119      1.0  0.53684  0.47858  0.99830  1.0000 0.0312737082
C   C120      1.0  0.47858  0.53684  0.50170  1.0000 0.0312737082
N   N1        1.0  0.31574  0.60542  0.00790  1.0000 -0.2096791732
N   N2        1.0  0.60542  0.31574  0.49210  1.0000 -0.2096791732
N   N3        1.0  0.68426  0.39458  0.99210  1.0000 -0.2096791732
N   N4        1.0  0.39458  0.68426  0.50790  1.0000 -0.2096791732
N   N5        1.0  0.12321  0.32411  0.99620  1.0000 -0.2096791732
N   N6        1.0  0.32411  0.12321  0.50380  1.0000 -0.2096791732
N   N7        1.0  0.87679  0.67589  0.00380  1.0000 -0.2096791732
N   N8        1.0  0.67589  0.87679  0.49620  1.0000 -0.2096791732
O   O1        1.0  0.04319  0.12563  0.83201  1.0000 -0.4201531595
O   O2        1.0  0.12563  0.04319  0.66799  1.0000 -0.4201531595
O   O3        1.0  0.95681  0.87437  0.16799  1.0000 -0.4201531595
O   O4        1.0  0.87437  0.95681  0.33201  1.0000 -0.4201531595
O   O5        1.0  0.17477  0.05359  0.86029  1.0000 -0.4387966058
O   O6        1.0  0.05359  0.17477  0.63971  1.0000 -0.4387966058
O   O7        1.0  0.82523  0.94641  0.13971  1.0000 -0.4387966058
O   O8        1.0  0.94641  0.82523  0.36029  1.0000 -0.4387966058
O   O9        1.0  0.02589  0.91407  0.89767  1.0000 -0.4201531595
O   O10       1.0  0.91407  0.02589  0.60233  1.0000 -0.4201531595
O   O11       1.0  0.97411  0.08593  0.10233  1.0000 -0.4201531595
O   O12       1.0  0.08593  0.97411  0.39767  1.0000 -0.4201531595
O   O13       1.0  0.08263  0.89197  0.81356  1.0000 -0.4526494405
O   O14       1.0  0.89197  0.08263  0.68644  1.0000 -0.4526494405
O   O15       1.0  0.91737  0.10803  0.18644  1.0000 -0.4526494405
O   O16       1.0  0.10803  0.91737  0.31356  1.0000 -0.4526494405
O   O17       1.0  0.07936  0.65852  0.17680  1.0000 -0.4274783692
O   O18       1.0  0.65852  0.07936  0.32320  1.0000 -0.4274783692
O   O19       1.0  0.92064  0.34148  0.82320  1.0000 -0.4274783692
O   O20       1.0  0.34148  0.92064  0.67680  1.0000 -0.4274783692
O   O21       1.0  0.19183  0.54443  0.23120  1.0000 -0.4594321883
O   O22       1.0  0.54443  0.19183  0.26880  1.0000 -0.4594321883
O   O23       1.0  0.80817  0.45557  0.76880  1.0000 -0.4594321883
O   O24       1.0  0.45557  0.80817  0.73120  1.0000 -0.4594321883
O   O25       1.0  0.45230  0.17610  0.13480  1.0000 -0.4201531595
O   O26       1.0  0.17610  0.45230  0.36520  1.0000 -0.4201531595
O   O27       1.0  0.54770  0.82390  0.86520  1.0000 -0.4201531595
O   O28       1.0  0.82390  0.54770  0.63480  1.0000 -0.4201531595
O   O29       1.0  0.45000  0.05220  0.11090  1.0000 -0.3736856193
O   O30       1.0  0.05220  0.45000  0.38910  1.0000 -0.3736856193
O   O31       1.0  0.55000  0.94780  0.88910  1.0000 -0.3754848352
O   O32       1.0  0.94780  0.55000  0.61090  1.0000 -0.3736856193
O   O33       1.0  0.10246  0.41430  0.85958  1.0000 -0.3334745875
O   O34       1.0  0.41430  0.10246  0.64042  1.0000 -0.3334745875
O   O35       1.0  0.89754  0.58570  0.14042  1.0000 -0.3334745875
O   O36       1.0  0.58570  0.89754  0.35958  1.0000 -0.3334745875
O   O37       1.0  0.15084  0.23670  0.13520  1.0000 -0.3481505922
O   O38       1.0  0.23670  0.15084  0.36480  1.0000 -0.3481505922
O   O39       1.0  0.84916  0.76330  0.86480  1.0000 -0.3481505922
O   O40       1.0  0.76330  0.84916  0.63520  1.0000 -0.3481505922
O   O41       1.0  0.23596  0.49420  0.98830  1.0000 -0.4113115928
O   O42       1.0  0.49420  0.23596  0.51170  1.0000 -0.4113115928
O   O43       1.0  0.76404  0.50580  0.01170  1.0000 -0.4113115928
O   O44       1.0  0.50580  0.76404  0.48830  1.0000 -0.4113115928
O   O45       1.0  0.39861  0.71309  0.03470  1.0000 -0.3420528284
O   O46       1.0  0.71309  0.39861  0.46530  1.0000 -0.3420528284
O   O47       1.0  0.60139  0.28691  0.96530  1.0000 -0.3420528284
O   O48       1.0  0.28691  0.60139  0.53470  1.0000 -0.3420528284
