# DDEC6 charges by PACMAN v1.1 (https://github.com/mtap-research/PACMAN-charge/)
data_2023[Cd][nan]3[FSR]6
_chemical_formula_sum              "Cd4 H96 C140 N8 O32"
_cell_length_a       16.3979
_cell_length_b       16.3979
_cell_length_c       19.4981
_cell_angle_alpha    55.6071
_cell_angle_beta     124.393
_cell_angle_gamma    117.449

_symmetry_space_group_name_H-M    "P 1"
_symmetry_Int_Tables_number       1

loop_
  _symmetry_equiv_pos_as_xyz
  'x, y, z'

loop_
  _atom_site_type_symbol
  _atom_site_label
  _atom_site_symmetry_multiplicity
  _atom_site_fract_x
  _atom_site_fract_y
  _atom_site_fract_z
  _atom_site_occupancy
  _atom_site_charge
Cd  Cd1       1.0  0.02274  0.02274  0.25000  1.0000 0.9056003615
Cd  Cd2       1.0  0.97726  0.97726  0.75000  1.0000 0.9056003615
Cd  Cd3       1.0  0.47659  0.47659  0.75000  1.0000 0.9163305983
Cd  Cd4       1.0  0.52341  0.52341  0.25000  1.0000 0.9163305983
H   H1        1.0  0.67492  0.73024  0.54328  1.0000 0.1274538237
H   H2        1.0  0.73025  0.67493  0.95672  1.0000 0.1274538237
H   H3        1.0  0.32508  0.26976  0.45672  1.0000 0.1274538237
H   H4        1.0  0.26975  0.32507  0.04328  1.0000 0.1274538237
H   H5        1.0  0.50174  0.69364  0.46591  1.0000 0.1274538237
H   H6        1.0  0.69364  0.50174  0.03409  1.0000 0.1274538237
H   H7        1.0  0.49826  0.30636  0.53409  1.0000 0.1274538237
H   H8        1.0  0.30636  0.49826  0.96591  1.0000 0.1274538237
H   H9        1.0  0.47959  0.91213  0.48498  1.0000 0.1207641168
H   H10       1.0  0.91213  0.47959  0.01502  1.0000 0.1207641168
H   H11       1.0  0.52041  0.08787  0.51502  1.0000 0.1207641168
H   H12       1.0  0.08787  0.52041  0.98498  1.0000 0.1207641168
H   H13       1.0  0.65065  0.94635  0.56402  1.0000 0.1274538237
H   H14       1.0  0.94635  0.65065  0.93598  1.0000 0.1274538237
H   H15       1.0  0.34935  0.05365  0.43598  1.0000 0.1274538237
H   H16       1.0  0.05365  0.34935  0.06402  1.0000 0.1274538237
H   H17       1.0  0.34305  0.90789  0.34526  1.0000 0.1274538237
H   H18       1.0  0.90789  0.34305  0.15474  1.0000 0.1274538237
H   H19       1.0  0.65695  0.09211  0.65474  1.0000 0.1274538237
H   H20       1.0  0.09211  0.65695  0.84526  1.0000 0.1274538237
H   H21       1.0  0.16480  0.58274  0.41708  1.0000 0.1274538237
H   H22       1.0  0.58274  0.16480  0.08292  1.0000 0.1274538237
H   H23       1.0  0.83520  0.41726  0.58292  1.0000 0.1274538237
H   H24       1.0  0.41726  0.83520  0.91708  1.0000 0.1274538237
H   H25       1.0  0.02410  0.58760  0.41771  1.0000 0.1207641168
H   H26       1.0  0.58760  0.02410  0.08229  1.0000 0.1207641168
H   H27       1.0  0.97590  0.41240  0.58229  1.0000 0.1207641168
H   H28       1.0  0.41240  0.97590  0.91771  1.0000 0.1207641168
H   H29       1.0  0.84960  0.55202  0.35542  1.0000 0.1274538237
H   H30       1.0  0.55202  0.84960  0.14458  1.0000 0.1274538237
H   H31       1.0  0.15040  0.44798  0.64458  1.0000 0.1274538237
H   H32       1.0  0.44798  0.15040  0.85542  1.0000 0.1274538237
H   H33       1.0  0.84227  0.75533  0.10890  1.0000 0.1207641168
H   H34       1.0  0.75533  0.84227  0.39110  1.0000 0.1207641168
H   H35       1.0  0.15773  0.24467  0.89110  1.0000 0.1207641168
H   H36       1.0  0.24467  0.15773  0.60890  1.0000 0.1207641168
H   H37       1.0  0.01577  0.78831  0.17025  1.0000 0.1274538237
H   H38       1.0  0.78831  0.01577  0.32975  1.0000 0.1274538237
H   H39       1.0  0.98423  0.21169  0.82975  1.0000 0.1274538237
H   H40       1.0  0.21169  0.98423  0.67025  1.0000 0.1274538237
H   H41       1.0  0.71004  0.57034  0.80917  1.0000 0.1113543045
H   H42       1.0  0.57034  0.71004  0.69083  1.0000 0.1113543045
H   H43       1.0  0.28996  0.42966  0.19083  1.0000 0.1113543045
H   H44       1.0  0.42966  0.28996  0.30917  1.0000 0.1113543045
H   H45       1.0  0.84985  0.57257  0.81363  1.0000 0.1491663307
H   H46       1.0  0.57257  0.84985  0.68637  1.0000 0.1491663307
H   H47       1.0  0.15015  0.42743  0.18637  1.0000 0.1491663307
H   H48       1.0  0.42743  0.15015  0.31363  1.0000 0.1491663307
H   H49       1.0  0.67220  0.47980  0.61479  1.0000 0.1573565379
H   H50       1.0  0.47980  0.67220  0.88521  1.0000 0.1573565379
H   H51       1.0  0.32780  0.52020  0.38521  1.0000 0.1573565379
H   H52       1.0  0.52020  0.32780  0.11479  1.0000 0.1573565379
H   H53       1.0  0.53789  0.46923  0.62573  1.0000 0.1207641168
H   H54       1.0  0.46923  0.53789  0.87427  1.0000 0.1207641168
H   H55       1.0  0.46211  0.53077  0.37427  1.0000 0.1207641168
H   H56       1.0  0.53077  0.46211  0.12573  1.0000 0.1207641168
H   H57       1.0  0.93054  0.53858  0.76159  1.0000 0.1113543045
H   H58       1.0  0.53858  0.93054  0.73841  1.0000 0.1113543045
H   H59       1.0  0.06945  0.46141  0.23841  1.0000 0.1113543045
H   H60       1.0  0.46142  0.06945  0.26159  1.0000 0.1113543045
H   H61       1.0  0.86300  0.47032  0.70687  1.0000 0.1207641168
H   H62       1.0  0.47032  0.86300  0.79313  1.0000 0.1207641168
H   H63       1.0  0.13700  0.52968  0.29313  1.0000 0.1207641168
H   H64       1.0  0.52968  0.13700  0.20687  1.0000 0.1207641168
H   H65       1.0  0.87065  0.68513  0.61681  1.0000 0.1207641168
H   H66       1.0  0.68513  0.87065  0.88319  1.0000 0.1207641168
H   H67       1.0  0.12935  0.31487  0.38319  1.0000 0.1207641168
H   H68       1.0  0.31487  0.12935  0.11681  1.0000 0.1207641168
H   H69       1.0  0.81683  0.61485  0.56536  1.0000 0.1113543045
H   H70       1.0  0.61485  0.81683  0.93464  1.0000 0.1113543045
H   H71       1.0  0.18317  0.38515  0.43464  1.0000 0.1113543045
H   H72       1.0  0.38515  0.18317  0.06536  1.0000 0.1113543045
H   H73       1.0  0.02732  0.65732  0.66971  1.0000 0.1207641168
H   H74       1.0  0.65732  0.02732  0.83029  1.0000 0.1207641168
H   H75       1.0  0.97268  0.34268  0.33029  1.0000 0.1207641168
H   H76       1.0  0.34268  0.97268  0.16971  1.0000 0.1207641168
H   H77       1.0  0.97524  0.58156  0.62403  1.0000 0.1113543045
H   H78       1.0  0.58156  0.97524  0.87597  1.0000 0.1113543045
H   H79       1.0  0.02476  0.41844  0.37597  1.0000 0.1113543045
H   H80       1.0  0.41844  0.02476  0.12403  1.0000 0.1113543045
H   H81       1.0  0.00500  0.84359  0.55920  1.0000 0.1573565379
H   H82       1.0  0.84359  0.00501  0.94080  1.0000 0.1573565379
H   H83       1.0  0.99499  0.15640  0.44080  1.0000 0.1573565379
H   H84       1.0  0.15640  0.99499  0.05920  1.0000 0.1573565379
H   H85       1.0  0.01809  0.97213  0.43079  1.0000 0.1207641168
H   H86       1.0  0.97213  0.01809  0.06921  1.0000 0.1207641168
H   H87       1.0  0.98191  0.02787  0.56921  1.0000 0.1207641168
H   H88       1.0  0.02787  0.98191  0.93079  1.0000 0.1207641168
H   H89       1.0  0.92841  0.79039  0.32615  1.0000 0.1010743926
H   H90       1.0  0.79039  0.92841  0.17385  1.0000 0.1010743926
H   H91       1.0  0.07159  0.20961  0.67385  1.0000 0.1010743926
H   H92       1.0  0.20961  0.07159  0.82615  1.0000 0.1010743926
H   H93       1.0  0.91934  0.65320  0.45558  1.0000 0.1491663307
H   H94       1.0  0.65320  0.91934  0.04442  1.0000 0.1491663307
H   H95       1.0  0.08066  0.34680  0.54442  1.0000 0.1491663307
H   H96       1.0  0.34680  0.08066  0.95558  1.0000 0.1491663307
C   C1        1.0  0.79190  0.86910  0.61160  1.0000 0.5716986954
C   C2        1.0  0.86910  0.79190  0.88840  1.0000 0.5716986954
C   C3        1.0  0.20810  0.13090  0.38840  1.0000 0.5716986954
C   C4        1.0  0.13090  0.20810  0.11160  1.0000 0.5716986954
C   C5        1.0  0.67950  0.84510  0.55920  1.0000 -0.0189804733
C   C6        1.0  0.84510  0.67950  0.94080  1.0000 -0.0189804733
C   C7        1.0  0.32050  0.15490  0.44080  1.0000 -0.0189804733
C   C8        1.0  0.15490  0.32050  0.05920  1.0000 -0.0189804733
C   C9        1.0  0.63520  0.76640  0.53160  1.0000 -0.0905949026
C   C10       1.0  0.76640  0.63520  0.96840  1.0000 -0.0905949026
C   C11       1.0  0.36480  0.23360  0.46840  1.0000 -0.0905949026
C   C12       1.0  0.23360  0.36480  0.03160  1.0000 -0.0905949026
C   C13       1.0  0.53180  0.74360  0.48700  1.0000 -0.130445607
C   C14       1.0  0.74360  0.53180  0.01300  1.0000 -0.130445607
C   C15       1.0  0.46820  0.25640  0.51300  1.0000 -0.130445607
C   C16       1.0  0.25640  0.46820  0.98700  1.0000 -0.130445607
C   C17       1.0  0.47090  0.79450  0.47270  1.0000 0.0801370889
C   C18       1.0  0.79450  0.47090  0.02730  1.0000 0.0801370889
C   C19       1.0  0.52910  0.20550  0.52730  1.0000 0.0801370889
C   C20       1.0  0.20550  0.52910  0.97270  1.0000 0.0801370889
C   C21       1.0  0.51820  0.87340  0.49850  1.0000 -0.1577970162
C   C22       1.0  0.87340  0.51820  0.00150  1.0000 -0.1577970162
C   C23       1.0  0.48180  0.12660  0.50150  1.0000 -0.1577970162
C   C24       1.0  0.12660  0.48180  0.99850  1.0000 -0.1577970162
C   C25       1.0  0.62070  0.89570  0.54360  1.0000 -0.1067578103
C   C26       1.0  0.89570  0.62070  0.95640  1.0000 -0.1067578103
C   C27       1.0  0.37930  0.10430  0.45640  1.0000 -0.1067578103
C   C28       1.0  0.10430  0.37930  0.04360  1.0000 -0.1067578103
C   C29       1.0  0.15550  0.91250  0.26450  1.0000 0.5588558838
C   C30       1.0  0.91250  0.15550  0.23550  1.0000 0.5588558838
C   C31       1.0  0.84450  0.08750  0.73550  1.0000 0.5588558838
C   C32       1.0  0.08750  0.84450  0.76450  1.0000 0.5588558838
C   C33       1.0  0.20340  0.82160  0.32210  1.0000 -0.0379560161
C   C34       1.0  0.82160  0.20340  0.17790  1.0000 -0.0379560161
C   C35       1.0  0.79660  0.17840  0.67790  1.0000 -0.0379560161
C   C36       1.0  0.17840  0.79660  0.82210  1.0000 -0.0379560161
C   C37       1.0  0.30780  0.84120  0.36310  1.0000 -0.1390763894
C   C38       1.0  0.84120  0.30780  0.13690  1.0000 -0.1390763894
C   C39       1.0  0.69220  0.15880  0.63690  1.0000 -0.1390763894
C   C40       1.0  0.15880  0.69220  0.86310  1.0000 -0.1390763894
C   C41       1.0  0.35970  0.76810  0.42730  1.0000 0.0517015765
C   C42       1.0  0.76810  0.35970  0.07270  1.0000 0.0517015765
C   C43       1.0  0.64030  0.23190  0.57270  1.0000 0.0517015765
C   C44       1.0  0.23190  0.64030  0.92730  1.0000 0.0517015765
C   C45       1.0  0.30680  0.66880  0.45230  1.0000 -0.0379560161
C   C46       1.0  0.66880  0.30680  0.04770  1.0000 -0.0379560161
C   C47       1.0  0.69320  0.33120  0.54770  1.0000 -0.0379560161
C   C48       1.0  0.33120  0.69320  0.95230  1.0000 -0.0379560161
C   C49       1.0  0.20020  0.64940  0.40470  1.0000 -0.1537105367
C   C50       1.0  0.64940  0.20020  0.09530  1.0000 -0.1537105367
C   C51       1.0  0.79980  0.35060  0.59530  1.0000 -0.1537105367
C   C52       1.0  0.35060  0.79980  0.90470  1.0000 -0.1537105367
C   C53       1.0  0.14930  0.72330  0.34290  1.0000 0.0517015765
C   C54       1.0  0.72330  0.14930  0.15710  1.0000 0.0517015765
C   C55       1.0  0.85070  0.27670  0.65710  1.0000 0.0517015765
C   C56       1.0  0.27670  0.85070  0.84290  1.0000 0.0517015765
C   C57       1.0  0.03790  0.69830  0.30030  1.0000 0.0801370889
C   C58       1.0  0.69830  0.03790  0.19970  1.0000 0.0801370889
C   C59       1.0  0.96210  0.30170  0.69970  1.0000 0.0801370889
C   C60       1.0  0.30170  0.96210  0.80030  1.0000 0.0801370889
C   C61       1.0  0.98770  0.62290  0.35570  1.0000 -0.1577970162
C   C62       1.0  0.62290  0.98770  0.14430  1.0000 -0.1577970162
C   C63       1.0  0.01230  0.37710  0.64430  1.0000 -0.1577970162
C   C64       1.0  0.37710  0.01230  0.85570  1.0000 -0.1577970162
C   C65       1.0  0.88310  0.60090  0.31790  1.0000 -0.101703018
C   C66       1.0  0.60090  0.88310  0.18210  1.0000 -0.101703018
C   C67       1.0  0.11690  0.39910  0.68210  1.0000 -0.101703018
C   C68       1.0  0.39910  0.11690  0.81790  1.0000 -0.101703018
C   C69       1.0  0.82960  0.64820  0.22890  1.0000 -0.0189804733
C   C70       1.0  0.64820  0.82960  0.27110  1.0000 -0.0189804733
C   C71       1.0  0.17040  0.35180  0.77110  1.0000 -0.0189804733
C   C72       1.0  0.35180  0.17040  0.72890  1.0000 -0.0189804733
C   C73       1.0  0.87910  0.72170  0.17120  1.0000 -0.0905949026
C   C74       1.0  0.72170  0.87910  0.32880  1.0000 -0.0905949026
C   C75       1.0  0.12090  0.27830  0.82880  1.0000 -0.0905949026
C   C76       1.0  0.27830  0.12090  0.67120  1.0000 -0.0905949026
C   C77       1.0  0.98250  0.74270  0.20840  1.0000 -0.1390763894
C   C78       1.0  0.74270  0.98250  0.29160  1.0000 -0.1390763894
C   C79       1.0  0.01750  0.25730  0.79160  1.0000 -0.130445607
C   C80       1.0  0.25730  0.01750  0.70840  1.0000 -0.130445607
C   C81       1.0  0.35330  0.58070  0.53180  1.0000 0.5588558838
C   C82       1.0  0.58070  0.35330  0.96820  1.0000 0.5588558838
C   C83       1.0  0.64670  0.41930  0.46820  1.0000 0.5588558838
C   C84       1.0  0.41930  0.64670  0.03180  1.0000 0.5588558838
C   C85       1.0  0.71710  0.62710  0.19130  1.0000 0.5716986954
C   C86       1.0  0.62710  0.71710  0.30870  1.0000 0.5716986954
C   C87       1.0  0.28290  0.37290  0.80870  1.0000 0.5716986954
C   C88       1.0  0.37290  0.28290  0.69130  1.0000 0.5716986954
C   C89       1.0  0.70280  0.54700  0.77180  1.0000 0.0641992577
C   C90       1.0  0.54700  0.70280  0.72820  1.0000 0.0641992577
C   C91       1.0  0.29720  0.45300  0.22820  1.0000 0.0641992577
C   C92       1.0  0.45300  0.29720  0.27180  1.0000 0.0641992577
C   C93       1.0  0.78670  0.55230  0.77290  1.0000 -0.1894252784
C   C94       1.0  0.55230  0.78670  0.72710  1.0000 -0.1894252784
C   C95       1.0  0.21330  0.44770  0.22710  1.0000 -0.1894252784
C   C96       1.0  0.44770  0.21330  0.27290  1.0000 -0.1894252784
C   C97       1.0  0.77840  0.52680  0.71200  1.0000 0.1807883922
C   C98       1.0  0.52680  0.77840  0.78800  1.0000 0.1807883922
C   C99       1.0  0.22160  0.47320  0.28800  1.0000 0.1807883922
C   C100      1.0  0.47320  0.22160  0.21200  1.0000 0.1807883922
C   C101      1.0  0.68300  0.49660  0.65790  1.0000 -0.1894252784
C   C102      1.0  0.49660  0.68300  0.84210  1.0000 -0.1894252784
C   C103      1.0  0.31700  0.50340  0.34210  1.0000 -0.1894252784
C   C104      1.0  0.50340  0.31700  0.15790  1.0000 -0.1894252784
C   C105      1.0  0.60230  0.49030  0.66470  1.0000 0.1010743926
C   C106      1.0  0.49030  0.60230  0.83530  1.0000 0.1010743926
C   C107      1.0  0.39770  0.50970  0.33530  1.0000 0.1010743926
C   C108      1.0  0.50970  0.39770  0.16470  1.0000 0.1010743926
C   C109      1.0  0.86970  0.53110  0.70870  1.0000 -0.2297006696
C   C110      1.0  0.53110  0.86970  0.79130  1.0000 -0.2297006696
C   C111      1.0  0.13030  0.46890  0.29130  1.0000 -0.2297006696
C   C112      1.0  0.46890  0.13030  0.20870  1.0000 -0.2297006696
C   C113      1.0  0.87350  0.62630  0.61840  1.0000 -0.130445607
C   C114      1.0  0.62630  0.87350  0.88160  1.0000 -0.130445607
C   C115      1.0  0.12650  0.37370  0.38160  1.0000 -0.130445607
C   C116      1.0  0.37370  0.12650  0.11840  1.0000 -0.130445607
C   C117      1.0  0.97070  0.64210  0.61860  1.0000 -0.2297006696
C   C118      1.0  0.64210  0.97070  0.88140  1.0000 -0.2297006696
C   C119      1.0  0.02930  0.35790  0.38140  1.0000 -0.2297006696
C   C120      1.0  0.35790  0.02930  0.11860  1.0000 -0.2297006696
C   C121      1.0  0.97290  0.73230  0.52650  1.0000 0.1807883922
C   C122      1.0  0.73230  0.97290  0.97350  1.0000 0.1807883922
C   C123      1.0  0.02710  0.26770  0.47350  1.0000 0.1807883922
C   C124      1.0  0.26770  0.02710  0.02650  1.0000 0.1807883922
C   C125      1.0  0.99460  0.83060  0.51380  1.0000 -0.1894252784
C   C126      1.0  0.83060  0.99460  0.98620  1.0000 -0.1894252784
C   C127      1.0  0.00540  0.16940  0.48620  1.0000 -0.1894252784
C   C128      1.0  0.16940  0.00540  0.01380  1.0000 -0.1894252784
C   C129      1.0  0.00050  0.90650  0.43680  1.0000 0.1010743926
C   C130      1.0  0.90650  0.00050  0.06320  1.0000 0.1010743926
C   C131      1.0  0.99950  0.09350  0.56320  1.0000 0.1010743926
C   C132      1.0  0.09350  0.99950  0.93680  1.0000 0.1010743926
C   C133      1.0  0.94920  0.80020  0.37680  1.0000 0.0641992577
C   C134      1.0  0.80020  0.94920  0.12320  1.0000 0.0641992577
C   C135      1.0  0.05080  0.19980  0.62320  1.0000 0.0641992577
C   C136      1.0  0.19980  0.05080  0.87680  1.0000 0.0641992577
C   C137      1.0  0.94320  0.71780  0.45340  1.0000 -0.1894252784
C   C138      1.0  0.71780  0.94320  0.04660  1.0000 -0.1894252784
C   C139      1.0  0.05680  0.28220  0.54660  1.0000 -0.1894252784
C   C140      1.0  0.28220  0.05680  0.95340  1.0000 -0.1894252784
N   N1        1.0  0.61050  0.51190  0.72260  1.0000 -0.2297006696
N   N2        1.0  0.51190  0.61050  0.77740  1.0000 -0.2297006696
N   N3        1.0  0.38950  0.48810  0.27740  1.0000 -0.2297006696
N   N4        1.0  0.48810  0.38950  0.22260  1.0000 -0.2297006696
N   N5        1.0  0.98300  0.89380  0.36990  1.0000 -0.2396531403
N   N6        1.0  0.89380  0.98300  0.13010  1.0000 -0.2396531403
N   N7        1.0  0.01700  0.10620  0.63010  1.0000 -0.2396531403
N   N8        1.0  0.10620  0.01700  0.86990  1.0000 -0.2396531403
O   O1        1.0  0.82760  0.92540  0.64630  1.0000 -0.5009994234
O   O2        1.0  0.92540  0.82760  0.85370  1.0000 -0.5009994234
O   O3        1.0  0.17240  0.07460  0.35370  1.0000 -0.5009994234
O   O4        1.0  0.07460  0.17240  0.14630  1.0000 -0.5009994234
O   O5        1.0  0.84040  0.82220  0.61550  1.0000 -0.5166384801
O   O6        1.0  0.82220  0.84040  0.88450  1.0000 -0.5166384801
O   O7        1.0  0.15960  0.17780  0.38450  1.0000 -0.5166384801
O   O8        1.0  0.17780  0.15960  0.11550  1.0000 -0.5166384801
O   O9        1.0  0.09630  0.91190  0.28070  1.0000 -0.4633972161
O   O10       1.0  0.91190  0.09630  0.21930  1.0000 -0.4633972161
O   O11       1.0  0.90370  0.08810  0.71930  1.0000 -0.4633972161
O   O12       1.0  0.08810  0.90370  0.78070  1.0000 -0.4633972161
O   O13       1.0  0.18460  0.98440  0.20400  1.0000 -0.4633972161
O   O14       1.0  0.98440  0.18460  0.29600  1.0000 -0.4633972161
O   O15       1.0  0.81540  0.01560  0.79600  1.0000 -0.4633972161
O   O16       1.0  0.01560  0.81540  0.70400  1.0000 -0.4633972161
O   O17       1.0  0.40330  0.58390  0.60520  1.0000 -0.5009994234
O   O18       1.0  0.58390  0.40330  0.89480  1.0000 -0.5009994234
O   O19       1.0  0.59670  0.41610  0.39480  1.0000 -0.5009994234
O   O20       1.0  0.41610  0.59670  0.10520  1.0000 -0.5009994234
O   O21       1.0  0.33340  0.50740  0.51650  1.0000 -0.4942226186
O   O22       1.0  0.50740  0.33340  0.98350  1.0000 -0.4942226186
O   O23       1.0  0.66667  0.49260  0.48350  1.0000 -0.4942226186
O   O24       1.0  0.49260  0.66667  0.01650  1.0000 -0.4942226186
O   O25       1.0  0.67570  0.57550  0.24130  1.0000 -0.5009994234
O   O26       1.0  0.57550  0.67570  0.25870  1.0000 -0.5009994234
O   O27       1.0  0.32430  0.42450  0.75870  1.0000 -0.5009994234
O   O28       1.0  0.42450  0.32430  0.74130  1.0000 -0.5009994234
O   O29       1.0  0.67170  0.66870  0.10310  1.0000 -0.5110362545
O   O30       1.0  0.66870  0.67170  0.39690  1.0000 -0.5110362545
O   O31       1.0  0.32830  0.33130  0.89690  1.0000 -0.5110362545
O   O32       1.0  0.33130  0.32830  0.60310  1.0000 -0.5110362545
