# DDEC6 charges by PACMAN v1.1 (https://github.com/mtap-research/PACMAN-charge/)
data_2023[Zn][sql]2[FSR]19
_chemical_formula_sum              "Zn2 H36 C60 N8 O8"
_cell_length_a       6.7006
_cell_length_b       12.741
_cell_length_c       17.125
_cell_angle_alpha    110.03
_cell_angle_beta     96.848
_cell_angle_gamma    89.168

_symmetry_space_group_name_H-M    "P 1"
_symmetry_Int_Tables_number       1

loop_
  _symmetry_equiv_pos_as_xyz
  'x, y, z'

loop_
  _atom_site_type_symbol
  _atom_site_label
  _atom_site_symmetry_multiplicity
  _atom_site_fract_x
  _atom_site_fract_y
  _atom_site_fract_z
  _atom_site_occupancy
  _atom_site_charge
Zn  Zn1       1.0  0.79838  0.99242  0.80204  1.0000 0.7487228104
Zn  Zn2       1.0  0.20162  0.00758  0.19796  1.0000 0.7487228104
H   H1        1.0  0.36603  0.05566  0.80027  1.0000 0.1094780975
H   H2        1.0  0.63397  0.94434  0.19973  1.0000 0.1094780975
H   H3        1.0  0.60091  0.64618  0.84745  1.0000 0.1398661082
H   H4        1.0  0.39909  0.35382  0.15255  1.0000 0.1398661082
H   H5        1.0  0.65935  0.96186  0.48918  1.0000 0.1192300835
H   H6        1.0  0.34065  0.03814  0.51082  1.0000 0.1192300835
H   H7        1.0  0.17278  0.18966  0.77133  1.0000 0.1398661082
H   H8        1.0  0.82722  0.81034  0.22867  1.0000 0.1398661082
H   H9        1.0  0.01438  0.58842  0.68061  1.0000 0.1296900698
H   H10       1.0  0.98562  0.41158  0.31939  1.0000 0.1296900698
H   H11       1.0  0.24059  0.86656  0.95679  1.0000 0.1192300835
H   H12       1.0  0.75941  0.13344  0.04321  1.0000 0.1192300835
H   H13       1.0  0.54700  0.82868  0.01713  1.0000 0.1094780975
H   H14       1.0  0.45300  0.17132  0.98287  1.0000 0.1094780975
H   H15       1.0  0.78410  0.80429  0.86451  1.0000 0.1192300835
H   H16       1.0  0.21590  0.19571  0.13549  1.0000 0.1192300835
H   H17       1.0  0.67434  0.37618  0.80526  1.0000 0.1398661082
H   H18       1.0  0.32566  0.62382  0.19474  1.0000 0.1398661082
H   H19       1.0  0.68056  0.54888  0.65819  1.0000 0.1094780975
H   H20       1.0  0.31944  0.45112  0.34181  1.0000 0.1094780975
H   H21       1.0  0.04590  0.27760  0.68908  1.0000 0.1192300835
H   H22       1.0  0.95410  0.72240  0.31092  1.0000 0.1192300835
H   H23       1.0  0.85344  0.23809  0.83666  1.0000 0.1192300835
H   H24       1.0  0.14656  0.76191  0.16334  1.0000 0.1192300835
H   H25       1.0  0.85587  0.23228  0.56153  1.0000 0.1192300835
H   H26       1.0  0.14413  0.76772  0.43847  1.0000 0.1192300835
H   H27       1.0  0.79473  0.97880  0.37624  1.0000 0.1192300835
H   H28       1.0  0.20527  0.02120  0.62376  1.0000 0.1192300835
H   H29       1.0  0.20606  0.72325  0.68158  1.0000 0.1398661082
H   H30       1.0  0.79394  0.27675  0.31842  1.0000 0.1398661082
H   H31       1.0  0.40659  0.87499  0.69915  1.0000 0.1192300835
H   H32       1.0  0.59341  0.12501  0.30085  1.0000 0.1192300835
H   H33       1.0  0.37778  0.50211  0.57337  1.0000 0.1192300835
H   H34       1.0  0.62222  0.49789  0.42663  1.0000 0.1192300835
H   H35       1.0  0.55176  0.18450  0.47603  1.0000 0.1296900698
H   H36       1.0  0.44824  0.81550  0.52397  1.0000 0.1296900698
C   C1        1.0  0.38040  0.66450  0.76160  1.0000 0.0916787722
C   C2        1.0  0.61960  0.33550  0.23840  1.0000 0.0916787722
C   C3        1.0  0.11960  0.04710  0.92020  1.0000 0.5501164981
C   C4        1.0  0.88040  0.95290  0.07980  1.0000 0.5501164981
C   C5        1.0  0.91660  0.99100  0.56910  1.0000 -0.027934879
C   C6        1.0  0.08340  0.00900  0.43090  1.0000 -0.027934879
C   C7        1.0  0.31560  0.02220  0.96307  1.0000 -0.0238169934
C   C8        1.0  0.68440  0.97780  0.03693  1.0000 -0.0238169934
C   C9        1.0  0.26880  0.55740  0.74510  1.0000 0.199470725
C   C10       1.0  0.73120  0.44260  0.25490  1.0000 0.199470725
C   C11       1.0  0.42870  0.12030  0.80020  1.0000 0.0916787722
C   C12       1.0  0.57130  0.87970  0.19980  1.0000 0.0916787722
C   C13       1.0  0.55740  0.69190  0.81700  1.0000 -0.1833583004
C   C14       1.0  0.44260  0.30810  0.18300  1.0000 -0.1833583004
C   C15       1.0  0.82430  0.98270  0.64240  1.0000 0.5501164981
C   C16       1.0  0.17570  0.01730  0.35760  1.0000 0.5501164981
C   C17       1.0  0.28300  0.38010  0.75250  1.0000 0.2066815161
C   C18       1.0  0.71700  0.61990  0.24750  1.0000 0.2066815161
C   C19       1.0  0.79630  0.97750  0.49380  1.0000 -0.1114679847
C   C20       1.0  0.20370  0.02250  0.50620  1.0000 -0.1114679847
C   C21       1.0  0.79870  0.39530  0.61960  1.0000 0.0807932281
C   C22       1.0  0.20130  0.60470  0.38040  1.0000 0.0807932281
C   C23       1.0  0.31180  0.20010  0.78220  1.0000 -0.1710268891
C   C24       1.0  0.68820  0.79990  0.21780  1.0000 -0.1710268891
C   C25       1.0  0.08110  0.53360  0.69720  1.0000 -0.2230365909
C   C26       1.0  0.91890  0.46640  0.30280  1.0000 -0.2230365909
C   C27       1.0  0.34460  0.92010  0.97397  1.0000 -0.1114679847
C   C28       1.0  0.65540  0.07990  0.02603  1.0000 -0.1114679847
C   C29       1.0  0.40120  0.29670  0.78020  1.0000 0.1094780975
C   C30       1.0  0.59880  0.70330  0.21980  1.0000 0.1094780975
C   C31       1.0  0.99410  0.42680  0.67440  1.0000 0.1192300835
C   C32       1.0  0.00590  0.57320  0.32560  1.0000 0.1192300835
C   C33       1.0  0.52780  0.89760  0.01032  1.0000 -0.1205545588
C   C34       1.0  0.47220  0.10240  0.98968  1.0000 -0.1205545588
C   C35       1.0  0.66780  0.78700  0.82650  1.0000 0.0963968524
C   C36       1.0  0.33220  0.21300  0.17350  1.0000 0.0963968524
C   C37       1.0  0.60880  0.31100  0.80270  1.0000 -0.1710268891
C   C38       1.0  0.39120  0.68900  0.19730  1.0000 -0.1710268891
C   C39       1.0  0.65460  0.47580  0.62200  1.0000 -0.1454595885
C   C40       1.0  0.34540  0.52420  0.37800  1.0000 -0.1454595885
C   C41       1.0  0.09890  0.34960  0.70300  1.0000 -0.2230365909
C   C42       1.0  0.90110  0.65040  0.29700  1.0000 -0.2230365909
C   C43       1.0  0.71540  0.22740  0.82110  1.0000 0.0916787722
C   C44       1.0  0.28460  0.77260  0.17890  1.0000 0.0916787722
C   C45       1.0  0.43460  0.33920  0.51710  1.0000 0.0447104462
C   C46       1.0  0.56540  0.66080  0.48290  1.0000 0.0447104462
C   C47       1.0  0.75930  0.28620  0.56410  1.0000 -0.1308561451
C   C48       1.0  0.24070  0.71380  0.43590  1.0000 -0.1308561451
C   C49       1.0  0.87760  0.98700  0.42570  1.0000 -0.1205545588
C   C50       1.0  0.12240  0.01300  0.57430  1.0000 -0.1205545588
C   C51       1.0  0.32450  0.73690  0.71830  1.0000 -0.1833583004
C   C52       1.0  0.67550  0.26310  0.28170  1.0000 -0.1833583004
C   C53       1.0  0.44500  0.82890  0.73000  1.0000 0.0916787722
C   C54       1.0  0.55500  0.17110  0.27000  1.0000 0.0916787722
C   C55       1.0  0.47360  0.44800  0.57130  1.0000 -0.1308561451
C   C56       1.0  0.52640  0.55200  0.42870  1.0000 -0.1308561451
C   C57       1.0  0.57770  0.25730  0.51280  1.0000 -0.1114679847
C   C58       1.0  0.42230  0.74270  0.48720  1.0000 -0.1114679847
C   C59       1.0  0.24600  0.31270  0.46250  1.0000 0.2639458367
C   C60       1.0  0.75400  0.68730  0.53750  1.0000 0.2639458367
N   N1        1.0  0.61530  0.85570  0.78352  1.0000 -0.24019837
N   N2        1.0  0.38470  0.14430  0.21648  1.0000 -0.24019837
N   N3        1.0  0.62940  0.13110  0.81773  1.0000 -0.2295066229
N   N4        1.0  0.37060  0.86890  0.18227  1.0000 -0.2295066229
N   N5        1.0  0.36820  0.48200  0.77312  1.0000 -0.3370053581
N   N6        1.0  0.63180  0.51800  0.22688  1.0000 -0.3370053581
N   N7        1.0  0.10090  0.29400  0.41950  1.0000 -0.3592811636
N   N8        1.0  0.89910  0.70600  0.58050  1.0000 -0.3592811636
O   O1        1.0  0.00120  0.96230  0.88210  1.0000 -0.5487483553
O   O2        1.0  0.99880  0.03770  0.11790  1.0000 -0.5487483553
O   O3        1.0  0.64160  0.96530  0.63644  1.0000 -0.5487483553
O   O4        1.0  0.35840  0.03470  0.36356  1.0000 -0.5487483553
O   O5        1.0  0.94570  0.99587  0.71005  1.0000 -0.5552103332
O   O6        1.0  0.05430  0.00413  0.28995  1.0000 -0.5552103332
O   O7        1.0  0.08530  0.14260  0.92114  1.0000 -0.5487483553
O   O8        1.0  0.91470  0.85740  0.07886  1.0000 -0.5487483553
