# DDEC6 charges by PACMAN v1.1 (https://github.com/mtap-research/PACMAN-charge/)
data_2023[Zn][sql]2[FSR]2
_chemical_formula_sum              "Zn2 H36 C60 N8 O8"
_cell_length_a       6.9508
_cell_length_b       12.7342
_cell_length_c       16.815
_cell_angle_alpha    106.584
_cell_angle_beta     98.843
_cell_angle_gamma    91.533

_symmetry_space_group_name_H-M    "P 1"
_symmetry_Int_Tables_number       1

loop_
  _symmetry_equiv_pos_as_xyz
  'x, y, z'

loop_
  _atom_site_type_symbol
  _atom_site_label
  _atom_site_symmetry_multiplicity
  _atom_site_fract_x
  _atom_site_fract_y
  _atom_site_fract_z
  _atom_site_occupancy
  _atom_site_charge
Zn  Zn1       1.0  0.80045  0.98862  0.80314  1.0000 0.7426309821
Zn  Zn2       1.0  0.19955  0.01138  0.19686  1.0000 0.7426309821
H   H1        1.0  0.38055  0.04196  0.79956  1.0000 0.10078362
H   H2        1.0  0.61945  0.95804  0.20044  1.0000 0.10078362
H   H3        1.0  0.33887  0.02674  0.51476  1.0000 0.1190274634
H   H4        1.0  0.66113  0.97326  0.48524  1.0000 0.1190274634
H   H5        1.0  0.19026  0.17530  0.76914  1.0000 0.1402413335
H   H6        1.0  0.80974  0.82470  0.23086  1.0000 0.1402413335
H   H7        1.0  0.79088  0.79552  0.86651  1.0000 0.1190274634
H   H8        1.0  0.20912  0.20448  0.13349  1.0000 0.1190274634
H   H9        1.0  0.19991  0.01136  0.62776  1.0000 0.1190274634
H   H10       1.0  0.80009  0.98864  0.37224  1.0000 0.1190274634
H   H11       1.0  0.61548  0.63007  0.84344  1.0000 0.1402413335
H   H12       1.0  0.38452  0.36993  0.15656  1.0000 0.1402413335
H   H13       1.0  0.44328  0.17472  0.98805  1.0000 0.1190274634
H   H14       1.0  0.55672  0.82528  0.01195  1.0000 0.1190274634
H   H15       1.0  0.75110  0.13978  0.04835  1.0000 0.130954345
H   H16       1.0  0.24890  0.86022  0.95165  1.0000 0.130954345
H   H17       1.0  0.86188  0.22854  0.82675  1.0000 0.1190274634
H   H18       1.0  0.13812  0.77146  0.17325  1.0000 0.1190274634
H   H19       1.0  0.41519  0.87231  0.69561  1.0000 0.1147043717
H   H20       1.0  0.58481  0.12769  0.30439  1.0000 0.1147043717
H   H21       1.0  0.70553  0.53578  0.65722  1.0000 0.1190274634
H   H22       1.0  0.29447  0.46422  0.34278  1.0000 0.1190274634
H   H23       1.0  0.22062  0.71351  0.67259  1.0000 0.1402413335
H   H24       1.0  0.77938  0.28649  0.32741  1.0000 0.1402413335
H   H25       1.0  0.39779  0.49060  0.57497  1.0000 0.1190274634
H   H26       1.0  0.60221  0.50940  0.42503  1.0000 0.1190274634
H   H27       1.0  0.05826  0.26278  0.68102  1.0000 0.1190274634
H   H28       1.0  0.94174  0.73722  0.31898  1.0000 0.1190274634
H   H29       1.0  0.03128  0.57781  0.67398  1.0000 0.130954345
H   H30       1.0  0.96872  0.42219  0.32602  1.0000 0.130954345
H   H31       1.0  0.68449  0.36496  0.79251  1.0000 0.130954345
H   H32       1.0  0.31551  0.63504  0.20749  1.0000 0.130954345
H   H33       1.0  0.54637  0.18169  0.47353  1.0000 0.130954345
H   H34       1.0  0.45363  0.81831  0.52647  1.0000 0.130954345
H   H35       1.0  0.85639  0.22762  0.55484  1.0000 0.1190274634
H   H36       1.0  0.14361  0.77238  0.44516  1.0000 0.1190274634
C   C1        1.0  0.91480  0.99090  0.56870  1.0000 -0.0223232635
C   C2        1.0  0.08520  0.00910  0.43130  1.0000 -0.0223232635
C   C3        1.0  0.31730  0.02050  0.96360  1.0000 -0.0223232635
C   C4        1.0  0.68270  0.97950  0.03640  1.0000 -0.0223232635
C   C5        1.0  0.44300  0.10820  0.79750  1.0000 0.0911329401
C   C6        1.0  0.55700  0.89180  0.20250  1.0000 0.0911329401
C   C7        1.0  0.82380  0.98370  0.64230  1.0000 0.5494042275
C   C8        1.0  0.17620  0.01630  0.35770  1.0000 0.5494042275
C   C9        1.0  0.12180  0.04260  0.92040  1.0000 0.5494042275
C   C10       1.0  0.87820  0.95740  0.07960  1.0000 0.5494042275
C   C11       1.0  0.20100  0.01580  0.50860  1.0000 -0.1110393008
C   C12       1.0  0.79900  0.98420  0.49140  1.0000 -0.1110393008
C   C13       1.0  0.32850  0.18680  0.77830  1.0000 -0.168975203
C   C14       1.0  0.67150  0.81320  0.22170  1.0000 -0.168975203
C   C15       1.0  0.81090  0.38570  0.61510  1.0000 0.0814166118
C   C16       1.0  0.18910  0.61430  0.38490  1.0000 0.0814166118
C   C17       1.0  0.67530  0.77750  0.82550  1.0000 0.0911329401
C   C18       1.0  0.32470  0.22250  0.17450  1.0000 0.0911329401
C   C19       1.0  0.11850  0.00680  0.57590  1.0000 -0.1195692743
C   C20       1.0  0.88150  0.99320  0.42410  1.0000 -0.1195692743
C   C21       1.0  0.56980  0.67930  0.81290  1.0000 -0.1797083306
C   C22       1.0  0.43020  0.32070  0.18710  1.0000 -0.1797083306
C   C23       1.0  0.41580  0.28320  0.77240  1.0000 0.10078362
C   C24       1.0  0.58420  0.71680  0.22760  1.0000 0.10078362
C   C25       1.0  0.46640  0.10340  0.99280  1.0000 -0.1195692743
C   C26       1.0  0.53360  0.89660  0.00720  1.0000 -0.1195692743
C   C27       1.0  0.28660  0.54360  0.73660  1.0000 0.200294548
C   C28       1.0  0.71340  0.45640  0.26340  1.0000 0.200294548
C   C29       1.0  0.64910  0.08280  0.02880  1.0000 -0.1110393008
C   C30       1.0  0.35090  0.91720  0.97120  1.0000 -0.1110393008
C   C31       1.0  0.00870  0.41470  0.66770  1.0000 0.1190274634
C   C32       1.0  0.99130  0.58530  0.33230  1.0000 0.1190274634
C   C33       1.0  0.39620  0.65210  0.75520  1.0000 0.10078362
C   C34       1.0  0.60380  0.34790  0.24480  1.0000 0.10078362
C   C35       1.0  0.72370  0.21680  0.81280  1.0000 0.0814166118
C   C36       1.0  0.27630  0.78320  0.18720  1.0000 0.0814166118
C   C37       1.0  0.45500  0.82260  0.72660  1.0000 0.0814166118
C   C38       1.0  0.54500  0.17740  0.27340  1.0000 0.0814166118
C   C39       1.0  0.29940  0.36590  0.74360  1.0000 0.208834016
C   C40       1.0  0.70060  0.63410  0.25640  1.0000 0.208834016
C   C41       1.0  0.44390  0.33260  0.51570  1.0000 0.0492529509
C   C42       1.0  0.55610  0.66740  0.48430  1.0000 0.0492529509
C   C43       1.0  0.67350  0.46370  0.61990  1.0000 -0.1428533259
C   C44       1.0  0.32650  0.53630  0.38010  1.0000 -0.1428533259
C   C45       1.0  0.33890  0.72760  0.71190  1.0000 -0.1797083306
C   C46       1.0  0.66110  0.27240  0.28810  1.0000 -0.1797083306
C   C47       1.0  0.49140  0.43710  0.57090  1.0000 -0.1290996099
C   C48       1.0  0.50860  0.56290  0.42910  1.0000 -0.1290996099
C   C49       1.0  0.11320  0.33620  0.69510  1.0000 -0.2303393359
C   C50       1.0  0.88680  0.66380  0.30490  1.0000 -0.2303393359
C   C51       1.0  0.09830  0.52120  0.69020  1.0000 -0.2303393359
C   C52       1.0  0.90170  0.47880  0.30980  1.0000 -0.2303393359
C   C53       1.0  0.61900  0.29860  0.79260  1.0000 -0.168975203
C   C54       1.0  0.38100  0.70140  0.20740  1.0000 -0.168975203
C   C55       1.0  0.25270  0.30890  0.46320  1.0000 0.2629125503
C   C56       1.0  0.74730  0.69110  0.53680  1.0000 0.2629125503
C   C57       1.0  0.57940  0.25390  0.51050  1.0000 -0.1110393008
C   C58       1.0  0.42060  0.74610  0.48950  1.0000 -0.1110393008
C   C59       1.0  0.76250  0.28100  0.55930  1.0000 -0.1290996099
C   C60       1.0  0.23750  0.71900  0.44070  1.0000 -0.1290996099
N   N1        1.0  0.62160  0.84870  0.78250  1.0000 -0.2303393359
N   N2        1.0  0.37840  0.15130  0.21750  1.0000 -0.2303393359
N   N3        1.0  0.63860  0.12040  0.81350  1.0000 -0.2303393359
N   N4        1.0  0.36140  0.87960  0.18650  1.0000 -0.2303393359
N   N5        1.0  0.38510  0.46780  0.76410  1.0000 -0.3424587014
N   N6        1.0  0.61490  0.53220  0.23590  1.0000 -0.3424587014
N   N7        1.0  0.10380  0.29330  0.42140  1.0000 -0.360486156
N   N8        1.0  0.89620  0.70670  0.57860  1.0000 -0.360486156
O   O1        1.0  0.64400  0.96630  0.63305  1.0000 -0.5594553712
O   O2        1.0  0.35600  0.03370  0.36695  1.0000 -0.5594553712
O   O3        1.0  0.99900  0.95920  0.88733  1.0000 -0.5473467671
O   O4        1.0  0.00100  0.04080  0.11267  1.0000 -0.5473467671
O   O5        1.0  0.94110  0.99630  0.71166  1.0000 -0.5473467671
O   O6        1.0  0.05890  0.00370  0.28834  1.0000 -0.5473467671
O   O7        1.0  0.09180  0.13590  0.91550  1.0000 -0.5473467671
O   O8        1.0  0.90820  0.86410  0.08450  1.0000 -0.5473467671
