# DDEC6 charges by PACMAN v1.1 (https://github.com/mtap-research/PACMAN-charge/)
data_2023[MoNi][sql]2[FSR]1
_chemical_formula_sum              "Ni8 Mo8 H128 C160 S32 N32 O32"
_cell_length_a       21.83
_cell_length_b       13.584
_cell_length_c       22.2496
_cell_angle_alpha    90
_cell_angle_beta     120.143
_cell_angle_gamma    90

_symmetry_space_group_name_H-M    "P 1"
_symmetry_Int_Tables_number       1

loop_
  _symmetry_equiv_pos_as_xyz
  'x, y, z'

loop_
  _atom_site_type_symbol
  _atom_site_label
  _atom_site_symmetry_multiplicity
  _atom_site_fract_x
  _atom_site_fract_y
  _atom_site_fract_z
  _atom_site_occupancy
  _atom_site_charge
Ni  Ni1       1.0  0.48841  0.76570  0.25229  1.0000 0.7803706676
Ni  Ni2       1.0  0.51159  0.26570  0.24771  1.0000 0.7803706676
Ni  Ni3       1.0  0.99227  0.71350  0.25800  1.0000 0.7803706676
Ni  Ni4       1.0  0.00773  0.21350  0.24200  1.0000 0.7803706676
Ni  Ni5       1.0  0.51159  0.23430  0.74771  1.0000 0.7803706676
Ni  Ni6       1.0  0.48841  0.73430  0.75229  1.0000 0.7803706676
Ni  Ni7       1.0  0.00773  0.28650  0.74200  1.0000 0.7803706676
Ni  Ni8       1.0  0.99227  0.78650  0.75800  1.0000 0.7803706676
Mo  Mo1       1.0  0.51162  0.50995  0.32876  1.0000 2.0098642186
Mo  Mo2       1.0  0.48838  0.00995  0.17124  1.0000 2.0098642186
Mo  Mo3       1.0  0.05637  0.45873  0.33219  1.0000 2.0098642186
Mo  Mo4       1.0  0.94363  0.95873  0.16781  1.0000 2.0098642186
Mo  Mo5       1.0  0.48838  0.49005  0.67124  1.0000 2.0098642186
Mo  Mo6       1.0  0.51162  0.99005  0.82876  1.0000 2.0098642186
Mo  Mo7       1.0  0.94363  0.54127  0.66781  1.0000 2.0098642186
Mo  Mo8       1.0  0.05637  0.04127  0.83219  1.0000 2.0098642186
H   H1        1.0  0.46322  0.58849  0.16346  1.0000 0.1104338584
H   H2        1.0  0.53678  0.08849  0.33654  1.0000 0.1104338584
H   H3        1.0  0.50563  0.51435  0.09651  1.0000 0.1300109991
H   H4        1.0  0.49437  0.01435  0.40349  1.0000 0.1300109991
H   H5        1.0  0.62624  0.75491  0.12217  1.0000 0.1300109991
H   H6        1.0  0.37376  0.25491  0.37783  1.0000 0.1300109991
H   H7        1.0  0.58383  0.82905  0.18912  1.0000 0.1201529171
H   H8        1.0  0.41617  0.32905  0.31088  1.0000 0.1201529171
H   H9        1.0  0.74404  0.56589  0.16390  1.0000 0.1300109991
H   H10       1.0  0.25596  0.06589  0.33610  1.0000 0.1300109991
H   H11       1.0  0.86603  0.57908  0.24078  1.0000 0.1201529171
H   H12       1.0  0.13397  0.07908  0.25922  1.0000 0.1201529171
H   H13       1.0  0.88121  0.77490  0.11144  1.0000 0.0894833569
H   H14       1.0  0.11879  0.27490  0.38856  1.0000 0.0894833569
H   H15       1.0  0.75921  0.76172  0.03455  1.0000 0.1419667918
H   H16       1.0  0.24079  0.26172  0.46545  1.0000 0.1419667918
H   H17       1.0  0.98293  0.54719  0.16004  1.0000 0.1201529171
H   H18       1.0  0.01707  0.04719  0.33996  1.0000 0.1104338584
H   H19       1.0  0.02441  0.51399  0.08347  1.0000 0.1300109991
H   H20       1.0  0.97559  0.01399  0.41653  1.0000 0.1300109991
H   H21       1.0  0.11757  0.78264  0.12377  1.0000 0.1300109991
H   H22       1.0  0.88243  0.28264  0.37623  1.0000 0.1300109991
H   H23       1.0  0.07608  0.81584  0.20034  1.0000 0.1201529171
H   H24       1.0  0.92392  0.31584  0.29966  1.0000 0.1201529171
H   H25       1.0  0.23940  0.62184  0.14766  1.0000 0.1300109991
H   H26       1.0  0.76060  0.12184  0.35234  1.0000 0.1300109991
H   H27       1.0  0.36114  0.63255  0.22631  1.0000 0.1201529171
H   H28       1.0  0.63886  0.13255  0.27369  1.0000 0.1201529171
H   H29       1.0  0.37598  0.85885  0.11558  1.0000 0.1201529171
H   H30       1.0  0.62402  0.35885  0.38442  1.0000 0.1201529171
H   H31       1.0  0.25424  0.84814  0.03693  1.0000 0.1476031691
H   H32       1.0  0.74576  0.34814  0.46307  1.0000 0.1476031691
H   H33       1.0  0.14414  0.63077  0.32793  1.0000 0.1201529171
H   H34       1.0  0.85586  0.13077  0.17207  1.0000 0.1201529171
H   H35       1.0  0.26034  0.68303  0.40314  1.0000 0.1300109991
H   H36       1.0  0.73966  0.18303  0.09686  1.0000 0.1300109991
H   H37       1.0  0.18676  0.94869  0.42145  1.0000 0.1300109991
H   H38       1.0  0.81324  0.44869  0.07855  1.0000 0.1300109991
H   H39       1.0  0.07056  0.89643  0.34624  1.0000 0.1201529171
H   H40       1.0  0.92944  0.39643  0.15376  1.0000 0.1201529171
H   H41       1.0  0.50645  0.69828  0.48136  1.0000 0.1419667918
H   H42       1.0  0.49355  0.19828  0.01864  1.0000 0.1419667918
H   H43       1.0  0.54307  0.71011  0.39918  1.0000 0.1104338584
H   H44       1.0  0.45693  0.21011  0.10082  1.0000 0.1104338584
H   H45       1.0  0.36847  0.87168  0.27434  1.0000 0.1201529171
H   H46       1.0  0.63153  0.37168  0.22566  1.0000 0.1201529171
H   H47       1.0  0.33185  0.85985  0.35651  1.0000 0.1201529171
H   H48       1.0  0.66815  0.35985  0.14349  1.0000 0.1201529171
H   H49       1.0  0.57839  0.94138  0.33875  1.0000 0.1104338584
H   H50       1.0  0.42161  0.44138  0.16125  1.0000 0.1104338584
H   H51       1.0  0.69778  0.98316  0.40973  1.0000 0.1300109991
H   H52       1.0  0.30222  0.48316  0.09027  1.0000 0.1300109991
H   H53       1.0  0.75422  0.70277  0.39775  1.0000 0.1300109991
H   H54       1.0  0.24578  0.20277  0.10225  1.0000 0.1300109991
H   H55       1.0  0.63482  0.66099  0.32677  1.0000 0.1201529171
H   H56       1.0  0.36518  0.16099  0.17323  1.0000 0.1201529171
H   H57       1.0  0.98256  0.65209  0.47695  1.0000 0.1476031691
H   H58       1.0  0.01744  0.15209  0.02305  1.0000 0.1476031691
H   H59       1.0  0.02232  0.63410  0.39754  1.0000 0.1104338584
H   H60       1.0  0.97768  0.13410  0.10246  1.0000 0.1104338584
H   H61       1.0  0.88576  0.84671  0.27636  1.0000 0.1300109991
H   H62       1.0  0.11424  0.34671  0.22364  1.0000 0.1300109991
H   H63       1.0  0.84599  0.86470  0.35577  1.0000 0.1300109991
H   H64       1.0  0.15401  0.36470  0.14423  1.0000 0.1300109991
H   H65       1.0  0.53678  0.41151  0.83654  1.0000 0.1104338584
H   H66       1.0  0.46322  0.91151  0.66346  1.0000 0.1104338584
H   H67       1.0  0.49437  0.48565  0.90349  1.0000 0.1300109991
H   H68       1.0  0.50563  0.98565  0.59651  1.0000 0.1300109991
H   H69       1.0  0.37376  0.24509  0.87783  1.0000 0.1300109991
H   H70       1.0  0.62624  0.74509  0.62217  1.0000 0.1300109991
H   H71       1.0  0.41617  0.17095  0.81088  1.0000 0.1201529171
H   H72       1.0  0.58383  0.67095  0.68912  1.0000 0.1201529171
H   H73       1.0  0.25596  0.43411  0.83610  1.0000 0.1300109991
H   H74       1.0  0.74404  0.93411  0.66390  1.0000 0.1300109991
H   H75       1.0  0.13397  0.42092  0.75922  1.0000 0.1201529171
H   H76       1.0  0.86603  0.92092  0.74078  1.0000 0.1201529171
H   H77       1.0  0.11879  0.22510  0.88856  1.0000 0.0894833569
H   H78       1.0  0.88121  0.72510  0.61144  1.0000 0.0894833569
H   H79       1.0  0.24079  0.23828  0.96545  1.0000 0.1419667918
H   H80       1.0  0.75921  0.73828  0.53455  1.0000 0.1419667918
H   H81       1.0  0.01707  0.45281  0.83996  1.0000 0.1104338584
H   H82       1.0  0.98293  0.95281  0.66004  1.0000 0.1201529171
H   H83       1.0  0.97559  0.48601  0.91653  1.0000 0.1300109991
H   H84       1.0  0.02441  0.98601  0.58347  1.0000 0.1300109991
H   H85       1.0  0.88243  0.21736  0.87623  1.0000 0.1300109991
H   H86       1.0  0.11757  0.71736  0.62377  1.0000 0.1300109991
H   H87       1.0  0.92392  0.18416  0.79966  1.0000 0.1201529171
H   H88       1.0  0.07608  0.68416  0.70034  1.0000 0.1201529171
H   H89       1.0  0.76060  0.37816  0.85234  1.0000 0.1300109991
H   H90       1.0  0.23940  0.87816  0.64766  1.0000 0.1300109991
H   H91       1.0  0.63886  0.36745  0.77369  1.0000 0.1201529171
H   H92       1.0  0.36114  0.86745  0.72631  1.0000 0.1201529171
H   H93       1.0  0.62402  0.14115  0.88442  1.0000 0.1201529171
H   H94       1.0  0.37598  0.64115  0.61558  1.0000 0.1201529171
H   H95       1.0  0.74576  0.15186  0.96307  1.0000 0.1476031691
H   H96       1.0  0.25424  0.65186  0.53693  1.0000 0.1476031691
H   H97       1.0  0.85586  0.36923  0.67207  1.0000 0.1201529171
H   H98       1.0  0.14414  0.86923  0.82793  1.0000 0.1201529171
H   H99       1.0  0.73966  0.31697  0.59686  1.0000 0.1300109991
H   H100      1.0  0.26034  0.81697  0.90314  1.0000 0.1300109991
H   H101      1.0  0.81324  0.05131  0.57855  1.0000 0.1300109991
H   H102      1.0  0.18676  0.55131  0.92145  1.0000 0.1300109991
H   H103      1.0  0.92944  0.10357  0.65376  1.0000 0.1201529171
H   H104      1.0  0.07056  0.60357  0.84624  1.0000 0.1201529171
H   H105      1.0  0.49355  0.30172  0.51864  1.0000 0.1419667918
H   H106      1.0  0.50645  0.80172  0.98136  1.0000 0.1419667918
H   H107      1.0  0.45693  0.28989  0.60082  1.0000 0.1104338584
H   H108      1.0  0.54307  0.78989  0.89918  1.0000 0.1104338584
H   H109      1.0  0.63153  0.12832  0.72566  1.0000 0.1201529171
H   H110      1.0  0.36847  0.62832  0.77434  1.0000 0.1201529171
H   H111      1.0  0.66815  0.14015  0.64349  1.0000 0.1201529171
H   H112      1.0  0.33185  0.64015  0.85651  1.0000 0.1201529171
H   H113      1.0  0.42161  0.05862  0.66125  1.0000 0.1104338584
H   H114      1.0  0.57839  0.55862  0.83875  1.0000 0.1104338584
H   H115      1.0  0.30222  0.01684  0.59027  1.0000 0.1300109991
H   H116      1.0  0.69778  0.51684  0.90973  1.0000 0.1300109991
H   H117      1.0  0.24578  0.29723  0.60225  1.0000 0.1300109991
H   H118      1.0  0.75422  0.79723  0.89775  1.0000 0.1300109991
H   H119      1.0  0.36518  0.33901  0.67323  1.0000 0.1201529171
H   H120      1.0  0.63482  0.83901  0.82677  1.0000 0.1201529171
H   H121      1.0  0.01744  0.34791  0.52305  1.0000 0.1476031691
H   H122      1.0  0.98256  0.84791  0.97695  1.0000 0.1476031691
H   H123      1.0  0.97768  0.36590  0.60246  1.0000 0.1104338584
H   H124      1.0  0.02232  0.86590  0.89754  1.0000 0.1104338584
H   H125      1.0  0.11424  0.15329  0.72364  1.0000 0.1300109991
H   H126      1.0  0.88576  0.65329  0.77636  1.0000 0.1300109991
H   H127      1.0  0.15401  0.13530  0.64423  1.0000 0.1300109991
H   H128      1.0  0.84599  0.63530  0.85577  1.0000 0.1300109991
C   C1        1.0  0.49630  0.62230  0.15510  1.0000 0.0716188911
C   C2        1.0  0.50370  0.12230  0.34490  1.0000 0.0716188911
C   C3        1.0  0.52150  0.57820  0.11530  1.0000 -0.2106288242
C   C4        1.0  0.47850  0.07820  0.38470  1.0000 -0.2106288242
C   C5        1.0  0.56990  0.62770  0.10300  1.0000 0.1003999524
C   C6        1.0  0.43010  0.12770  0.39700  1.0000 0.1003999524
C   C7        1.0  0.59320  0.72110  0.13060  1.0000 -0.2018852557
C   C8        1.0  0.40680  0.22110  0.36940  1.0000 -0.2018852557
C   C9        1.0  0.56790  0.76520  0.17030  1.0000 0.0894833569
C   C10       1.0  0.43210  0.26520  0.32970  1.0000 0.0894833569
C   C11       1.0  0.74020  0.66260  0.09200  1.0000 0.1104338584
C   C12       1.0  0.25980  0.16260  0.40800  1.0000 0.1104338584
C   C13       1.0  0.77180  0.60830  0.15320  1.0000 -0.2106288242
C   C14       1.0  0.22820  0.10830  0.34680  1.0000 -0.2106288242
C   C15       1.0  0.84430  0.61620  0.19890  1.0000 0.0815700889
C   C16       1.0  0.15570  0.11620  0.30110  1.0000 0.0815700889
C   C17       1.0  0.85340  0.73250  0.12210  1.0000 0.0815700889
C   C18       1.0  0.14660  0.23250  0.37790  1.0000 0.0815700889
C   C19       1.0  0.78090  0.72460  0.07640  1.0000 -0.1836310799
C   C20       1.0  0.21910  0.22460  0.42360  1.0000 -0.1836310799
C   C21       1.0  0.01030  0.59500  0.15270  1.0000 0.0716188911
C   C22       1.0  0.98970  0.09500  0.34730  1.0000 0.0716188911
C   C23       1.0  0.03490  0.57530  0.10720  1.0000 -0.2106288242
C   C24       1.0  0.96510  0.07530  0.39280  1.0000 -0.2106288242
C   C25       1.0  0.07490  0.64520  0.09640  1.0000 0.1003999524
C   C26       1.0  0.92510  0.14520  0.40360  1.0000 0.1003999524
C   C27       1.0  0.09020  0.73480  0.13110  1.0000 -0.1916874986
C   C28       1.0  0.90980  0.23480  0.36890  1.0000 -0.1916874986
C   C29       1.0  0.06560  0.75460  0.17660  1.0000 0.1003999524
C   C30       1.0  0.93440  0.25460  0.32340  1.0000 0.1003999524
C   C31       1.0  0.23540  0.73400  0.08490  1.0000 0.1003999524
C   C32       1.0  0.76460  0.23400  0.41510  1.0000 0.1003999524
C   C33       1.0  0.26710  0.67000  0.14110  1.0000 -0.2106288242
C   C34       1.0  0.73290  0.17000  0.35890  1.0000 -0.2106288242
C   C35       1.0  0.33950  0.67630  0.18790  1.0000 0.0716188911
C   C36       1.0  0.66050  0.17630  0.31210  1.0000 0.0716188911
C   C37       1.0  0.34830  0.81070  0.12210  1.0000 0.0815700889
C   C38       1.0  0.65170  0.31070  0.37790  1.0000 0.0815700889
C   C39       1.0  0.27600  0.80440  0.07540  1.0000 -0.1916874986
C   C40       1.0  0.72400  0.30440  0.42460  1.0000 -0.1916874986
C   C41       1.0  0.15280  0.69530  0.34690  1.0000 0.0894833569
C   C42       1.0  0.84720  0.19530  0.15310  1.0000 0.0894833569
C   C43       1.0  0.22180  0.72640  0.39160  1.0000 -0.1916874986
C   C44       1.0  0.77820  0.22640  0.10840  1.0000 -0.1916874986
C   C45       1.0  0.23450  0.82080  0.41940  1.0000 0.1104338584
C   C46       1.0  0.76550  0.32080  0.08060  1.0000 0.1104338584
C   C47       1.0  0.17810  0.88420  0.40250  1.0000 -0.2106288242
C   C48       1.0  0.82190  0.38420  0.09750  1.0000 -0.2106288242
C   C49       1.0  0.10910  0.85310  0.35780  1.0000 0.0625441
C   C50       1.0  0.89090  0.35310  0.14220  1.0000 0.0625441
C   C51       1.0  0.41570  0.77800  0.42670  1.0000 0.1104338584
C   C52       1.0  0.58430  0.27800  0.07330  1.0000 0.1104338584
C   C53       1.0  0.47840  0.73350  0.43930  1.0000 -0.1836310799
C   C54       1.0  0.52160  0.23350  0.06070  1.0000 -0.1836310799
C   C55       1.0  0.50020  0.74050  0.39050  1.0000 0.0716188911
C   C56       1.0  0.49980  0.24050  0.10950  1.0000 0.0716188911
C   C57       1.0  0.39650  0.83650  0.31640  1.0000 0.0815700889
C   C58       1.0  0.60350  0.33650  0.18360  1.0000 0.0815700889
C   C59       1.0  0.37480  0.82950  0.36520  1.0000 -0.2106288242
C   C60       1.0  0.62520  0.32950  0.13480  1.0000 -0.2106288242
C   C61       1.0  0.61410  0.89290  0.35070  1.0000 0.0716188911
C   C62       1.0  0.38590  0.39290  0.14930  1.0000 0.0716188911
C   C63       1.0  0.68500  0.91780  0.39290  1.0000 -0.2018852557
C   C64       1.0  0.31500  0.41780  0.10710  1.0000 -0.2018852557
C   C65       1.0  0.73720  0.84690  0.41040  1.0000 0.1104338584
C   C66       1.0  0.26280  0.34690  0.08960  1.0000 0.1104338584
C   C67       1.0  0.71850  0.75120  0.38580  1.0000 -0.2018852557
C   C68       1.0  0.28150  0.25120  0.11420  1.0000 -0.2018852557
C   C69       1.0  0.64760  0.72640  0.34360  1.0000 0.0894833569
C   C70       1.0  0.35240  0.22640  0.15640  1.0000 0.0894833569
C   C71       1.0  0.91050  0.76010  0.42380  1.0000 0.0894833569
C   C72       1.0  0.08950  0.26010  0.07620  1.0000 0.0894833569
C   C73       1.0  0.96290  0.69160  0.43620  1.0000 -0.1916874986
C   C74       1.0  0.03710  0.19160  0.06380  1.0000 -0.1916874986
C   C75       1.0  0.98660  0.68090  0.38910  1.0000 0.0815700889
C   C76       1.0  0.01340  0.18090  0.11090  1.0000 0.0716188911
C   C77       1.0  0.90540  0.80720  0.31710  1.0000 0.0815700889
C   C78       1.0  0.09460  0.30720  0.18290  1.0000 0.0815700889
C   C79       1.0  0.88170  0.81790  0.36420  1.0000 -0.2106288242
C   C80       1.0  0.11830  0.31790  0.13580  1.0000 -0.2106288242
C   C81       1.0  0.50370  0.37770  0.84490  1.0000 0.0716188911
C   C82       1.0  0.49630  0.87770  0.65510  1.0000 0.0716188911
C   C83       1.0  0.47850  0.42180  0.88470  1.0000 -0.2106288242
C   C84       1.0  0.52150  0.92180  0.61530  1.0000 -0.2106288242
C   C85       1.0  0.43010  0.37230  0.89700  1.0000 0.1003999524
C   C86       1.0  0.56990  0.87230  0.60300  1.0000 0.1003999524
C   C87       1.0  0.40680  0.27890  0.86940  1.0000 -0.2018852557
C   C88       1.0  0.59320  0.77890  0.63060  1.0000 -0.2018852557
C   C89       1.0  0.43210  0.23480  0.82970  1.0000 0.0894833569
C   C90       1.0  0.56790  0.73480  0.67030  1.0000 0.0894833569
C   C91       1.0  0.25980  0.33740  0.90800  1.0000 0.1104338584
C   C92       1.0  0.74020  0.83740  0.59200  1.0000 0.1104338584
C   C93       1.0  0.22820  0.39170  0.84680  1.0000 -0.2106288242
C   C94       1.0  0.77180  0.89170  0.65320  1.0000 -0.2106288242
C   C95       1.0  0.15570  0.38380  0.80110  1.0000 0.0815700889
C   C96       1.0  0.84430  0.88380  0.69890  1.0000 0.0815700889
C   C97       1.0  0.14660  0.26750  0.87790  1.0000 0.0815700889
C   C98       1.0  0.85340  0.76750  0.62210  1.0000 0.0815700889
C   C99       1.0  0.21910  0.27540  0.92360  1.0000 -0.1836310799
C   C100      1.0  0.78090  0.77540  0.57640  1.0000 -0.1836310799
C   C101      1.0  0.98970  0.40500  0.84730  1.0000 0.0716188911
C   C102      1.0  0.01030  0.90500  0.65270  1.0000 0.0716188911
C   C103      1.0  0.96510  0.42470  0.89280  1.0000 -0.2106288242
C   C104      1.0  0.03490  0.92470  0.60720  1.0000 -0.2106288242
C   C105      1.0  0.92510  0.35480  0.90360  1.0000 0.1003999524
C   C106      1.0  0.07490  0.85480  0.59640  1.0000 0.1003999524
C   C107      1.0  0.90980  0.26520  0.86890  1.0000 -0.1916874986
C   C108      1.0  0.09020  0.76520  0.63110  1.0000 -0.1916874986
C   C109      1.0  0.93440  0.24540  0.82340  1.0000 0.1003999524
C   C110      1.0  0.06560  0.74540  0.67660  1.0000 0.1003999524
C   C111      1.0  0.76460  0.26600  0.91510  1.0000 0.1003999524
C   C112      1.0  0.23540  0.76600  0.58490  1.0000 0.1003999524
C   C113      1.0  0.73290  0.33000  0.85890  1.0000 -0.2106288242
C   C114      1.0  0.26710  0.83000  0.64110  1.0000 -0.2106288242
C   C115      1.0  0.66050  0.32370  0.81210  1.0000 0.0716188911
C   C116      1.0  0.33950  0.82370  0.68790  1.0000 0.0716188911
C   C117      1.0  0.65170  0.18930  0.87790  1.0000 0.0815700889
C   C118      1.0  0.34830  0.68930  0.62210  1.0000 0.0815700889
C   C119      1.0  0.72400  0.19560  0.92460  1.0000 -0.1916874986
C   C120      1.0  0.27600  0.69560  0.57540  1.0000 -0.1916874986
C   C121      1.0  0.84720  0.30470  0.65310  1.0000 0.0894833569
C   C122      1.0  0.15280  0.80470  0.84690  1.0000 0.0894833569
C   C123      1.0  0.77820  0.27360  0.60840  1.0000 -0.1916874986
C   C124      1.0  0.22180  0.77360  0.89160  1.0000 -0.1916874986
C   C125      1.0  0.76550  0.17920  0.58060  1.0000 0.1104338584
C   C126      1.0  0.23450  0.67920  0.91940  1.0000 0.1104338584
C   C127      1.0  0.82190  0.11580  0.59750  1.0000 -0.2106288242
C   C128      1.0  0.17810  0.61580  0.90250  1.0000 -0.2106288242
C   C129      1.0  0.89090  0.14690  0.64220  1.0000 0.0625441
C   C130      1.0  0.10910  0.64690  0.85780  1.0000 0.0625441
C   C131      1.0  0.58430  0.22200  0.57330  1.0000 0.1104338584
C   C132      1.0  0.41570  0.72200  0.92670  1.0000 0.1104338584
C   C133      1.0  0.52160  0.26650  0.56070  1.0000 -0.1916874986
C   C134      1.0  0.47840  0.76650  0.93930  1.0000 -0.1916874986
C   C135      1.0  0.49980  0.25950  0.60950  1.0000 0.0716188911
C   C136      1.0  0.50020  0.75950  0.89050  1.0000 0.0716188911
C   C137      1.0  0.60350  0.16350  0.68360  1.0000 0.0815700889
C   C138      1.0  0.39650  0.66350  0.81640  1.0000 0.0815700889
C   C139      1.0  0.62520  0.17050  0.63480  1.0000 -0.2184852833
C   C140      1.0  0.37480  0.67050  0.86520  1.0000 -0.2184852833
C   C141      1.0  0.38590  0.10710  0.64930  1.0000 0.0716188911
C   C142      1.0  0.61410  0.60710  0.85070  1.0000 0.0716188911
C   C143      1.0  0.31500  0.08220  0.60710  1.0000 -0.2018852557
C   C144      1.0  0.68500  0.58220  0.89290  1.0000 -0.2018852557
C   C145      1.0  0.26280  0.15310  0.58960  1.0000 0.1104338584
C   C146      1.0  0.73720  0.65310  0.91040  1.0000 0.1104338584
C   C147      1.0  0.28150  0.24880  0.61420  1.0000 -0.2018852557
C   C148      1.0  0.71850  0.74880  0.88580  1.0000 -0.2018852557
C   C149      1.0  0.35240  0.27360  0.65640  1.0000 0.0894833569
C   C150      1.0  0.64760  0.77360  0.84360  1.0000 0.0894833569
C   C151      1.0  0.08950  0.23990  0.57620  1.0000 0.0894833569
C   C152      1.0  0.91050  0.73990  0.92380  1.0000 0.0894833569
C   C153      1.0  0.03710  0.30840  0.56380  1.0000 -0.1916874986
C   C154      1.0  0.96290  0.80840  0.93620  1.0000 -0.1916874986
C   C155      1.0  0.01340  0.31910  0.61090  1.0000 0.0716188911
C   C156      1.0  0.98660  0.81910  0.88910  1.0000 0.0815700889
C   C157      1.0  0.09460  0.19280  0.68290  1.0000 0.0815700889
C   C158      1.0  0.90540  0.69280  0.81710  1.0000 0.0815700889
C   C159      1.0  0.11830  0.18210  0.63580  1.0000 -0.2106288242
C   C160      1.0  0.88170  0.68210  0.86420  1.0000 -0.2106288242
S   S1        1.0  0.60070  0.56060  0.05560  1.0000 0.0060002573
S   S2        1.0  0.39930  0.06060  0.44440  1.0000 0.0060002573
S   S3        1.0  0.64760  0.66110  0.02670  1.0000 0.030112195
S   S4        1.0  0.35240  0.16110  0.47330  1.0000 0.030112195
S   S5        1.0  0.09950  0.61520  0.03370  1.0000 0.0003914448
S   S6        1.0  0.90050  0.11520  0.46630  1.0000 0.0003914448
S   S7        1.0  0.14190  0.74030  0.02120  1.0000 0.030112195
S   S8        1.0  0.85810  0.24030  0.47880  1.0000 0.030112195
S   S9        1.0  0.32270  0.86760  0.47740  1.0000 -0.0354276895
S   S10       1.0  0.67730  0.36760  0.02260  1.0000 -0.0354276895
S   S11       1.0  0.39080  0.75780  0.49100  1.0000 0.0625441
S   S12       1.0  0.60920  0.25780  0.00900  1.0000 0.0625441
S   S13       1.0  0.82650  0.89120  0.46350  1.0000 -0.030599739
S   S14       1.0  0.17350  0.39120  0.03650  1.0000 -0.030599739
S   S15       1.0  0.88820  0.76980  0.48920  1.0000 0.0716188911
S   S16       1.0  0.11180  0.26980  0.01080  1.0000 0.0716188911
S   S17       1.0  0.39930  0.43940  0.94440  1.0000 0.0060002573
S   S18       1.0  0.60070  0.93940  0.55560  1.0000 0.0060002573
S   S19       1.0  0.35240  0.33890  0.97330  1.0000 0.0249362756
S   S20       1.0  0.64760  0.83890  0.52670  1.0000 0.030112195
S   S21       1.0  0.90050  0.38480  0.96630  1.0000 0.0003914448
S   S22       1.0  0.09950  0.88480  0.53370  1.0000 -0.0004440567
S   S23       1.0  0.85810  0.25970  0.97880  1.0000 0.030112195
S   S24       1.0  0.14190  0.75970  0.52120  1.0000 0.030112195
S   S25       1.0  0.67730  0.13240  0.52260  1.0000 -0.0354276895
S   S26       1.0  0.32270  0.63240  0.97740  1.0000 -0.030599739
S   S27       1.0  0.60920  0.24220  0.50900  1.0000 0.0625441
S   S28       1.0  0.39080  0.74220  0.99100  1.0000 0.0625441
S   S29       1.0  0.17350  0.10880  0.53650  1.0000 -0.030599739
S   S30       1.0  0.82650  0.60880  0.96350  1.0000 -0.030599739
S   S31       1.0  0.11180  0.23020  0.51080  1.0000 0.0716188911
S   S32       1.0  0.88820  0.73020  0.98920  1.0000 0.0716188911
N   N1        1.0  0.51960  0.71570  0.18260  1.0000 -0.2305902459
N   N2        1.0  0.48040  0.21570  0.31740  1.0000 -0.2305902459
N   N3        1.0  0.88500  0.67820  0.18330  1.0000 -0.2363574513
N   N4        1.0  0.11500  0.17820  0.31670  1.0000 -0.2363574513
N   N5        1.0  0.02560  0.68460  0.18740  1.0000 -0.2363574513
N   N6        1.0  0.97440  0.18460  0.31260  1.0000 -0.2363574513
N   N7        1.0  0.38000  0.74670  0.17830  1.0000 -0.2305902459
N   N8        1.0  0.62000  0.24670  0.32170  1.0000 -0.2305902459
N   N9        1.0  0.09640  0.75870  0.33000  1.0000 -0.2305902459
N   N10       1.0  0.90360  0.25870  0.17000  1.0000 -0.2305902459
N   N11       1.0  0.45920  0.79200  0.32900  1.0000 -0.2305902459
N   N12       1.0  0.54080  0.29200  0.17100  1.0000 -0.2305902459
N   N13       1.0  0.59540  0.79730  0.32610  1.0000 -0.2305902459
N   N14       1.0  0.40460  0.29730  0.17390  1.0000 -0.2305902459
N   N15       1.0  0.95780  0.73870  0.32950  1.0000 -0.2305902459
N   N16       1.0  0.04220  0.23870  0.17050  1.0000 -0.2305902459
N   N17       1.0  0.48040  0.28430  0.81740  1.0000 -0.2305902459
N   N18       1.0  0.51960  0.78430  0.68260  1.0000 -0.2305902459
N   N19       1.0  0.11500  0.32180  0.81670  1.0000 -0.2363574513
N   N20       1.0  0.88500  0.82180  0.68330  1.0000 -0.2363574513
N   N21       1.0  0.97440  0.31540  0.81260  1.0000 -0.2363574513
N   N22       1.0  0.02560  0.81540  0.68740  1.0000 -0.2363574513
N   N23       1.0  0.62000  0.25330  0.82170  1.0000 -0.2305902459
N   N24       1.0  0.38000  0.75330  0.67830  1.0000 -0.2363574513
N   N25       1.0  0.90360  0.24130  0.67000  1.0000 -0.2305902459
N   N26       1.0  0.09640  0.74130  0.83000  1.0000 -0.2305902459
N   N27       1.0  0.54080  0.20800  0.67100  1.0000 -0.2305902459
N   N28       1.0  0.45920  0.70800  0.82900  1.0000 -0.2305902459
N   N29       1.0  0.40460  0.20270  0.67390  1.0000 -0.2305902459
N   N30       1.0  0.59540  0.70270  0.82610  1.0000 -0.2184852833
N   N31       1.0  0.04220  0.26130  0.67050  1.0000 -0.2305902459
N   N32       1.0  0.95780  0.76130  0.82950  1.0000 -0.2305902459
O   O1        1.0  0.51930  0.40790  0.28040  1.0000 -0.8869285211
O   O2        1.0  0.48070  0.90790  0.21960  1.0000 -0.8869285211
O   O3        1.0  0.43830  0.49320  0.34160  1.0000 -0.8174301609
O   O4        1.0  0.56170  0.99320  0.15840  1.0000 -0.8136755196
O   O5        1.0  0.59040  0.51470  0.41100  1.0000 -0.8136755196
O   O6        1.0  0.40960  0.01470  0.08900  1.0000 -0.8136755196
O   O7        1.0  0.50090  0.62140  0.28410  1.0000 -0.8470072671
O   O8        1.0  0.49910  0.12140  0.21590  1.0000 -0.8470072671
O   O9        1.0  0.15210  0.47010  0.37610  1.0000 -0.8470072671
O   O10       1.0  0.84790  0.97010  0.12390  1.0000 -0.8470072671
O   O11       1.0  0.02630  0.35790  0.27320  1.0000 -0.8594312891
O   O12       1.0  0.97370  0.85790  0.22680  1.0000 -0.8594312891
O   O13       1.0  0.03280  0.43610  0.39700  1.0000 -0.8174301609
O   O14       1.0  0.96720  0.93610  0.10300  1.0000 -0.8174301609
O   O15       1.0  0.01520  0.56870  0.28830  1.0000 -0.8470072671
O   O16       1.0  0.98480  0.06870  0.21170  1.0000 -0.8470072671
O   O17       1.0  0.48070  0.59210  0.71960  1.0000 -0.8869285211
O   O18       1.0  0.51930  0.09210  0.78040  1.0000 -0.8869285211
O   O19       1.0  0.56170  0.50680  0.65840  1.0000 -0.8136755196
O   O20       1.0  0.43830  0.00680  0.84160  1.0000 -0.8136755196
O   O21       1.0  0.40960  0.48530  0.58900  1.0000 -0.8136755196
O   O22       1.0  0.59040  0.98530  0.91100  1.0000 -0.8136755196
O   O23       1.0  0.49910  0.37860  0.71590  1.0000 -0.8470072671
O   O24       1.0  0.50090  0.87860  0.78410  1.0000 -0.8470072671
O   O25       1.0  0.84790  0.52990  0.62390  1.0000 -0.8470072671
O   O26       1.0  0.15210  0.02990  0.87610  1.0000 -0.8470072671
O   O27       1.0  0.97370  0.64210  0.72680  1.0000 -0.8594312891
O   O28       1.0  0.02630  0.14210  0.77320  1.0000 -0.8594312891
O   O29       1.0  0.96720  0.56390  0.60300  1.0000 -0.8174301609
O   O30       1.0  0.03280  0.06390  0.89700  1.0000 -0.8174301609
O   O31       1.0  0.98480  0.43130  0.71170  1.0000 -0.8445901498
O   O32       1.0  0.01520  0.93130  0.78830  1.0000 -0.8445901498
