# DDEC6 charges by PACMAN v1.1 (https://github.com/mtap-research/PACMAN-charge/)
data_2023[Co][sql]2[FSR]5
_chemical_formula_sum              "Co2 H44 C40 N8 O12"
_cell_length_a       13.5051
_cell_length_b       13.5051
_cell_length_c       13.5015
_cell_angle_alpha    66.0141
_cell_angle_beta     113.986
_cell_angle_gamma    125.36

_symmetry_space_group_name_H-M    "P 1"
_symmetry_Int_Tables_number       1

loop_
  _symmetry_equiv_pos_as_xyz
  'x, y, z'

loop_
  _atom_site_type_symbol
  _atom_site_label
  _atom_site_symmetry_multiplicity
  _atom_site_fract_x
  _atom_site_fract_y
  _atom_site_fract_z
  _atom_site_occupancy
  _atom_site_charge
Co  Co1       1.0  0.50000  0.00000  0.50000  1.0000 0.8697104138
Co  Co2       1.0  0.00000  0.50000  0.00000  1.0000 0.8697104138
H   H1        1.0  0.67502  0.14240  0.69119  1.0000 0.0934249117
H   H2        1.0  0.14240  0.67502  0.80881  1.0000 0.0934249117
H   H3        1.0  0.32498  0.85760  0.30881  1.0000 0.0934249117
H   H4        1.0  0.85760  0.32498  0.19119  1.0000 0.0934249117
H   H5        1.0  0.68062  0.78878  0.69693  1.0000 0.1205404755
H   H6        1.0  0.78878  0.68062  0.80307  1.0000 0.1205404755
H   H7        1.0  0.31938  0.21122  0.30307  1.0000 0.1205404755
H   H8        1.0  0.21122  0.31938  0.19693  1.0000 0.1205404755
H   H9        1.0  0.31446  0.90810  0.63429  1.0000 0.1006243658
H   H10       1.0  0.90810  0.31446  0.86571  1.0000 0.1006243658
H   H11       1.0  0.68554  0.09190  0.36571  1.0000 0.1006243658
H   H12       1.0  0.09190  0.68554  0.13429  1.0000 0.1006243658
H   H13       1.0  0.30106  0.91876  0.79510  1.0000 0.1339893658
H   H14       1.0  0.91876  0.30106  0.70490  1.0000 0.1339893658
H   H15       1.0  0.69894  0.08124  0.20490  1.0000 0.1339893658
H   H16       1.0  0.08124  0.69894  0.29510  1.0000 0.1339893658
H   H17       1.0  0.67173  0.16415  0.85118  1.0000 0.1372767669
H   H18       1.0  0.16415  0.67173  0.64882  1.0000 0.1372767669
H   H19       1.0  0.32827  0.83585  0.14882  1.0000 0.1372767669
H   H20       1.0  0.83585  0.32827  0.35118  1.0000 0.1372767669
H   H21       1.0  0.54107  0.13201  0.96351  1.0000 0.1205404755
H   H22       1.0  0.13201  0.54107  0.53649  1.0000 0.1205404755
H   H23       1.0  0.45893  0.86799  0.03649  1.0000 0.1205404755
H   H24       1.0  0.86799  0.45893  0.46351  1.0000 0.1205404755
H   H25       1.0  0.39723  0.02505  0.94736  1.0000 0.1205404755
H   H26       1.0  0.02505  0.39723  0.55264  1.0000 0.1205404755
H   H27       1.0  0.60277  0.97495  0.05264  1.0000 0.1205404755
H   H28       1.0  0.97495  0.60277  0.44736  1.0000 0.1205404755
H   H29       1.0  0.00331  0.20415  0.66078  1.0000 0.2927170377
H   H30       1.0  0.20415  0.00331  0.83922  1.0000 0.2927170377
H   H31       1.0  0.99669  0.79585  0.33922  1.0000 0.2927170377
H   H32       1.0  0.79585  0.99669  0.16078  1.0000 0.2927170377
H   H33       1.0  0.11901  0.19001  0.72022  1.0000 0.2739964109
H   H34       1.0  0.19001  0.11901  0.77978  1.0000 0.2739964109
H   H35       1.0  0.88099  0.80999  0.27978  1.0000 0.2739964109
H   H36       1.0  0.80999  0.88099  0.22022  1.0000 0.2739964109
H   H37       1.0  0.62940  0.24660  0.47400  1.0000 0.2927170377
H   H38       1.0  0.24660  0.62940  0.02600  1.0000 0.2962411709
H   H39       1.0  0.37060  0.75340  0.52600  1.0000 0.2962411709
H   H40       1.0  0.75340  0.37060  0.97400  1.0000 0.2962411709
H   H41       1.0  0.69590  0.19210  0.49800  1.0000 0.2962411709
H   H42       1.0  0.19210  0.69590  0.00200  1.0000 0.2962411709
H   H43       1.0  0.30410  0.80790  0.50200  1.0000 0.2962411709
H   H44       1.0  0.80790  0.30410  0.99800  1.0000 0.2962411709
C   C1        1.0  0.83317  0.96409  0.68638  1.0000 -0.127984872
C   C2        1.0  0.96409  0.83317  0.81362  1.0000 -0.127984872
C   C3        1.0  0.16683  0.03591  0.31362  1.0000 -0.127984872
C   C4        1.0  0.03591  0.16683  0.18638  1.0000 -0.127984872
C   C5        1.0  0.59789  0.09663  0.71238  1.0000 0.0770780817
C   C6        1.0  0.09663  0.59789  0.78762  1.0000 0.0770780817
C   C7        1.0  0.40211  0.90337  0.28762  1.0000 0.0770780817
C   C8        1.0  0.90337  0.40211  0.21238  1.0000 0.0770780817
C   C9        1.0  0.75925  0.03015  0.61707  1.0000 0.569930045
C   C10       1.0  0.03015  0.75925  0.88293  1.0000 0.569930045
C   C11       1.0  0.24075  0.96985  0.38293  1.0000 0.569930045
C   C12       1.0  0.96985  0.24075  0.11707  1.0000 0.569930045
C   C13       1.0  0.76912  0.83342  0.71858  1.0000 -0.1212032828
C   C14       1.0  0.83342  0.76912  0.78142  1.0000 -0.1212032828
C   C15       1.0  0.23088  0.16658  0.28142  1.0000 -0.1212032828
C   C16       1.0  0.16658  0.23088  0.21858  1.0000 -0.1212032828
C   C17       1.0  0.96356  0.02938  0.71818  1.0000 0.1642097477
C   C18       1.0  0.02938  0.96356  0.78182  1.0000 0.1642097477
C   C19       1.0  0.03644  0.97062  0.28182  1.0000 0.1642097477
C   C20       1.0  0.97062  0.03644  0.21818  1.0000 0.1642097477
C   C21       1.0  0.38831  0.95983  0.67965  1.0000 0.0934249117
C   C22       1.0  0.95983  0.38831  0.82035  1.0000 0.0934249117
C   C23       1.0  0.61169  0.04017  0.32035  1.0000 0.0934249117
C   C24       1.0  0.04017  0.61169  0.17965  1.0000 0.0934249117
C   C25       1.0  0.37934  0.96596  0.77566  1.0000 -0.2076542992
C   C26       1.0  0.96596  0.37934  0.72434  1.0000 -0.2076542992
C   C27       1.0  0.62066  0.03404  0.22434  1.0000 -0.2076542992
C   C28       1.0  0.03404  0.62066  0.27566  1.0000 -0.2076542992
C   C29       1.0  0.59699  0.10947  0.80883  1.0000 -0.2076542992
C   C30       1.0  0.10947  0.59699  0.69117  1.0000 -0.2076542992
C   C31       1.0  0.40301  0.89053  0.19117  1.0000 -0.2076542992
C   C32       1.0  0.89053  0.40301  0.30883  1.0000 -0.2076542992
C   C33       1.0  0.48568  0.04160  0.84310  1.0000 0.1805054229
C   C34       1.0  0.04160  0.48568  0.65690  1.0000 0.1805054229
C   C35       1.0  0.51432  0.95840  0.15690  1.0000 0.1805054229
C   C36       1.0  0.95840  0.51432  0.34310  1.0000 0.1805054229
C   C37       1.0  0.48208  0.04648  0.95117  1.0000 -0.2408754881
C   C38       1.0  0.04648  0.48208  0.54883  1.0000 -0.2408754881
C   C39       1.0  0.51792  0.95352  0.04883  1.0000 -0.2408754881
C   C40       1.0  0.95352  0.51792  0.45117  1.0000 -0.2408754881
N   N1        1.0  0.49583  0.02317  0.64763  1.0000 -0.2641323748
N   N2        1.0  0.02317  0.49583  0.85237  1.0000 -0.2641323748
N   N3        1.0  0.50417  0.97683  0.35237  1.0000 -0.2641323748
N   N4        1.0  0.97683  0.50417  0.14763  1.0000 -0.2641323748
N   N5        1.0  0.03737  0.15623  0.69720  1.0000 -0.5534481425
N   N6        1.0  0.15623  0.03737  0.80280  1.0000 -0.5534481425
N   N7        1.0  0.96263  0.84377  0.30280  1.0000 -0.5534481425
N   N8        1.0  0.84377  0.96263  0.19720  1.0000 -0.5534481425
O   O1        1.0  0.64252  0.96100  0.58814  1.0000 -0.5703145462
O   O2        1.0  0.96100  0.64252  0.91186  1.0000 -0.5644557792
O   O3        1.0  0.35748  0.03900  0.41186  1.0000 -0.5644557792
O   O4        1.0  0.03900  0.35748  0.08814  1.0000 -0.5644557792
O   O5        1.0  0.63188  0.19430  0.45730  1.0000 -0.6460672337
O   O6        1.0  0.19430  0.63188  0.04270  1.0000 -0.6460672337
O   O7        1.0  0.36812  0.80570  0.54270  1.0000 -0.6460672337
O   O8        1.0  0.80570  0.36812  0.95730  1.0000 -0.6460672337
O   O9        1.0  0.81550  0.14776  0.59087  1.0000 -0.5703145462
O   O10       1.0  0.14776  0.81550  0.90913  1.0000 -0.5703145462
O   O11       1.0  0.18450  0.85224  0.40913  1.0000 -0.5703145462
O   O12       1.0  0.85224  0.18450  0.09087  1.0000 -0.5703145462
