# DDEC6 charges by PACMAN v1.1 (https://github.com/mtap-research/PACMAN-charge/)
data_2023[Zn][nan]3[FSR]3
_chemical_formula_sum              "Zn4 H80 C116 N4 O16"
_cell_length_a       13.7959
_cell_length_b       13.7959
_cell_length_c       28.68
_cell_angle_alpha    88.4666
_cell_angle_beta     91.5334
_cell_angle_gamma    144.076

_symmetry_space_group_name_H-M    "P 1"
_symmetry_Int_Tables_number       1

loop_
  _symmetry_equiv_pos_as_xyz
  'x, y, z'

loop_
  _atom_site_type_symbol
  _atom_site_label
  _atom_site_symmetry_multiplicity
  _atom_site_fract_x
  _atom_site_fract_y
  _atom_site_fract_z
  _atom_site_occupancy
  _atom_site_charge
Zn  Zn1       1.0  0.66366  0.58870  0.50646  1.0000 0.819616241
Zn  Zn2       1.0  0.58870  0.66366  0.99354  1.0000 0.819616241
Zn  Zn3       1.0  0.33634  0.41130  0.49354  1.0000 0.819616241
Zn  Zn4       1.0  0.41130  0.33634  0.00646  1.0000 0.819616241
H   H1        1.0  0.39897  0.67647  0.60062  1.0000 0.1178896393
H   H2        1.0  0.67647  0.39897  0.89938  1.0000 0.1178896393
H   H3        1.0  0.60103  0.32353  0.39938  1.0000 0.1178896393
H   H4        1.0  0.32353  0.60103  0.10062  1.0000 0.1178896393
H   H5        1.0  0.44647  0.81337  0.66148  1.0000 0.1178896393
H   H6        1.0  0.81337  0.44647  0.83852  1.0000 0.113836614
H   H7        1.0  0.55353  0.18663  0.33852  1.0000 0.113836614
H   H8        1.0  0.18663  0.55353  0.16148  1.0000 0.113836614
H   H9        1.0  0.84641  0.98787  0.69647  1.0000 0.1178896393
H   H10       1.0  0.98787  0.84641  0.80353  1.0000 0.1178896393
H   H11       1.0  0.15359  0.01213  0.30353  1.0000 0.1178896393
H   H12       1.0  0.01213  0.15359  0.19647  1.0000 0.1178896393
H   H13       1.0  0.80954  0.86054  0.63359  1.0000 0.1178896393
H   H14       1.0  0.86054  0.80954  0.86641  1.0000 0.1178896393
H   H15       1.0  0.19046  0.13946  0.36641  1.0000 0.1178896393
H   H16       1.0  0.13946  0.19046  0.13359  1.0000 0.1178896393
H   H17       1.0  0.54323  0.00239  0.70326  1.0000 0.113836614
H   H18       1.0  0.00239  0.54323  0.79674  1.0000 0.113836614
H   H19       1.0  0.45677  0.99761  0.29674  1.0000 0.113836614
H   H20       1.0  0.99761  0.45677  0.20326  1.0000 0.113836614
H   H21       1.0  0.74200  0.21030  0.82890  1.0000 0.1178896393
H   H22       1.0  0.21030  0.74200  0.67110  1.0000 0.1178896393
H   H23       1.0  0.25800  0.78970  0.17110  1.0000 0.1178896393
H   H24       1.0  0.78970  0.25800  0.32890  1.0000 0.1178896393
H   H25       1.0  0.82767  0.03093  0.76484  1.0000 0.1178896393
H   H26       1.0  0.03093  0.82767  0.73516  1.0000 0.1178896393
H   H27       1.0  0.17233  0.96907  0.23516  1.0000 0.1178896393
H   H28       1.0  0.96907  0.17233  0.26484  1.0000 0.1178896393
H   H29       1.0  0.61308  0.24462  0.75305  1.0000 0.1461173125
H   H30       1.0  0.24462  0.61308  0.74695  1.0000 0.1461173125
H   H31       1.0  0.38692  0.75538  0.24695  1.0000 0.1461173125
H   H32       1.0  0.75538  0.38692  0.25305  1.0000 0.1461173125
H   H33       1.0  0.44058  0.05422  0.74851  1.0000 0.1402314954
H   H34       1.0  0.05422  0.44058  0.75149  1.0000 0.1402314954
H   H35       1.0  0.55942  0.94578  0.25149  1.0000 0.1402314954
H   H36       1.0  0.94578  0.55942  0.24851  1.0000 0.1402314954
H   H37       1.0  0.51565  0.13429  0.79797  1.0000 0.1402314954
H   H38       1.0  0.13429  0.51565  0.70203  1.0000 0.1402314954
H   H39       1.0  0.48435  0.86571  0.20203  1.0000 0.1402314954
H   H40       1.0  0.86571  0.48435  0.29797  1.0000 0.1402314954
H   H41       1.0  0.01509  0.08321  0.90698  1.0000 0.1178896393
H   H42       1.0  0.08321  0.01509  0.59302  1.0000 0.1178896393
H   H43       1.0  0.98491  0.91679  0.09302  1.0000 0.1178896393
H   H44       1.0  0.91679  0.98491  0.40698  1.0000 0.1178896393
H   H45       1.0  0.83116  0.98300  0.84860  1.0000 0.1178896393
H   H46       1.0  0.98300  0.83116  0.65140  1.0000 0.1178896393
H   H47       1.0  0.16884  0.01700  0.15140  1.0000 0.1178896393
H   H48       1.0  0.01700  0.16884  0.34860  1.0000 0.1178896393
H   H49       1.0  0.02448  0.40524  0.85093  1.0000 0.1178896393
H   H50       1.0  0.40524  0.02448  0.64907  1.0000 0.1178896393
H   H51       1.0  0.97552  0.59476  0.14907  1.0000 0.1178896393
H   H52       1.0  0.59476  0.97552  0.35093  1.0000 0.1178896393
H   H53       1.0  0.21287  0.50885  0.90597  1.0000 0.1178896393
H   H54       1.0  0.50885  0.21287  0.59403  1.0000 0.1178896393
H   H55       1.0  0.78713  0.49115  0.09403  1.0000 0.1178896393
H   H56       1.0  0.49115  0.78713  0.40597  1.0000 0.1178896393
H   H57       1.0  0.83587  0.56091  0.55395  1.0000 0.1178896393
H   H58       1.0  0.56091  0.83587  0.94605  1.0000 0.1178896393
H   H59       1.0  0.16413  0.43909  0.44605  1.0000 0.1178896393
H   H60       1.0  0.43909  0.16413  0.05395  1.0000 0.1178896393
H   H61       1.0  0.07826  0.67454  0.55158  1.0000 0.1325053867
H   H62       1.0  0.67454  0.07826  0.94842  1.0000 0.1325053867
H   H63       1.0  0.92174  0.32546  0.44842  1.0000 0.1325053867
H   H64       1.0  0.32546  0.92174  0.05158  1.0000 0.1325053867
H   H65       1.0  0.25409  0.02207  0.46648  1.0000 0.1325053867
H   H66       1.0  0.02207  0.25409  0.03352  1.0000 0.1325053867
H   H67       1.0  0.74591  0.97793  0.53352  1.0000 0.1325053867
H   H68       1.0  0.97793  0.74591  0.96648  1.0000 0.1325053867
H   H69       1.0  0.00186  0.89466  0.46892  1.0000 0.1178896393
H   H70       1.0  0.89466  0.00186  0.03108  1.0000 0.1178896393
H   H71       1.0  0.99814  0.10534  0.53108  1.0000 0.1178896393
H   H72       1.0  0.10534  0.99814  0.96892  1.0000 0.1178896393
H   H73       1.0  0.50102  0.16932  0.49147  1.0000 0.1178896393
H   H74       1.0  0.16932  0.50102  0.00853  1.0000 0.1178896393
H   H75       1.0  0.49898  0.83068  0.50853  1.0000 0.1178896393
H   H76       1.0  0.83068  0.49898  0.99147  1.0000 0.1178896393
H   H77       1.0  0.25683  0.72167  0.51470  1.0000 0.1178896393
H   H78       1.0  0.72167  0.25683  0.98530  1.0000 0.1178896393
H   H79       1.0  0.74317  0.27833  0.48530  1.0000 0.1178896393
H   H80       1.0  0.27833  0.74317  0.01470  1.0000 0.1178896393
C   C1        1.0  0.56370  0.65790  0.56960  1.0000 0.5693163104
C   C2        1.0  0.65790  0.56370  0.93040  1.0000 0.5693163104
C   C3        1.0  0.43630  0.34210  0.43040  1.0000 0.5693163104
C   C4        1.0  0.34210  0.43630  0.06960  1.0000 0.5693163104
C   C5        1.0  0.59680  0.74920  0.61010  1.0000 -0.0280230492
C   C6        1.0  0.74920  0.59680  0.88990  1.0000 -0.0280230492
C   C7        1.0  0.40320  0.25080  0.38990  1.0000 -0.0280230492
C   C8        1.0  0.25080  0.40320  0.11010  1.0000 -0.0280230492
C   C9        1.0  0.49090  0.73970  0.61970  1.0000 -0.110833268
C   C10       1.0  0.73970  0.49090  0.88030  1.0000 -0.110833268
C   C11       1.0  0.50910  0.26030  0.38030  1.0000 -0.110833268
C   C12       1.0  0.26030  0.50910  0.11970  1.0000 -0.110833268
C   C13       1.0  0.51920  0.82140  0.65660  1.0000 -0.1529652499
C   C14       1.0  0.82140  0.51920  0.84340  1.0000 -0.1529652499
C   C15       1.0  0.48080  0.17860  0.34340  1.0000 -0.1529652499
C   C16       1.0  0.17860  0.48080  0.15660  1.0000 -0.1529652499
C   C17       1.0  0.65000  0.91420  0.68640  1.0000 0.0732187252
C   C18       1.0  0.91420  0.65000  0.81360  1.0000 0.0732187252
C   C19       1.0  0.35000  0.08580  0.31360  1.0000 0.0732187252
C   C20       1.0  0.08580  0.35000  0.18640  1.0000 0.0732187252
C   C21       1.0  0.75570  0.92530  0.67690  1.0000 -0.1529652499
C   C22       1.0  0.92530  0.75570  0.82310  1.0000 -0.1529652499
C   C23       1.0  0.24430  0.07470  0.32310  1.0000 -0.1529652499
C   C24       1.0  0.07470  0.24430  0.17690  1.0000 -0.1529652499
C   C25       1.0  0.73320  0.84720  0.63930  1.0000 -0.110833268
C   C26       1.0  0.84720  0.73320  0.86070  1.0000 -0.110833268
C   C27       1.0  0.26680  0.15280  0.36070  1.0000 -0.110833268
C   C28       1.0  0.15280  0.26680  0.13930  1.0000 -0.110833268
C   C29       1.0  0.67940  0.00140  0.72670  1.0000 0.0801147334
C   C30       1.0  0.00140  0.67940  0.77330  1.0000 0.0850601472
C   C31       1.0  0.32060  0.99860  0.27330  1.0000 0.0850601472
C   C32       1.0  0.99860  0.32060  0.22670  1.0000 0.0801147334
C   C33       1.0  0.60720  0.03280  0.72860  1.0000 -0.2216371991
C   C34       1.0  0.03280  0.60720  0.77140  1.0000 -0.2216371991
C   C35       1.0  0.39280  0.96720  0.27140  1.0000 -0.2216371991
C   C36       1.0  0.96720  0.39280  0.22860  1.0000 -0.2216371991
C   C37       1.0  0.62430  0.10850  0.76670  1.0000 0.1844607644
C   C38       1.0  0.10850  0.62430  0.73330  1.0000 0.1844607644
C   C39       1.0  0.37570  0.89150  0.23330  1.0000 0.1844607644
C   C40       1.0  0.89150  0.37570  0.26670  1.0000 0.1844607644
C   C41       1.0  0.72520  0.15740  0.80350  1.0000 -0.235472659
C   C42       1.0  0.15740  0.72520  0.69650  1.0000 -0.235472659
C   C43       1.0  0.27480  0.84260  0.19650  1.0000 -0.235472659
C   C44       1.0  0.84260  0.27480  0.30350  1.0000 -0.235472659
C   C45       1.0  0.80140  0.12860  0.80290  1.0000 0.0801147334
C   C46       1.0  0.12860  0.80140  0.69710  1.0000 0.0801147334
C   C47       1.0  0.19860  0.87140  0.19710  1.0000 0.0801147334
C   C48       1.0  0.87140  0.19860  0.30290  1.0000 0.0801147334
C   C49       1.0  0.77750  0.05090  0.76500  1.0000 -0.212457063
C   C50       1.0  0.05090  0.77750  0.73500  1.0000 -0.212457063
C   C51       1.0  0.22250  0.94910  0.23500  1.0000 -0.212457063
C   C52       1.0  0.94910  0.22250  0.26500  1.0000 -0.212457063
C   C53       1.0  0.54090  0.13810  0.76650  1.0000 -0.4647084646
C   C54       1.0  0.13810  0.54090  0.73350  1.0000 -0.4647084646
C   C55       1.0  0.45910  0.86190  0.23350  1.0000 -0.4647084646
C   C56       1.0  0.86190  0.45910  0.26650  1.0000 -0.4647084646
C   C57       1.0  0.26780  0.37700  0.94470  1.0000 0.5693163104
C   C58       1.0  0.37700  0.26780  0.55530  1.0000 0.5693163104
C   C59       1.0  0.73220  0.62300  0.05530  1.0000 0.5693163104
C   C60       1.0  0.62300  0.73220  0.44470  1.0000 0.5693163104
C   C61       1.0  0.14110  0.30870  0.91010  1.0000 -0.0384581651
C   C62       1.0  0.30870  0.14110  0.58990  1.0000 -0.0384581651
C   C63       1.0  0.85890  0.69130  0.08990  1.0000 -0.0384581651
C   C64       1.0  0.69130  0.85890  0.41010  1.0000 -0.0384581651
C   C65       1.0  0.02170  0.15130  0.89440  1.0000 -0.1014039464
C   C66       1.0  0.15130  0.02170  0.60560  1.0000 -0.1014039464
C   C67       1.0  0.97830  0.84870  0.10560  1.0000 -0.1014039464
C   C68       1.0  0.84870  0.97830  0.39440  1.0000 -0.1014039464
C   C69       1.0  0.90890  0.08950  0.85970  1.0000 -0.1529652499
C   C70       1.0  0.08950  0.90890  0.64030  1.0000 -0.1529652499
C   C71       1.0  0.09110  0.91050  0.14030  1.0000 -0.1529652499
C   C72       1.0  0.91050  0.09110  0.35970  1.0000 -0.1529652499
C   C73       1.0  0.91270  0.18710  0.84180  1.0000 0.0732187252
C   C74       1.0  0.18710  0.91270  0.65820  1.0000 0.0732187252
C   C75       1.0  0.08730  0.81290  0.15820  1.0000 0.0732187252
C   C76       1.0  0.81290  0.08730  0.34180  1.0000 0.0732187252
C   C77       1.0  0.02560  0.34160  0.86100  1.0000 -0.1529652499
C   C78       1.0  0.34160  0.02560  0.63900  1.0000 -0.1529652499
C   C79       1.0  0.97440  0.65840  0.13900  1.0000 -0.1529652499
C   C80       1.0  0.65840  0.97440  0.36100  1.0000 -0.1529652499
C   C81       1.0  0.13820  0.40400  0.89400  1.0000 -0.1014039464
C   C82       1.0  0.40400  0.13820  0.60600  1.0000 -0.1014039464
C   C83       1.0  0.86180  0.59600  0.10600  1.0000 -0.1014039464
C   C84       1.0  0.59600  0.86180  0.39400  1.0000 -0.1014039464
C   C85       1.0  0.91930  0.65250  0.53480  1.0000 0.0801147334
C   C86       1.0  0.65250  0.91930  0.96520  1.0000 0.0801147334
C   C87       1.0  0.08070  0.34750  0.46520  1.0000 0.0801147334
C   C88       1.0  0.34750  0.08070  0.03480  1.0000 0.0801147334
C   C89       1.0  0.06650  0.72210  0.53390  1.0000 -0.2023503833
C   C90       1.0  0.72210  0.06650  0.96610  1.0000 -0.2023503833
C   C91       1.0  0.93350  0.27790  0.46610  1.0000 -0.2023503833
C   C92       1.0  0.27790  0.93350  0.03390  1.0000 -0.2023503833
C   C93       1.0  0.19610  0.85970  0.50750  1.0000 0.1178896393
C   C94       1.0  0.85970  0.19610  0.99250  1.0000 0.1178896393
C   C95       1.0  0.80390  0.14030  0.49250  1.0000 0.1178896393
C   C96       1.0  0.14030  0.80390  0.00750  1.0000 0.1178896393
C   C97       1.0  0.16910  0.92510  0.48380  1.0000 -0.1948926918
C   C98       1.0  0.92510  0.16910  0.01620  1.0000 -0.1948926918
C   C99       1.0  0.83090  0.07490  0.51620  1.0000 -0.2023503833
C   C100      1.0  0.07490  0.83090  0.98380  1.0000 -0.1948926918
C   C101      1.0  0.01630  0.84790  0.48540  1.0000 0.0953540482
C   C102      1.0  0.84790  0.01630  0.01460  1.0000 0.0953540482
C   C103      1.0  0.98370  0.15210  0.51460  1.0000 0.0953540482
C   C104      1.0  0.15210  0.98370  0.98540  1.0000 0.0953540482
C   C105      1.0  0.50010  0.10130  0.49510  1.0000 -0.1399677083
C   C106      1.0  0.10130  0.50010  0.00490  1.0000 -0.1399677083
C   C107      1.0  0.49990  0.89870  0.50490  1.0000 -0.1399677083
C   C108      1.0  0.89870  0.49990  0.99510  1.0000 -0.1399677083
C   C109      1.0  0.35200  0.93180  0.50460  1.0000 0.064519988
C   C110      1.0  0.93180  0.35200  0.99540  1.0000 0.064519988
C   C111      1.0  0.64800  0.06820  0.49540  1.0000 0.064519988
C   C112      1.0  0.06820  0.64800  0.00460  1.0000 0.064519988
C   C113      1.0  0.35500  0.83420  0.50890  1.0000 -0.1399677083
C   C114      1.0  0.83420  0.35500  0.99110  1.0000 -0.1399677083
C   C115      1.0  0.64500  0.16580  0.49110  1.0000 -0.1399677083
C   C116      1.0  0.16580  0.64500  0.00890  1.0000 -0.1399677083
N   N1        1.0  0.89040  0.70940  0.50980  1.0000 -0.212457063
N   N2        1.0  0.70940  0.89040  0.99020  1.0000 -0.212457063
N   N3        1.0  0.10960  0.29060  0.49020  1.0000 -0.212457063
N   N4        1.0  0.29060  0.10960  0.00980  1.0000 -0.212457063
O   O1        1.0  0.67530  0.68930  0.56010  1.0000 -0.5296824845
O   O2        1.0  0.68930  0.67530  0.93990  1.0000 -0.5296824845
O   O3        1.0  0.32470  0.31070  0.43990  1.0000 -0.5296824845
O   O4        1.0  0.31070  0.32470  0.06010  1.0000 -0.5296824845
O   O5        1.0  0.42920  0.55920  0.54920  1.0000 -0.5296824845
O   O6        1.0  0.55920  0.42920  0.95080  1.0000 -0.5296824845
O   O7        1.0  0.57080  0.44080  0.45080  1.0000 -0.5296824845
O   O8        1.0  0.44080  0.57080  0.04920  1.0000 -0.5296824845
O   O9        1.0  0.25700  0.28500  0.96150  1.0000 -0.5296824845
O   O10       1.0  0.28500  0.25700  0.53850  1.0000 -0.5296824845
O   O11       1.0  0.74300  0.71500  0.03850  1.0000 -0.5296824845
O   O12       1.0  0.71500  0.74300  0.46150  1.0000 -0.5296824845
O   O13       1.0  0.38530  0.52950  0.95340  1.0000 -0.5449310713
O   O14       1.0  0.52950  0.38530  0.54660  1.0000 -0.5449310713
O   O15       1.0  0.61470  0.47050  0.04660  1.0000 -0.5449310713
O   O16       1.0  0.47050  0.61470  0.45340  1.0000 -0.5449310713
