# DDEC6 charges by PACMAN v1.1 (https://github.com/mtap-research/PACMAN-charge/)
data_2023[Zn][sql]2[FSR]12
_chemical_formula_sum              "Zn2 H36 C60 N8 O8"
_cell_length_a       6.7237
_cell_length_b       12.615
_cell_length_c       17.2937
_cell_angle_alpha    109.516
_cell_angle_beta     96.385
_cell_angle_gamma    92.149

_symmetry_space_group_name_H-M    "P 1"
_symmetry_Int_Tables_number       1

loop_
  _symmetry_equiv_pos_as_xyz
  'x, y, z'

loop_
  _atom_site_type_symbol
  _atom_site_label
  _atom_site_symmetry_multiplicity
  _atom_site_fract_x
  _atom_site_fract_y
  _atom_site_fract_z
  _atom_site_occupancy
  _atom_site_charge
Zn  Zn1       1.0  0.81271  0.79193  0.79457  1.0000 0.7460102704
Zn  Zn2       1.0  0.18729  0.20807  0.20543  1.0000 0.7460102704
H   H1        1.0  0.38413  0.72858  0.80081  1.0000 0.1101688934
H   H2        1.0  0.61587  0.27142  0.19919  1.0000 0.1101688934
H   H3        1.0  0.65962  0.53074  0.48913  1.0000 0.1188318988
H   H4        1.0  0.34038  0.46926  0.51087  1.0000 0.1188318988
H   H5        1.0  0.01764  0.07436  0.67551  1.0000 0.1326304294
H   H6        1.0  0.98236  0.92564  0.32449  1.0000 0.1326304294
H   H7        1.0  0.18512  0.56291  0.76811  1.0000 0.1401984908
H   H8        1.0  0.81488  0.43709  0.23189  1.0000 0.1401984908
H   H9        1.0  0.78688  0.40660  0.37738  1.0000 0.1188318988
H   H10       1.0  0.21312  0.59340  0.62262  1.0000 0.1188318988
H   H11       1.0  0.42152  0.80601  0.68906  1.0000 0.1188318988
H   H12       1.0  0.57848  0.19399  0.31094  1.0000 0.1188318988
H   H13       1.0  0.68777  0.09125  0.65490  1.0000 0.1101688934
H   H14       1.0  0.31223  0.90875  0.34510  1.0000 0.1101688934
H   H15       1.0  0.77916  0.91997  0.04486  1.0000 0.1188318988
H   H16       1.0  0.22084  0.08003  0.95514  1.0000 0.1188318988
H   H17       1.0  0.48783  0.80642  0.97681  1.0000 0.1188318988
H   H18       1.0  0.51217  0.19358  0.02319  1.0000 0.1188318988
H   H19       1.0  0.68709  0.40568  0.79803  1.0000 0.1326304294
H   H20       1.0  0.31291  0.59432  0.20197  1.0000 0.1326304294
H   H21       1.0  0.78471  0.03701  0.86382  1.0000 0.1188318988
H   H22       1.0  0.21529  0.96299  0.13618  1.0000 0.1188318988
H   H23       1.0  0.87257  0.57632  0.83081  1.0000 0.1188318988
H   H24       1.0  0.12743  0.42368  0.16919  1.0000 0.1188318988
H   H25       1.0  0.21603  0.94074  0.67151  1.0000 0.1401984908
H   H26       1.0  0.78397  0.05926  0.32849  1.0000 0.1401984908
H   H27       1.0  0.05626  0.39929  0.68431  1.0000 0.1188318988
H   H28       1.0  0.94374  0.60071  0.31569  1.0000 0.1188318988
H   H29       1.0  0.37825  0.06033  0.57292  1.0000 0.1188318988
H   H30       1.0  0.62175  0.93967  0.42708  1.0000 0.1188318988
H   H31       1.0  0.59672  0.17908  0.84673  1.0000 0.1401984908
H   H32       1.0  0.40328  0.82092  0.15327  1.0000 0.1401984908
H   H33       1.0  0.54997  0.29779  0.47740  1.0000 0.1326304294
H   H34       1.0  0.45003  0.70221  0.52260  1.0000 0.1326304294
H   H35       1.0  0.86094  0.32851  0.56030  1.0000 0.1188318988
H   H36       1.0  0.13906  0.67149  0.43970  1.0000 0.1188318988
C   C1        1.0  0.92190  0.57460  0.56772  1.0000 -0.0228618383
C   C2        1.0  0.07810  0.42540  0.43228  1.0000 -0.0228618383
C   C3        1.0  0.83610  0.65220  0.64014  1.0000 0.5506501463
C   C4        1.0  0.16390  0.34780  0.35986  1.0000 0.5506501463
C   C5        1.0  0.13730  0.85780  0.91450  1.0000 0.5506501463
C   C6        1.0  0.86270  0.14220  0.08550  1.0000 0.5506501463
C   C7        1.0  0.44640  0.66150  0.79859  1.0000 0.0988008217
C   C8        1.0  0.55360  0.33850  0.20141  1.0000 0.0988008217
C   C9        1.0  0.79820  0.51820  0.49368  1.0000 -0.1175848253
C   C10       1.0  0.20180  0.48180  0.50632  1.0000 -0.1175848253
C   C11       1.0  0.38600  0.07610  0.75603  1.0000 0.0988008217
C   C12       1.0  0.61400  0.92390  0.24397  1.0000 0.0988008217
C   C13       1.0  0.27560  0.16770  0.73837  1.0000 0.2019171086
C   C14       1.0  0.72440  0.83230  0.26163  1.0000 0.2019171086
C   C15       1.0  0.29400  0.35330  0.74600  1.0000 0.2061698255
C   C16       1.0  0.70600  0.64670  0.25400  1.0000 0.2061698255
C   C17       1.0  0.08760  0.14680  0.69185  1.0000 -0.2256424497
C   C18       1.0  0.91240  0.85320  0.30815  1.0000 -0.2256424497
C   C19       1.0  0.41500  0.46370  0.77503  1.0000 0.0988008217
C   C20       1.0  0.58500  0.53630  0.22497  1.0000 0.0988008217
C   C21       1.0  0.32680  0.56310  0.77894  1.0000 -0.1701422515
C   C22       1.0  0.67320  0.43690  0.22106  1.0000 -0.1701422515
C   C23       1.0  0.00140  0.23300  0.66910  1.0000 0.1188318988
C   C24       1.0  0.99860  0.76700  0.33090  1.0000 0.1188318988
C   C25       1.0  0.32500  0.93190  0.95997  1.0000 -0.0228618383
C   C26       1.0  0.67500  0.06810  0.04003  1.0000 -0.0228618383
C   C27       1.0  0.87370  0.44460  0.42710  1.0000 -0.1175848253
C   C28       1.0  0.12630  0.55540  0.57290  1.0000 -0.1175848253
C   C29       1.0  0.45650  0.88280  0.72200  1.0000 0.0816901666
C   C30       1.0  0.54350  0.11720  0.27800  1.0000 0.0816901666
C   C31       1.0  0.65980  0.13350  0.61920  1.0000 -0.1463804873
C   C32       1.0  0.34020  0.86650  0.38080  1.0000 -0.1463804873
C   C33       1.0  0.66610  0.95250  0.02650  1.0000 -0.105976339
C   C34       1.0  0.33390  0.04750  0.97350  1.0000 -0.105976339
C   C35       1.0  0.49270  0.88520  0.98640  1.0000 -0.1273668962
C   C36       1.0  0.50730  0.11480  0.01360  1.0000 -0.1273668962
C   C37       1.0  0.80490  0.21370  0.61640  1.0000 0.0816901666
C   C38       1.0  0.19510  0.78630  0.38360  1.0000 0.0816901666
C   C39       1.0  0.62200  0.47070  0.79660  1.0000 -0.1701422515
C   C40       1.0  0.37800  0.52930  0.20340  1.0000 -0.1701422515
C   C41       1.0  0.66940  0.01750  0.82330  1.0000 0.0988008217
C   C42       1.0  0.33060  0.98250  0.17670  1.0000 0.0988008217
C   C43       1.0  0.43490  0.17680  0.51830  1.0000 0.0481872601
C   C44       1.0  0.56510  0.82320  0.48170  1.0000 0.0481872601
C   C45       1.0  0.73150  0.57260  0.81600  1.0000 0.0856634122
C   C46       1.0  0.26850  0.42740  0.18400  1.0000 0.0856634122
C   C47       1.0  0.33450  0.96270  0.71040  1.0000 -0.1785476985
C   C48       1.0  0.66550  0.03730  0.28960  1.0000 -0.1785476985
C   C49       1.0  0.10930  0.33800  0.69780  1.0000 -0.2225633221
C   C50       1.0  0.89070  0.66200  0.30220  1.0000 -0.2225633221
C   C51       1.0  0.47630  0.11510  0.57060  1.0000 -0.135530326
C   C52       1.0  0.52370  0.88490  0.42940  1.0000 -0.135530326
C   C53       1.0  0.55720  0.10270  0.81390  1.0000 -0.1785476985
C   C54       1.0  0.44280  0.89730  0.18610  1.0000 -0.1785476985
C   C55       1.0  0.57800  0.25640  0.51370  1.0000 -0.1175848253
C   C56       1.0  0.42200  0.74360  0.48630  1.0000 -0.1175848253
C   C57       1.0  0.76240  0.27430  0.56300  1.0000 -0.1273668962
C   C58       1.0  0.23760  0.72570  0.43700  1.0000 -0.1273668962
C   C59       1.0  0.24270  0.15410  0.46690  1.0000 0.261788514
C   C60       1.0  0.75730  0.84590  0.53310  1.0000 0.261788514
N   N1        1.0  0.62330  0.90810  0.77771  1.0000 -0.2380281421
N   N2        1.0  0.37670  0.09190  0.22229  1.0000 -0.2380281421
N   N3        1.0  0.64680  0.66730  0.81478  1.0000 -0.2256424497
N   N4        1.0  0.35320  0.33270  0.18522  1.0000 -0.2256424497
N   N5        1.0  0.37790  0.26980  0.76618  1.0000 -0.3365736636
N   N6        1.0  0.62210  0.73020  0.23382  1.0000 -0.3365736636
N   N7        1.0  0.09130  0.13290  0.42640  1.0000 -0.3601916465
N   N8        1.0  0.90870  0.86710  0.57360  1.0000 -0.3601916465
O   O1        1.0  0.95960  0.70315  0.70565  1.0000 -0.5462692114
O   O2        1.0  0.04040  0.29685  0.29435  1.0000 -0.5462692114
O   O3        1.0  0.65230  0.66325  0.63482  1.0000 -0.5601728591
O   O4        1.0  0.34770  0.33675  0.36518  1.0000 -0.5601728591
O   O5        1.0  0.01540  0.90032  0.87397  1.0000 -0.5418601367
O   O6        1.0  0.98460  0.09968  0.12603  1.0000 -0.5418601367
O   O7        1.0  0.11370  0.76050  0.91647  1.0000 -0.5601728591
O   O8        1.0  0.88630  0.23950  0.08353  1.0000 -0.5601728591
