# DDEC6 charges by PACMAN v1.1 (https://github.com/mtap-research/PACMAN-charge/)
data_2023[Zn][hcb]2[FSR]1
_chemical_formula_sum              "Zn2 H38 C60 N6 O12"
_cell_length_a       8.169
_cell_length_b       11.088
_cell_length_c       17.212
_cell_angle_alpha    92.887
_cell_angle_beta     101.053
_cell_angle_gamma    103.628

_symmetry_space_group_name_H-M    "P 1"
_symmetry_Int_Tables_number       1

loop_
  _symmetry_equiv_pos_as_xyz
  'x, y, z'

loop_
  _atom_site_type_symbol
  _atom_site_label
  _atom_site_symmetry_multiplicity
  _atom_site_fract_x
  _atom_site_fract_y
  _atom_site_fract_z
  _atom_site_occupancy
  _atom_site_charge
Zn  Zn1       1.0  0.66780  0.15444  0.22740  1.0000 0.7607840621
Zn  Zn2       1.0  0.33220  0.84556  0.77260  1.0000 0.7607840621
H   H1        1.0  0.16190  0.47780  0.23190  1.0000 0.1357365678
H   H2        1.0  0.83810  0.52220  0.76810  1.0000 0.1357365678
H   H3        1.0  0.26620  0.69030  0.27410  1.0000 0.1194315666
H   H4        1.0  0.73380  0.30970  0.72590  1.0000 0.1194315666
H   H5        1.0  0.93320  0.77890  0.09060  1.0000 0.1294052801
H   H6        1.0  0.06680  0.22110  0.90940  1.0000 0.1294052801
H   H7        1.0  0.69160  0.64340  0.95470  1.0000 0.1194315666
H   H8        1.0  0.30840  0.35660  0.04530  1.0000 0.1194315666
H   H9        1.0  0.48670  0.27580  0.87550  1.0000 0.1194315666
H   H10       1.0  0.51330  0.72420  0.12450  1.0000 0.1194315666
H   H11       1.0  0.67040  0.21440  0.97840  1.0000 0.1357365678
H   H12       1.0  0.32960  0.78560  0.02160  1.0000 0.1357365678
H   H13       1.0  0.41360  0.90330  0.18390  1.0000 0.1194315666
H   H14       1.0  0.58640  0.09670  0.81610  1.0000 0.1194315666
H   H15       1.0  0.97160  0.92560  0.25010  1.0000 0.1294052801
H   H16       1.0  0.02840  0.07440  0.74990  1.0000 0.1294052801
H   H17       1.0  0.09960  0.13770  0.29470  1.0000 0.1357365678
H   H18       1.0  0.90040  0.86230  0.70530  1.0000 0.1294052801
H   H19       1.0  0.37750  0.22600  0.27950  1.0000 0.1043137932
H   H20       1.0  0.62250  0.77400  0.72050  1.0000 0.1043137932
H   H21       1.0  0.49990  0.68280  0.87530  1.0000 0.1043137932
H   H22       1.0  0.50010  0.31720  0.12470  1.0000 0.1043137932
H   H23       1.0  0.36480  0.32990  0.76880  1.0000 0.1294052801
H   H24       1.0  0.63520  0.67010  0.23120  1.0000 0.1294052801
H   H25       1.0  0.18010  0.39270  0.66810  1.0000 0.1357365678
H   H26       1.0  0.81990  0.60730  0.33190  1.0000 0.1357365678
H   H27       1.0  0.17020  0.60100  0.66910  1.0000 0.1194315666
H   H28       1.0  0.82980  0.39900  0.33090  1.0000 0.1194315666
H   H29       1.0  0.02540  0.20320  0.46260  1.0000 0.1294052801
H   H30       1.0  0.97460  0.79680  0.53740  1.0000 0.1294052801
H   H31       1.0  0.90310  0.84770  0.89100  1.0000 0.1294052801
H   H32       1.0  0.09690  0.15230  0.10900  1.0000 0.1294052801
H   H33       1.0  0.93240  0.31360  0.11010  1.0000 0.294616791
H   H34       1.0  0.06760  0.68640  0.88990  1.0000 0.294616791
H   H35       1.0  0.28560  0.17830  0.63290  1.0000 0.3406536603
H   H36       1.0  0.71440  0.82170  0.36710  1.0000 0.3406536603
H   H37       1.0  0.60220  0.88870  0.98880  1.0000 0.3406536603
H   H38       1.0  0.39780  0.11130  0.01120  1.0000 0.3406536603
C   C1        1.0  0.98880  0.50140  0.13400  1.0000 0.1706276969
C   C2        1.0  0.01120  0.49860  0.86600  1.0000 0.1706276969
C   C3        1.0  0.11710  0.53780  0.20290  1.0000 -0.1893230206
C   C4        1.0  0.88290  0.46220  0.79710  1.0000 -0.1893230206
C   C5        1.0  0.17710  0.66390  0.22790  1.0000 -0.1506169713
C   C6        1.0  0.82290  0.33610  0.77210  1.0000 -0.1506169713
C   C7        1.0  0.11000  0.75460  0.18670  1.0000 0.0621890398
C   C8        1.0  0.89000  0.24540  0.81330  1.0000 0.0621890398
C   C9        1.0  0.98020  0.71860  0.11820  1.0000 -0.1893230206
C   C10       1.0  0.01980  0.28140  0.88180  1.0000 -0.1893230206
C   C11       1.0  0.92040  0.59110  0.09100  1.0000 -0.0210721036
C   C12       1.0  0.07960  0.40890  0.90900  1.0000 -0.0210721036
C   C13       1.0  0.79280  0.52190  0.02330  1.0000 -0.0210721036
C   C14       1.0  0.20720  0.47810  0.97670  1.0000 -0.0210721036
C   C15       1.0  0.68600  0.55770  0.95980  1.0000 -0.1825142144
C   C16       1.0  0.31400  0.44230  0.04020  1.0000 -0.1825142144
C   C17       1.0  0.57030  0.46520  0.90360  1.0000 0.0621890398
C   C18       1.0  0.42970  0.53480  0.09640  1.0000 0.0621890398
C   C19       1.0  0.56690  0.33800  0.91300  1.0000 -0.1401284314
C   C20       1.0  0.43310  0.66200  0.08700  1.0000 -0.1401284314
C   C21       1.0  0.67440  0.30010  0.97420  1.0000 -0.1825142144
C   C22       1.0  0.32560  0.69990  0.02580  1.0000 -0.1825142144
C   C23       1.0  0.78960  0.39390  0.02950  1.0000 0.1706276969
C   C24       1.0  0.21040  0.60610  0.97050  1.0000 0.1706276969
C   C25       1.0  0.34810  0.95030  0.20670  1.0000 0.0548632355
C   C26       1.0  0.65190  0.04970  0.79330  1.0000 0.0548632355
C   C27       1.0  0.18220  0.89010  0.21440  1.0000 0.0370559959
C   C28       1.0  0.81780  0.10990  0.78560  1.0000 0.0370559959
C   C29       1.0  0.08670  0.96210  0.24600  1.0000 -0.0752069033
C   C30       1.0  0.91330  0.03790  0.75400  1.0000 -0.0752069033
C   C31       1.0  0.16170  0.08840  0.27150  1.0000 -0.115845365
C   C32       1.0  0.83830  0.91160  0.72850  1.0000 -0.115845365
C   C33       1.0  0.32700  0.14020  0.26250  1.0000 0.0621890398
C   C34       1.0  0.67300  0.85980  0.73750  1.0000 0.0621890398
C   C35       1.0  0.43700  0.62260  0.83220  1.0000 0.0177564533
C   C36       1.0  0.56300  0.37740  0.16780  1.0000 0.0177564533
C   C37       1.0  0.45620  0.50000  0.83610  1.0000 0.0370559959
C   C38       1.0  0.54380  0.50000  0.16390  1.0000 0.0370559959
C   C39       1.0  0.35700  0.41410  0.77090  1.0000 -0.0904815993
C   C40       1.0  0.64300  0.58590  0.22910  1.0000 -0.0904815993
C   C41       1.0  0.24960  0.45160  0.71060  1.0000 -0.11430156
C   C42       1.0  0.75040  0.54840  0.28940  1.0000 -0.11430156
C   C43       1.0  0.24270  0.57560  0.71180  1.0000 0.0621890398
C   C44       1.0  0.75730  0.42440  0.28820  1.0000 0.0621890398
C   C45       1.0  0.90150  0.02020  0.42840  1.0000 -0.1401284314
C   C46       1.0  0.09850  0.97980  0.57160  1.0000 -0.1401284314
C   C47       1.0  0.11250  0.10220  0.54970  1.0000 0.266954782
C   C48       1.0  0.88750  0.89780  0.45030  1.0000 0.266954782
C   C49       1.0  0.01490  0.12110  0.47800  1.0000 -0.2166327811
C   C50       1.0  0.98510  0.87890  0.52200  1.0000 -0.2166327811
C   C51       1.0  0.79880  0.04230  0.35060  1.0000 0.5696925246
C   C52       1.0  0.20120  0.95770  0.64940  1.0000 0.5696925246
C   C53       1.0  0.88500  0.02380  0.04690  1.0000 -0.1578664309
C   C54       1.0  0.11500  0.97620  0.95310  1.0000 -0.1578664309
C   C55       1.0  0.82760  0.93160  0.98070  1.0000 0.2526895725
C   C56       1.0  0.17240  0.06840  0.01930  1.0000 0.2526895725
C   C57       1.0  0.94260  0.90950  0.93520  1.0000 -0.2363585657
C   C58       1.0  0.05740  0.09050  0.06480  1.0000 -0.2363585657
C   C59       1.0  0.76340  0.04270  0.09850  1.0000 0.5797033631
C   C60       1.0  0.23660  0.95730  0.90150  1.0000 0.5797033631
N   N1        1.0  0.90960  0.38370  0.09510  1.0000 -0.3134983456
N   N2        1.0  0.09040  0.61630  0.90490  1.0000 -0.3134983456
N   N3        1.0  0.41910  0.07260  0.23030  1.0000 -0.2275620079
N   N4        1.0  0.58090  0.92740  0.76970  1.0000 -0.2275620079
N   N5        1.0  0.33670  0.66070  0.77230  1.0000 -0.2363585657
N   N6        1.0  0.66330  0.33930  0.22770  1.0000 -0.2363585657
O   O1        1.0  0.81020  0.15530  0.33510  1.0000 -0.5474990881
O   O2        1.0  0.18980  0.84470  0.66490  1.0000 -0.5474990881
O   O3        1.0  0.70840  0.95010  0.30378  1.0000 -0.5654692328
O   O4        1.0  0.29160  0.04990  0.69622  1.0000 -0.5654692328
O   O5        1.0  0.22080  0.20250  0.59620  1.0000 -0.4596558934
O   O6        1.0  0.77920  0.79750  0.40380  1.0000 -0.4596558934
O   O7        1.0  0.81690  0.13630  0.15293  1.0000 -0.5601549423
O   O8        1.0  0.18310  0.86370  0.84707  1.0000 -0.5601549423
O   O9        1.0  0.61590  0.97010  0.08820  1.0000 -0.5601549423
O   O10       1.0  0.38410  0.02990  0.91180  1.0000 -0.5601549423
O   O11       1.0  0.66130  0.86230  0.96012  1.0000 -0.4413453615
O   O12       1.0  0.33870  0.13770  0.03988  1.0000 -0.4413453615
