# DDEC6 charges by PACMAN v1.1 (https://github.com/mtap-research/PACMAN-charge/)
data_2023[TiCu][nan]3[FSR]4
_chemical_formula_sum              "Ti4 Cu4 H80 C104 N32 O16 F24"
_cell_length_a       19.7886
_cell_length_b       19.7886
_cell_length_c       19.7886
_cell_angle_alpha    130.342
_cell_angle_beta     130.342
_cell_angle_gamma    72.8609

_symmetry_space_group_name_H-M    "P 1"
_symmetry_Int_Tables_number       1

loop_
  _symmetry_equiv_pos_as_xyz
  'x, y, z'

loop_
  _atom_site_type_symbol
  _atom_site_label
  _atom_site_symmetry_multiplicity
  _atom_site_fract_x
  _atom_site_fract_y
  _atom_site_fract_z
  _atom_site_occupancy
  _atom_site_charge
Ti  Ti1       1.0  0.37500  0.65278  0.77778  1.0000 2.1570893508
Ti  Ti2       1.0  0.40278  0.12500  0.77778  1.0000 2.1570893508
Ti  Ti3       1.0  0.87500  0.59722  0.22222  1.0000 2.1570893508
Ti  Ti4       1.0  0.34722  0.62500  0.22222  1.0000 2.1570893508
Cu  Cu1       1.0  0.12535  0.62535  0.50000  1.0000 0.7640455049
Cu  Cu2       1.0  0.37535  0.37535  0.00000  1.0000 0.7640455049
Cu  Cu3       1.0  0.62465  0.62465  0.00000  1.0000 0.7640455049
Cu  Cu4       1.0  0.37465  0.87465  0.50000  1.0000 0.7640455049
H   H1        1.0  0.19415  0.49420  0.55887  1.0000 0.1237768587
H   H2        1.0  0.24420  0.18533  0.80005  1.0000 0.1237768587
H   H3        1.0  0.93533  0.63528  0.44113  1.0000 0.1237768587
H   H4        1.0  0.38528  0.44415  0.19995  1.0000 0.1237768587
H   H5        1.0  0.55585  0.61472  0.80005  1.0000 0.1237768587
H   H6        1.0  0.36472  0.06467  0.55887  1.0000 0.1237768587
H   H7        1.0  0.81467  0.75580  0.19995  1.0000 0.1237768587
H   H8        1.0  0.50580  0.80585  0.44113  1.0000 0.1237768587
H   H9        1.0  0.19426  0.43686  0.62930  1.0000 0.1459417424
H   H10       1.0  0.18686  0.05756  0.74260  1.0000 0.1459417424
H   H11       1.0  0.80756  0.56496  0.37070  1.0000 0.1459417424
H   H12       1.0  0.31496  0.44426  0.25740  1.0000 0.1459417424
H   H13       1.0  0.55574  0.68504  0.74260  1.0000 0.1459417424
H   H14       1.0  0.43504  0.19244  0.62930  1.0000 0.1459417424
H   H15       1.0  0.94244  0.81314  0.25740  1.0000 0.1459417424
H   H16       1.0  0.56314  0.80574  0.37070  1.0000 0.1459417424
H   H17       1.0  0.21204  0.19372  0.56226  1.0000 0.1459417424
H   H18       1.0  0.94372  0.88146  0.48168  1.0000 0.1425264302
H   H19       1.0  0.63146  0.64978  0.43774  1.0000 0.1459417424
H   H20       1.0  0.39978  0.46204  0.51832  1.0000 0.1459417424
H   H21       1.0  0.53796  0.60022  0.48168  1.0000 0.1459417424
H   H22       1.0  0.35022  0.36854  0.56226  1.0000 0.1459417424
H   H23       1.0  0.11854  0.05628  0.51832  1.0000 0.1459417424
H   H24       1.0  0.80628  0.78796  0.43774  1.0000 0.1459417424
H   H25       1.0  0.96986  0.43897  0.27325  1.0000 0.1425264302
H   H26       1.0  0.18897  0.41572  0.96911  1.0000 0.1425264302
H   H27       1.0  0.16572  0.69661  0.72675  1.0000 0.1425264302
H   H28       1.0  0.44661  0.21986  0.03089  1.0000 0.1425264302
H   H29       1.0  0.78014  0.55339  0.96911  1.0000 0.1425264302
H   H30       1.0  0.30339  0.83428  0.27325  1.0000 0.1425264302
H   H31       1.0  0.58428  0.81103  0.03089  1.0000 0.1425264302
H   H32       1.0  0.56103  0.03014  0.72675  1.0000 0.1425264302
H   H33       1.0  0.30953  0.50516  0.81977  1.0000 0.1425264302
H   H34       1.0  0.25516  0.93539  0.69563  1.0000 0.1425264302
H   H35       1.0  0.68539  0.48976  0.18023  1.0000 0.1425264302
H   H36       1.0  0.23976  0.55953  0.30437  1.0000 0.1425264302
H   H37       1.0  0.44047  0.76024  0.69563  1.0000 0.1425264302
H   H38       1.0  0.51024  0.31461  0.81977  1.0000 0.1425264302
H   H39       1.0  0.06461  0.74484  0.30437  1.0000 0.1425264302
H   H40       1.0  0.49484  0.69047  0.18023  1.0000 0.1425264302
H   H41       1.0  0.96433  0.31174  0.26644  1.0000 0.1278274053
H   H42       1.0  0.06175  0.29531  0.84742  1.0000 0.1278274053
H   H43       1.0  0.04531  0.69788  0.73356  1.0000 0.1278274053
H   H44       1.0  0.44788  0.21432  0.15258  1.0000 0.1278274053
H   H45       1.0  0.78568  0.55212  0.84742  1.0000 0.1278274053
H   H46       1.0  0.30212  0.95469  0.26644  1.0000 0.1278274053
H   H47       1.0  0.70469  0.93825  0.15258  1.0000 0.1278274053
H   H48       1.0  0.68825  0.03567  0.73356  1.0000 0.1278274053
H   H49       1.0  0.05709  0.20845  0.30616  1.0000 0.1278274053
H   H50       1.0  0.95845  0.15229  0.65136  1.0000 0.1278274053
H   H51       1.0  0.90229  0.75093  0.69384  1.0000 0.1278274053
H   H52       1.0  0.50093  0.30709  0.34864  1.0000 0.1278274053
H   H53       1.0  0.69291  0.49907  0.65136  1.0000 0.1278274053
H   H54       1.0  0.24907  0.09771  0.30616  1.0000 0.1278274053
H   H55       1.0  0.84771  0.04155  0.34864  1.0000 0.1278274053
H   H56       1.0  0.79155  0.94291  0.69384  1.0000 0.1278274053
H   H57       1.0  0.04435  0.99412  0.19525  1.0000 0.3552895766
H   H58       1.0  0.74412  0.04887  0.44977  1.0000 0.3552895766
H   H59       1.0  0.79887  0.84910  0.80475  1.0000 0.3552895766
H   H60       1.0  0.59910  0.29435  0.55023  1.0000 0.3552895766
H   H61       1.0  0.70565  0.40090  0.44977  1.0000 0.3552895766
H   H62       1.0  0.15090  0.20113  0.19525  1.0000 0.3552895766
H   H63       1.0  0.95113  0.25588  0.55023  1.0000 0.3552895766
H   H64       1.0  0.00588  0.95565  0.80475  1.0000 0.3552895766
H   H65       1.0  0.37995  0.53349  0.99054  1.0000 0.1278274053
H   H66       1.0  0.28349  0.79295  0.65354  1.0000 0.1278274053
H   H67       1.0  0.54295  0.38941  0.00946  1.0000 0.1278274053
H   H68       1.0  0.13941  0.62995  0.34646  1.0000 0.1278274053
H   H69       1.0  0.37005  0.86059  0.65354  1.0000 0.1278274053
H   H70       1.0  0.61059  0.45705  0.99054  1.0000 0.1278274053
H   H71       1.0  0.20705  0.71651  0.34646  1.0000 0.1278274053
H   H72       1.0  0.46651  0.62005  0.00946  1.0000 0.1278274053
H   H73       1.0  0.26676  0.27350  0.74218  1.0000 0.1278274053
H   H74       1.0  0.02350  0.78132  0.50674  1.0000 0.1278274053
H   H75       1.0  0.53132  0.52458  0.25782  1.0000 0.1278274053
H   H76       1.0  0.27458  0.51676  0.49326  1.0000 0.1278274053
H   H77       1.0  0.48324  0.72542  0.50674  1.0000 0.1278274053
H   H78       1.0  0.47542  0.46868  0.74218  1.0000 0.1278274053
H   H79       1.0  0.21868  0.97650  0.49326  1.0000 0.1278274053
H   H80       1.0  0.72650  0.73324  0.25782  1.0000 0.1278274053
C   C1        1.0  0.21190  0.32290  0.61420  1.0000 0.2079534717
C   C2        1.0  0.07290  0.95870  0.61100  1.0000 0.2079534717
C   C3        1.0  0.70870  0.59770  0.38580  1.0000 0.2079534717
C   C4        1.0  0.34770  0.46190  0.38900  1.0000 0.2079534717
C   C5        1.0  0.53810  0.65230  0.61100  1.0000 0.2079534717
C   C6        1.0  0.40230  0.29130  0.61420  1.0000 0.2079534717
C   C7        1.0  0.04130  0.92710  0.38900  1.0000 0.2079534717
C   C8        1.0  0.67710  0.78810  0.38580  1.0000 0.2079534717
C   C9        1.0  0.13020  0.18550  0.42210  1.0000 -0.0077292412
C   C10       1.0  0.93550  0.01340  0.55530  1.0000 -0.0077292412
C   C11       1.0  0.76340  0.70810  0.57790  1.0000 -0.0077292412
C   C12       1.0  0.45810  0.38020  0.44470  1.0000 -0.0077292412
C   C13       1.0  0.61980  0.54190  0.55530  1.0000 -0.0077292412
C   C14       1.0  0.29190  0.23660  0.42210  1.0000 -0.0077292412
C   C15       1.0  0.98660  0.06450  0.44470  1.0000 -0.0077292412
C   C16       1.0  0.81450  0.86980  0.57790  1.0000 -0.0077292412
C   C17       1.0  0.13810  0.46450  0.48660  1.0000 0.1278274053
C   C18       1.0  0.21450  0.22790  0.82640  1.0000 0.1278274053
C   C19       1.0  0.97790  0.65150  0.51340  1.0000 0.1278274053
C   C20       1.0  0.40150  0.38810  0.17360  1.0000 0.1278274053
C   C21       1.0  0.61190  0.59850  0.82640  1.0000 0.1278274053
C   C22       1.0  0.34850  0.02210  0.48660  1.0000 0.1278274053
C   C23       1.0  0.77210  0.78550  0.17360  1.0000 0.1278274053
C   C24       1.0  0.53550  0.86190  0.51340  1.0000 0.1278274053
C   C25       1.0  0.12210  0.32910  0.46180  1.0000 0.1926553473
C   C26       1.0  0.07910  0.11730  0.70700  1.0000 0.1926553473
C   C27       1.0  0.86730  0.66030  0.53820  1.0000 0.1926553473
C   C28       1.0  0.41030  0.37210  0.29300  1.0000 0.1926553473
C   C29       1.0  0.62790  0.58970  0.70700  1.0000 0.1926553473
C   C30       1.0  0.33970  0.13270  0.46180  1.0000 0.1926553473
C   C31       1.0  0.88270  0.92090  0.29300  1.0000 0.1926553473
C   C32       1.0  0.67090  0.87790  0.53820  1.0000 0.1926553473
C   C33       1.0  0.17890  0.37380  0.57730  1.0000 -0.2501600142
C   C34       1.0  0.12380  0.04650  0.69490  1.0000 -0.2501600142
C   C35       1.0  0.79650  0.60160  0.42270  1.0000 -0.2501600142
C   C36       1.0  0.35160  0.42890  0.30510  1.0000 -0.2501600142
C   C37       1.0  0.57110  0.64840  0.69490  1.0000 -0.2501600142
C   C38       1.0  0.39840  0.20350  0.57730  1.0000 -0.2501600142
C   C39       1.0  0.95350  0.87620  0.30510  1.0000 -0.2501600142
C   C40       1.0  0.62620  0.82110  0.42270  1.0000 -0.2501600142
C   C41       1.0  0.18880  0.22760  0.53700  1.0000 -0.1836669389
C   C42       1.0  0.97760  0.94060  0.53880  1.0000 -0.1836669389
C   C43       1.0  0.69060  0.65180  0.46300  1.0000 -0.1836669389
C   C44       1.0  0.40180  0.43880  0.46120  1.0000 -0.1836669389
C   C45       1.0  0.56120  0.59820  0.53880  1.0000 -0.1836669389
C   C46       1.0  0.34820  0.30940  0.53700  1.0000 -0.1836669389
C   C47       1.0  0.05940  0.02240  0.46120  1.0000 -0.1836669389
C   C48       1.0  0.77240  0.81120  0.46300  1.0000 -0.1836669389
C   C49       1.0  0.10620  0.08530  0.33870  1.0000 0.5342472376
C   C50       1.0  0.83530  0.99660  0.47910  1.0000 0.5350501519
C   C51       1.0  0.74660  0.76750  0.66130  1.0000 0.5342472376
C   C52       1.0  0.51750  0.35620  0.52090  1.0000 0.5342472376
C   C53       1.0  0.64380  0.48250  0.47910  1.0000 0.5342472376
C   C54       1.0  0.23250  0.25340  0.33870  1.0000 0.5342472376
C   C55       1.0  0.00340  0.16470  0.52090  1.0000 0.5342472376
C   C56       1.0  0.91470  0.89380  0.66130  1.0000 0.5350501519
C   C57       1.0  0.01500  0.43350  0.32970  1.0000 0.0043197233
C   C58       1.0  0.18350  0.35380  0.91850  1.0000 0.0051087421
C   C59       1.0  0.10380  0.68530  0.67030  1.0000 0.0051087421
C   C60       1.0  0.43530  0.26500  0.08150  1.0000 0.0051087421
C   C61       1.0  0.73500  0.56470  0.91850  1.0000 0.0051087421
C   C62       1.0  0.31470  0.89620  0.32970  1.0000 0.0043197233
C   C63       1.0  0.64620  0.81650  0.08150  1.0000 0.0043197233
C   C64       1.0  0.56650  0.98500  0.67030  1.0000 0.0051087421
C   C65       1.0  0.31030  0.46170  0.82540  1.0000 -0.1025661374
C   C66       1.0  0.21170  0.88630  0.65140  1.0000 -0.1025661374
C   C67       1.0  0.63630  0.48490  0.17460  1.0000 -0.1025661374
C   C68       1.0  0.23490  0.56030  0.34860  1.0000 -0.1025661374
C   C69       1.0  0.43970  0.76510  0.65140  1.0000 -0.1025661374
C   C70       1.0  0.51510  0.36370  0.82540  1.0000 -0.1025661374
C   C71       1.0  0.11370  0.78830  0.34860  1.0000 -0.1025661374
C   C72       1.0  0.53830  0.68970  0.17460  1.0000 -0.1025661374
C   C73       1.0  0.01100  0.36280  0.32520  1.0000 -0.1025661374
C   C74       1.0  0.11280  0.28760  0.85180  1.0000 -0.1025661374
C   C75       1.0  0.03760  0.68580  0.67480  1.0000 -0.1025661374
C   C76       1.0  0.43580  0.26100  0.14820  1.0000 -0.1025661374
C   C77       1.0  0.73900  0.56420  0.85180  1.0000 -0.1025661374
C   C78       1.0  0.31420  0.96240  0.32520  1.0000 -0.1025661374
C   C79       1.0  0.71240  0.88720  0.14820  1.0000 -0.1025661374
C   C80       1.0  0.63720  0.98900  0.67480  1.0000 -0.1025661374
C   C81       1.0  0.09620  0.23710  0.38350  1.0000 -0.2246141899
C   C82       1.0  0.98710  0.10360  0.64090  1.0000 -0.2246141899
C   C83       1.0  0.85360  0.71270  0.61650  1.0000 -0.2246141899
C   C84       1.0  0.46270  0.34620  0.35910  1.0000 -0.2246141899
C   C85       1.0  0.65380  0.53730  0.64090  1.0000 -0.2246141899
C   C86       1.0  0.28730  0.14640  0.38350  1.0000 -0.2246141899
C   C87       1.0  0.89640  0.01290  0.35910  1.0000 -0.2246141899
C   C88       1.0  0.76290  0.90380  0.61650  1.0000 -0.2246141899
C   C89       1.0  0.34940  0.47700  0.91860  1.0000 -0.0329880462
C   C90       1.0  0.22700  0.80840  0.62760  1.0000 -0.0329880462
C   C91       1.0  0.55840  0.43080  0.08140  1.0000 -0.0329880462
C   C92       1.0  0.18080  0.59940  0.37240  1.0000 -0.0329880462
C   C93       1.0  0.40060  0.81920  0.62760  1.0000 -0.0329880462
C   C94       1.0  0.56920  0.44160  0.91860  1.0000 -0.0329880462
C   C95       1.0  0.19160  0.77300  0.37240  1.0000 -0.0329880462
C   C96       1.0  0.52300  0.65060  0.08140  1.0000 -0.0329880462
C   C97       1.0  0.28670  0.33410  0.78240  1.0000 0.1278274053
C   C98       1.0  0.08410  0.80170  0.54740  1.0000 0.1278274053
C   C99       1.0  0.55170  0.50430  0.21760  1.0000 0.1278274053
C   C100      1.0  0.25430  0.53670  0.45260  1.0000 0.1278274053
C   C101      1.0  0.46330  0.74570  0.54740  1.0000 0.1278274053
C   C102      1.0  0.49570  0.44830  0.78240  1.0000 0.1278274053
C   C103      1.0  0.19830  0.91590  0.45260  1.0000 0.1278274053
C   C104      1.0  0.66590  0.71330  0.21760  1.0000 0.1278274053
N   N1        1.0  0.09280  0.49700  0.43120  1.0000 -0.2584726494
N   N2        1.0  0.24700  0.31580  0.90420  1.0000 -0.2584726494
N   N3        1.0  0.06580  0.66160  0.56880  1.0000 -0.2584726494
N   N4        1.0  0.41160  0.34280  0.09580  1.0000 -0.2584726494
N   N5        1.0  0.65720  0.58840  0.90420  1.0000 -0.2584726494
N   N6        1.0  0.33840  0.93420  0.43120  1.0000 -0.2584726494
N   N7        1.0  0.68420  0.75300  0.09580  1.0000 -0.2584726494
N   N8        1.0  0.50300  0.90720  0.56880  1.0000 -0.2584726494
N   N9        1.0  0.09140  0.38300  0.42520  1.0000 0.0043197233
N   N10       1.0  0.13300  0.20780  0.79160  1.0000 0.0043197233
N   N11       1.0  0.95780  0.66620  0.57480  1.0000 0.0043197233
N   N12       1.0  0.41620  0.34140  0.20840  1.0000 0.0043197233
N   N13       1.0  0.65860  0.58380  0.79160  1.0000 0.0043197233
N   N14       1.0  0.33380  0.04220  0.42520  1.0000 0.0043197233
N   N15       1.0  0.79220  0.86700  0.20840  1.0000 0.0043197233
N   N16       1.0  0.61700  0.90860  0.57480  1.0000 0.0043197233
N   N17       1.0  0.26920  0.36960  0.73380  1.0000 -0.0014382342
N   N18       1.0  0.11960  0.88580  0.60040  1.0000 -0.0014382342
N   N19       1.0  0.63580  0.53540  0.26620  1.0000 -0.0014382342
N   N20       1.0  0.28540  0.51920  0.39960  1.0000 -0.0014382342
N   N21       1.0  0.48080  0.71460  0.60040  1.0000 -0.0014382342
N   N22       1.0  0.46460  0.36420  0.73380  1.0000 -0.0014382342
N   N23       1.0  0.11420  0.88040  0.39960  1.0000 -0.0014382342
N   N24       1.0  0.63040  0.73080  0.26620  1.0000 -0.0014382342
N   N25       1.0  0.33570  0.39690  0.89480  1.0000 -0.2680798489
N   N26       1.0  0.14690  0.75210  0.56120  1.0000 -0.2680798489
N   N27       1.0  0.50210  0.44090  0.10520  1.0000 -0.2680798489
N   N28       1.0  0.19090  0.58570  0.43880  1.0000 -0.2680798489
N   N29       1.0  0.41430  0.80910  0.56120  1.0000 -0.2680798489
N   N30       1.0  0.55910  0.49790  0.89480  1.0000 -0.2680798489
N   N31       1.0  0.24790  0.85310  0.43880  1.0000 -0.2680798489
N   N32       1.0  0.60310  0.66430  0.10520  1.0000 -0.2680798489
O   O1        1.0  0.13550  0.03810  0.36800  1.0000 -0.5031593759
O   O2        1.0  0.78810  0.92010  0.40260  1.0000 -0.5031593759
O   O3        1.0  0.67010  0.76750  0.63200  1.0000 -0.5031593759
O   O4        1.0  0.51750  0.38550  0.59740  1.0000 -0.5031593759
O   O5        1.0  0.61450  0.48250  0.40260  1.0000 -0.5031593759
O   O6        1.0  0.23250  0.32990  0.36800  1.0000 -0.5031593759
O   O7        1.0  0.07990  0.21190  0.59740  1.0000 -0.5031593759
O   O8        1.0  0.96190  0.86450  0.63200  1.0000 -0.5031593759
O   O9        1.0  0.05490  0.05170  0.23680  1.0000 -0.4243332464
O   O10       1.0  0.80170  0.06490  0.49680  1.0000 -0.4243332464
O   O11       1.0  0.81490  0.81810  0.76320  1.0000 -0.4263783414
O   O12       1.0  0.56810  0.30490  0.50320  1.0000 -0.4243332464
O   O13       1.0  0.69510  0.43190  0.49680  1.0000 -0.4243332464
O   O14       1.0  0.18190  0.18510  0.23680  1.0000 -0.4243332464
O   O15       1.0  0.93510  0.19830  0.50320  1.0000 -0.4243332464
O   O16       1.0  0.94830  0.94510  0.76320  1.0000 -0.4263783414
F   F1        1.0  0.26541  0.65431  0.66667  1.0000 -0.6278073508
F   F2        1.0  0.40431  0.23761  0.88890  1.0000 -0.6278073508
F   F3        1.0  0.98761  0.59871  0.33333  1.0000 -0.6278073508
F   F4        1.0  0.34871  0.51541  0.11110  1.0000 -0.6278073508
F   F5        1.0  0.48459  0.65129  0.88890  1.0000 -0.6278073508
F   F6        1.0  0.40129  0.01239  0.66667  1.0000 -0.6278073508
F   F7        1.0  0.76239  0.59569  0.11110  1.0000 -0.6278073508
F   F8        1.0  0.34569  0.73459  0.33333  1.0000 -0.6278073508
F   F9        1.0  0.43644  0.71014  0.78090  1.0000 -0.6227238445
F   F10       1.0  0.46014  0.17924  0.77370  1.0000 -0.6227238445
F   F11       1.0  0.92924  0.65554  0.21910  1.0000 -0.6227238445
F   F12       1.0  0.40554  0.68644  0.22630  1.0000 -0.6227238445
F   F13       1.0  0.31356  0.59446  0.77370  1.0000 -0.6227238445
F   F14       1.0  0.34446  0.07076  0.78090  1.0000 -0.6227238445
F   F15       1.0  0.82076  0.53986  0.22630  1.0000 -0.6227238445
F   F16       1.0  0.28986  0.56356  0.21910  1.0000 -0.6227238445
F   F17       1.0  0.37500  0.54050  0.66550  1.0000 -0.6227238445
F   F18       1.0  0.29050  0.12500  0.66550  1.0000 -0.6227238445
F   F19       1.0  0.87500  0.70950  0.33450  1.0000 -0.6227238445
F   F20       1.0  0.45950  0.62500  0.33450  1.0000 -0.6227238445
F   F21       1.0  0.37500  0.76170  0.88670  1.0000 -0.6102372874
F   F22       1.0  0.51170  0.12500  0.88670  1.0000 -0.6102372874
F   F23       1.0  0.87500  0.48830  0.11330  1.0000 -0.6102372874
F   F24       1.0  0.23830  0.62500  0.11330  1.0000 -0.6102372874
