# DDEC6 charges by PACMAN v1.1 (https://github.com/mtap-research/PACMAN-charge/)
data_2023[Zn][sql]2[FSR]6
_chemical_formula_sum              "Zn2 H36 C60 N8 O8"
_cell_length_a       6.7096
_cell_length_b       12.6934
_cell_length_c       17.133
_cell_angle_alpha    109.685
_cell_angle_beta     96.928
_cell_angle_gamma    89.343

_symmetry_space_group_name_H-M    "P 1"
_symmetry_Int_Tables_number       1

loop_
  _symmetry_equiv_pos_as_xyz
  'x, y, z'

loop_
  _atom_site_type_symbol
  _atom_site_label
  _atom_site_symmetry_multiplicity
  _atom_site_fract_x
  _atom_site_fract_y
  _atom_site_fract_z
  _atom_site_occupancy
  _atom_site_charge
Zn  Zn1       1.0  0.79929  0.99153  0.80115  1.0000 0.7462707927
Zn  Zn2       1.0  0.20071  0.00847  0.19885  1.0000 0.7462707927
H   H1        1.0  0.24019  0.86497  0.95343  1.0000 0.1190942006
H   H2        1.0  0.75981  0.13503  0.04657  1.0000 0.1190942006
H   H3        1.0  0.65592  0.96459  0.49007  1.0000 0.1190942006
H   H4        1.0  0.34408  0.03541  0.50993  1.0000 0.1190942006
H   H5        1.0  0.36765  0.05406  0.80180  1.0000 0.1004656107
H   H6        1.0  0.63235  0.94594  0.19820  1.0000 0.1004656107
H   H7        1.0  0.45204  0.17463  0.98430  1.0000 0.1117237826
H   H8        1.0  0.54796  0.82537  0.01570  1.0000 0.1190942006
H   H9        1.0  0.17133  0.18713  0.76853  1.0000 0.1391792298
H   H10       1.0  0.82867  0.81287  0.23147  1.0000 0.1391792298
H   H11       1.0  0.60169  0.64121  0.84535  1.0000 0.1391792298
H   H12       1.0  0.39831  0.35879  0.15465  1.0000 0.1391792298
H   H13       1.0  0.78921  0.80222  0.86291  1.0000 0.1190942006
H   H14       1.0  0.21079  0.19778  0.13709  1.0000 0.1190942006
H   H15       1.0  0.01452  0.58945  0.67921  1.0000 0.1280657668
H   H16       1.0  0.98548  0.41055  0.32079  1.0000 0.1280657668
H   H17       1.0  0.04525  0.27335  0.68441  1.0000 0.1190942006
H   H18       1.0  0.95475  0.72665  0.31559  1.0000 0.1190942006
H   H19       1.0  0.79340  0.97761  0.37532  1.0000 0.1190942006
H   H20       1.0  0.20660  0.02239  0.62468  1.0000 0.1190942006
H   H21       1.0  0.68005  0.54938  0.65880  1.0000 0.1117237826
H   H22       1.0  0.31995  0.45062  0.34120  1.0000 0.1117237826
H   H23       1.0  0.85791  0.22941  0.55930  1.0000 0.1190942006
H   H24       1.0  0.14209  0.77059  0.44070  1.0000 0.1190942006
H   H25       1.0  0.85842  0.23626  0.83266  1.0000 0.1190942006
H   H26       1.0  0.14158  0.76374  0.16734  1.0000 0.1190942006
H   H27       1.0  0.20178  0.72431  0.68049  1.0000 0.1391792298
H   H28       1.0  0.79822  0.27569  0.31951  1.0000 0.1391792298
H   H29       1.0  0.67792  0.37352  0.79766  1.0000 0.1391792298
H   H30       1.0  0.32208  0.62648  0.20234  1.0000 0.1391792298
H   H31       1.0  0.40665  0.87763  0.69839  1.0000 0.1190942006
H   H32       1.0  0.59335  0.12237  0.30161  1.0000 0.1190942006
H   H33       1.0  0.37623  0.50420  0.57218  1.0000 0.1190942006
H   H34       1.0  0.62377  0.49580  0.42782  1.0000 0.1190942006
H   H35       1.0  0.55060  0.18292  0.47369  1.0000 0.1280657668
H   H36       1.0  0.44940  0.81708  0.52631  1.0000 0.1280657668
C   C1        1.0  0.31670  0.02310  0.96290  1.0000 -0.0278683248
C   C2        1.0  0.68330  0.97690  0.03710  1.0000 -0.0278683248
C   C3        1.0  0.34600  0.92020  0.97240  1.0000 -0.1040682475
C   C4        1.0  0.65400  0.07980  0.02760  1.0000 -0.1040682475
C   C5        1.0  0.91700  0.98950  0.56860  1.0000 -0.0240188147
C   C6        1.0  0.08300  0.01050  0.43140  1.0000 -0.0240188147
C   C7        1.0  0.38210  0.66330  0.75950  1.0000 0.1004656107
C   C8        1.0  0.61790  0.33670  0.24050  1.0000 0.1004656107
C   C9        1.0  0.82420  0.98380  0.64290  1.0000 0.5490858723
C   C10       1.0  0.17580  0.01620  0.35710  1.0000 0.5490858723
C   C11       1.0  0.12220  0.04850  0.92010  1.0000 0.5490858723
C   C12       1.0  0.87780  0.95150  0.07990  1.0000 0.5490858723
C   C13       1.0  0.79630  0.97840  0.49420  1.0000 -0.1114983986
C   C14       1.0  0.20370  0.02160  0.50580  1.0000 -0.1114983986
C   C15       1.0  0.43150  0.11920  0.79950  1.0000 0.1004656107
C   C16       1.0  0.56850  0.88080  0.20050  1.0000 0.1004656107
C   C17       1.0  0.28420  0.37760  0.74840  1.0000 0.2077793499
C   C18       1.0  0.71580  0.62240  0.25160  1.0000 0.2077793499
C   C19       1.0  0.47110  0.10350  0.99060  1.0000 -0.1196800898
C   C20       1.0  0.52890  0.89650  0.00940  1.0000 -0.1196800898
C   C21       1.0  0.31310  0.19830  0.77970  1.0000 -0.1710985581
C   C22       1.0  0.68690  0.80170  0.22030  1.0000 -0.1710985581
C   C23       1.0  0.26920  0.55540  0.74180  1.0000 0.1937317421
C   C24       1.0  0.73080  0.44460  0.25820  1.0000 0.1937317421
C   C25       1.0  0.55800  0.68890  0.81470  1.0000 -0.1832202057
C   C26       1.0  0.44200  0.31110  0.18530  1.0000 -0.1832202057
C   C27       1.0  0.66960  0.78520  0.82460  1.0000 0.1004656107
C   C28       1.0  0.33040  0.21480  0.17540  1.0000 0.1004656107
C   C29       1.0  0.99460  0.42550  0.67140  1.0000 0.1190942006
C   C30       1.0  0.00540  0.57450  0.32860  1.0000 0.1190942006
C   C31       1.0  0.79870  0.39480  0.61740  1.0000 0.083326826
C   C32       1.0  0.20130  0.60520  0.38260  1.0000 0.083326826
C   C33       1.0  0.40270  0.29430  0.77620  1.0000 0.1117237826
C   C34       1.0  0.59730  0.70570  0.22380  1.0000 0.1117237826
C   C35       1.0  0.08290  0.53250  0.69520  1.0000 -0.2219733725
C   C36       1.0  0.91710  0.46750  0.30480  1.0000 -0.2219733725
C   C37       1.0  0.09940  0.34730  0.69910  1.0000 -0.2219733725
C   C38       1.0  0.90060  0.65270  0.30090  1.0000 -0.2219733725
C   C39       1.0  0.43290  0.33850  0.51550  1.0000 0.0380840135
C   C40       1.0  0.56710  0.66150  0.48450  1.0000 0.0380840135
C   C41       1.0  0.87780  0.98740  0.42610  1.0000 -0.1196800898
C   C42       1.0  0.12220  0.01260  0.57390  1.0000 -0.1196800898
C   C43       1.0  0.65390  0.47520  0.62090  1.0000 -0.1467369328
C   C44       1.0  0.34610  0.52480  0.37910  1.0000 -0.1467369328
C   C45       1.0  0.75980  0.28460  0.56200  1.0000 -0.1319214981
C   C46       1.0  0.24020  0.71540  0.43800  1.0000 -0.1319214981
C   C47       1.0  0.71740  0.22520  0.81710  1.0000 0.0858489741
C   C48       1.0  0.28260  0.77480  0.18290  1.0000 0.0858489741
C   C49       1.0  0.32380  0.73730  0.71720  1.0000 -0.1832202057
C   C50       1.0  0.67620  0.26270  0.28280  1.0000 -0.1832202057
C   C51       1.0  0.61060  0.30780  0.79720  1.0000 -0.1710985581
C   C52       1.0  0.38940  0.69220  0.20280  1.0000 -0.1710985581
C   C53       1.0  0.44530  0.82950  0.72930  1.0000 0.0858489741
C   C54       1.0  0.55470  0.17050  0.27070  1.0000 0.0858489741
C   C55       1.0  0.47310  0.44840  0.57020  1.0000 -0.1319214981
C   C56       1.0  0.52690  0.55160  0.42980  1.0000 -0.1319214981
C   C57       1.0  0.57740  0.25720  0.51130  1.0000 -0.1114983986
C   C58       1.0  0.42260  0.74280  0.48870  1.0000 -0.1114983986
C   C59       1.0  0.24590  0.31280  0.46190  1.0000 0.2585416307
C   C60       1.0  0.75410  0.68720  0.53810  1.0000 0.2585416307
N   N1        1.0  0.63050  0.12940  0.81560  1.0000 -0.227420939
N   N2        1.0  0.36950  0.87060  0.18440  1.0000 -0.227420939
N   N3        1.0  0.61590  0.85490  0.78270  1.0000 -0.2365310992
N   N4        1.0  0.38410  0.14510  0.21730  1.0000 -0.2365310992
N   N5        1.0  0.37050  0.47920  0.76940  1.0000 -0.3416408132
N   N6        1.0  0.62950  0.52080  0.23060  1.0000 -0.3416408132
N   N7        1.0  0.10060  0.29260  0.41920  1.0000 -0.359146757
N   N8        1.0  0.89940  0.70740  0.58080  1.0000 -0.359146757
O   O1        1.0  0.64240  0.96550  0.63630  1.0000 -0.5514607162
O   O2        1.0  0.35760  0.03450  0.36370  1.0000 -0.5514607162
O   O3        1.0  0.00270  0.96280  0.88180  1.0000 -0.5514607162
O   O4        1.0  0.99730  0.03720  0.11820  1.0000 -0.5514607162
O   O5        1.0  0.94660  0.99530  0.70960  1.0000 -0.5514607162
O   O6        1.0  0.05340  0.00470  0.29040  1.0000 -0.5514607162
O   O7        1.0  0.08720  0.14290  0.91850  1.0000 -0.5415151845
O   O8        1.0  0.91280  0.85710  0.08150  1.0000 -0.5415151845
