# DDEC6 charges by PACMAN v1.1 (https://github.com/mtap-research/PACMAN-charge/)
data_2023[Cd][kgd]2[FSR]2
_chemical_formula_sum              "Cd2 H72 C96 N24"
_cell_length_a       15.2245
_cell_length_b       15.2245
_cell_length_c       13.5184
_cell_angle_alpha    85.3855
_cell_angle_beta     94.6145
_cell_angle_gamma    107.538

_symmetry_space_group_name_H-M    "P 1"
_symmetry_Int_Tables_number       1

loop_
  _symmetry_equiv_pos_as_xyz
  'x, y, z'

loop_
  _atom_site_type_symbol
  _atom_site_label
  _atom_site_symmetry_multiplicity
  _atom_site_fract_x
  _atom_site_fract_y
  _atom_site_fract_z
  _atom_site_occupancy
  _atom_site_charge
Cd  Cd1       1.0  0.26546  0.26546  0.75000  1.0000 0.6483800965
Cd  Cd2       1.0  0.73454  0.73454  0.25000  1.0000 0.6483800965
H   H1        1.0  0.65410  0.87470  0.11710  1.0000 0.1010131011
H   H2        1.0  0.87470  0.65410  0.38290  1.0000 0.1010131011
H   H3        1.0  0.34590  0.12530  0.88290  1.0000 0.1010131011
H   H4        1.0  0.12530  0.34590  0.61710  1.0000 0.1010131011
H   H5        1.0  0.68460  0.01980  0.04270  1.0000 0.128951821
H   H6        1.0  0.01980  0.68460  0.45730  1.0000 0.128951821
H   H7        1.0  0.31540  0.98020  0.95730  1.0000 0.128951821
H   H8        1.0  0.98020  0.31540  0.54270  1.0000 0.128951821
H   H9        1.0  0.95480  0.04460  0.08480  1.0000 0.128951821
H   H10       1.0  0.04460  0.95480  0.41520  1.0000 0.128951821
H   H11       1.0  0.04520  0.95540  0.91520  1.0000 0.128951821
H   H12       1.0  0.95540  0.04520  0.58480  1.0000 0.128951821
H   H13       1.0  0.91620  0.89640  0.15290  1.0000 0.1010131011
H   H14       1.0  0.89640  0.91620  0.34710  1.0000 0.1010131011
H   H15       1.0  0.08380  0.10360  0.84710  1.0000 0.1010131011
H   H16       1.0  0.10360  0.08380  0.65290  1.0000 0.1010131011
H   H17       1.0  0.72840  0.17180  0.05100  1.0000 0.1102440054
H   H18       1.0  0.17180  0.72840  0.44900  1.0000 0.1102440054
H   H19       1.0  0.27160  0.82820  0.94900  1.0000 0.1102440054
H   H20       1.0  0.82820  0.27160  0.55100  1.0000 0.1102440054
H   H21       1.0  0.76000  0.32100  0.98180  1.0000 0.1102440054
H   H22       1.0  0.32100  0.76000  0.51820  1.0000 0.1102440054
H   H23       1.0  0.24000  0.67900  0.01820  1.0000 0.1102440054
H   H24       1.0  0.67900  0.24000  0.48180  1.0000 0.1102440054
H   H25       1.0  0.89560  0.38960  0.90360  1.0000 0.1010131011
H   H26       1.0  0.38960  0.89560  0.59640  1.0000 0.1010131011
H   H27       1.0  0.10440  0.61040  0.09640  1.0000 0.1010131011
H   H28       1.0  0.61040  0.10440  0.40360  1.0000 0.1010131011
H   H29       1.0  0.97040  0.15820  0.96600  1.0000 0.1170955407
H   H30       1.0  0.15820  0.97040  0.53400  1.0000 0.1170955407
H   H31       1.0  0.02960  0.84180  0.03400  1.0000 0.1170955407
H   H32       1.0  0.84180  0.02960  0.46600  1.0000 0.1170955407
H   H33       1.0  0.19120  0.56420  0.72210  1.0000 0.1170955407
H   H34       1.0  0.56420  0.19120  0.77790  1.0000 0.1170955407
H   H35       1.0  0.80880  0.43580  0.27790  1.0000 0.1170955407
H   H36       1.0  0.43580  0.80880  0.22210  1.0000 0.1170955407
H   H37       1.0  0.31480  0.69760  0.70600  1.0000 0.1102440054
H   H38       1.0  0.69760  0.31480  0.79400  1.0000 0.1102440054
H   H39       1.0  0.68520  0.30240  0.29400  1.0000 0.1102440054
H   H40       1.0  0.30240  0.68520  0.20600  1.0000 0.1102440054
H   H41       1.0  0.44310  0.71950  0.81490  1.0000 0.1170955407
H   H42       1.0  0.71950  0.44310  0.68510  1.0000 0.1170955407
H   H43       1.0  0.55690  0.28050  0.18510  1.0000 0.1170955407
H   H44       1.0  0.28050  0.55690  0.31490  1.0000 0.1170955407
H   H45       1.0  0.32530  0.47630  0.95980  1.0000 0.1170955407
H   H46       1.0  0.47630  0.32530  0.54020  1.0000 0.1170955407
H   H47       1.0  0.67470  0.52370  0.04020  1.0000 0.1170955407
H   H48       1.0  0.52370  0.67470  0.45980  1.0000 0.1170955407
H   H49       1.0  0.58050  0.68330  0.89010  1.0000 0.128951821
H   H50       1.0  0.68330  0.58050  0.60990  1.0000 0.128951821
H   H51       1.0  0.41950  0.31670  0.10990  1.0000 0.128951821
H   H52       1.0  0.31670  0.41950  0.39010  1.0000 0.128951821
H   H53       1.0  0.69210  0.72330  0.01620  1.0000 0.1010131011
H   H54       1.0  0.72330  0.69210  0.48380  1.0000 0.1010131011
H   H55       1.0  0.30790  0.27670  0.98380  1.0000 0.1010131011
H   H56       1.0  0.27670  0.30790  0.51620  1.0000 0.1010131011
H   H57       1.0  0.51380  0.61260  0.21650  1.0000 0.08997238
H   H58       1.0  0.61260  0.51380  0.28350  1.0000 0.08997238
H   H59       1.0  0.48620  0.38740  0.78350  1.0000 0.08997238
H   H60       1.0  0.38740  0.48620  0.71650  1.0000 0.08997238
H   H61       1.0  0.39760  0.56480  0.09630  1.0000 0.128951821
H   H62       1.0  0.56480  0.39760  0.40370  1.0000 0.128951821
H   H63       1.0  0.60240  0.43520  0.90370  1.0000 0.128951821
H   H64       1.0  0.43520  0.60240  0.59630  1.0000 0.128951821
H   H65       1.0  0.07770  0.53410  0.87380  1.0000 0.2617103415
H   H66       1.0  0.53410  0.07770  0.62620  1.0000 0.2617103415
H   H67       1.0  0.92230  0.46590  0.12620  1.0000 0.2617103415
H   H68       1.0  0.46590  0.92230  0.37380  1.0000 0.2617103415
H   H69       1.0  0.09420  0.50060  0.97880  1.0000 0.2480835872
H   H70       1.0  0.50060  0.09420  0.52120  1.0000 0.2480835872
H   H71       1.0  0.90580  0.49940  0.02120  1.0000 0.2480835872
H   H72       1.0  0.49940  0.90580  0.47880  1.0000 0.2480835872
C   C1        1.0  0.71538  0.90920  0.11000  1.0000 0.0595321445
C   C2        1.0  0.90920  0.71538  0.39000  1.0000 0.0595321445
C   C3        1.0  0.28462  0.09080  0.89000  1.0000 0.0595321445
C   C4        1.0  0.09080  0.28462  0.61000  1.0000 0.0595321445
C   C5        1.0  0.73316  0.99702  0.06610  1.0000 -0.2093151055
C   C6        1.0  0.99702  0.73316  0.43390  1.0000 -0.2093151055
C   C7        1.0  0.26684  0.00298  0.93390  1.0000 -0.2093151055
C   C8        1.0  0.00298  0.26684  0.56610  1.0000 -0.2093151055
C   C9        1.0  0.82432  0.05186  0.05690  1.0000 0.1170955407
C   C10       1.0  0.05186  0.82432  0.44310  1.0000 0.1170955407
C   C11       1.0  0.17568  0.94814  0.94310  1.0000 0.1170955407
C   C12       1.0  0.94814  0.17568  0.55690  1.0000 0.1170955407
C   C13       1.0  0.89295  0.01145  0.09040  1.0000 -0.2195950081
C   C14       1.0  0.01145  0.89295  0.40960  1.0000 -0.2195950081
C   C15       1.0  0.10705  0.98855  0.90960  1.0000 -0.2195950081
C   C16       1.0  0.98855  0.10705  0.59040  1.0000 -0.2195950081
C   C17       1.0  0.86912  0.92206  0.13180  1.0000 0.0674780881
C   C18       1.0  0.92206  0.86912  0.36820  1.0000 0.0674780881
C   C19       1.0  0.13088  0.07794  0.86820  1.0000 0.0674780881
C   C20       1.0  0.07794  0.13088  0.63180  1.0000 0.0674780881
C   C21       1.0  0.84569  0.14807  0.01420  1.0000 0.0674780881
C   C22       1.0  0.14807  0.84569  0.48580  1.0000 0.0674780881
C   C23       1.0  0.15431  0.85193  0.98580  1.0000 0.0674780881
C   C24       1.0  0.85193  0.15431  0.51420  1.0000 0.0674780881
C   C25       1.0  0.78314  0.19868  0.01960  1.0000 -0.1590003265
C   C26       1.0  0.19868  0.78314  0.48040  1.0000 -0.1590003265
C   C27       1.0  0.21686  0.80132  0.98040  1.0000 -0.1590003265
C   C28       1.0  0.80132  0.21686  0.51960  1.0000 -0.1590003265
C   C29       1.0  0.80229  0.28841  0.97840  1.0000 -0.1296054167
C   C30       1.0  0.28841  0.80229  0.52160  1.0000 -0.1296054167
C   C31       1.0  0.19771  0.71159  0.02160  1.0000 -0.1296054167
C   C32       1.0  0.71159  0.19771  0.47840  1.0000 -0.1296054167
C   C33       1.0  0.88378  0.32990  0.93230  1.0000 -0.1876057851
C   C34       1.0  0.32990  0.88378  0.56770  1.0000 -0.1876057851
C   C35       1.0  0.11622  0.67010  0.06770  1.0000 -0.1876057851
C   C36       1.0  0.67010  0.11622  0.43230  1.0000 -0.1876057851
C   C37       1.0  0.94849  0.28145  0.92900  1.0000 0.0509222611
C   C38       1.0  0.28145  0.94849  0.57100  1.0000 0.0509222611
C   C39       1.0  0.05151  0.71855  0.07100  1.0000 0.0509222611
C   C40       1.0  0.71855  0.05151  0.42900  1.0000 0.0509222611
C   C41       1.0  0.92808  0.19076  0.96930  1.0000 -0.1876057851
C   C42       1.0  0.19076  0.92808  0.53070  1.0000 -0.1876057851
C   C43       1.0  0.07192  0.80924  0.03070  1.0000 -0.1876057851
C   C44       1.0  0.80924  0.07192  0.46930  1.0000 -0.1876057851
C   C45       1.0  0.03892  0.32262  0.88701  1.0000 0.1779164257
C   C46       1.0  0.32262  0.03892  0.61299  1.0000 0.1779164257
C   C47       1.0  0.96108  0.67738  0.11299  1.0000 0.1779164257
C   C48       1.0  0.67738  0.96108  0.38701  1.0000 0.1779164257
C   C49       1.0  0.17171  0.41887  0.84961  1.0000 0.1606330569
C   C50       1.0  0.41887  0.17171  0.65039  1.0000 0.1606330569
C   C51       1.0  0.82829  0.58113  0.15039  1.0000 0.1606330569
C   C52       1.0  0.58113  0.82829  0.34961  1.0000 0.1606330569
C   C53       1.0  0.24801  0.50561  0.84018  1.0000 0.0112292403
C   C54       1.0  0.50561  0.24801  0.65982  1.0000 0.0112292403
C   C55       1.0  0.75199  0.49439  0.15982  1.0000 0.0112292403
C   C56       1.0  0.49439  0.75199  0.34018  1.0000 0.0112292403
C   C57       1.0  0.24325  0.57283  0.76560  1.0000 -0.1876057851
C   C58       1.0  0.57283  0.24325  0.73440  1.0000 -0.1876057851
C   C59       1.0  0.75675  0.42717  0.23440  1.0000 -0.1876057851
C   C60       1.0  0.42717  0.75675  0.26560  1.0000 -0.1876057851
C   C61       1.0  0.31695  0.65299  0.75650  1.0000 -0.1042137785
C   C62       1.0  0.65299  0.31695  0.74350  1.0000 -0.1042137785
C   C63       1.0  0.68305  0.34701  0.24350  1.0000 -0.1042137785
C   C64       1.0  0.34701  0.68305  0.25650  1.0000 -0.1042137785
C   C65       1.0  0.39343  0.66643  0.82260  1.0000 -0.1714530406
C   C66       1.0  0.66643  0.39343  0.67740  1.0000 -0.1714530406
C   C67       1.0  0.60657  0.33357  0.17740  1.0000 -0.1714530406
C   C68       1.0  0.33357  0.60657  0.32260  1.0000 -0.1714530406
C   C69       1.0  0.39705  0.60139  0.90067  1.0000 0.0595321445
C   C70       1.0  0.60139  0.39705  0.59933  1.0000 0.0595321445
C   C71       1.0  0.60295  0.39861  0.09933  1.0000 0.0595321445
C   C72       1.0  0.39861  0.60295  0.40067  1.0000 0.0595321445
C   C73       1.0  0.32365  0.52047  0.90863  1.0000 -0.2093151055
C   C74       1.0  0.52047  0.32365  0.59137  1.0000 -0.2093151055
C   C75       1.0  0.67635  0.47953  0.09137  1.0000 -0.2093151055
C   C76       1.0  0.47953  0.67635  0.40863  1.0000 -0.2093151055
C   C77       1.0  0.47379  0.62177  0.97830  1.0000 0.1010131011
C   C78       1.0  0.62177  0.47379  0.52170  1.0000 0.1010131011
C   C79       1.0  0.52621  0.37823  0.02170  1.0000 0.1010131011
C   C80       1.0  0.37823  0.52621  0.47830  1.0000 0.1010131011
C   C81       1.0  0.56506  0.66866  0.95580  1.0000 -0.2093151055
C   C82       1.0  0.66866  0.56506  0.54420  1.0000 -0.2093151055
C   C83       1.0  0.43494  0.33134  0.04420  1.0000 -0.2093151055
C   C84       1.0  0.33134  0.43494  0.45580  1.0000 -0.2093151055
C   C85       1.0  0.63182  0.69284  0.03240  1.0000 0.0595321445
C   C86       1.0  0.69284  0.63182  0.46760  1.0000 0.0595321445
C   C87       1.0  0.36818  0.30716  0.96760  1.0000 0.0595321445
C   C88       1.0  0.30716  0.36818  0.53240  1.0000 0.0595321445
C   C89       1.0  0.52704  0.62712  0.15010  1.0000 0.0595321445
C   C90       1.0  0.62712  0.52704  0.34990  1.0000 0.0595321445
C   C91       1.0  0.47296  0.37288  0.84990  1.0000 0.0595321445
C   C92       1.0  0.37288  0.47296  0.65010  1.0000 0.0595321445
C   C93       1.0  0.45636  0.59882  0.07820  1.0000 -0.2024155004
C   C94       1.0  0.59882  0.45636  0.42180  1.0000 -0.2024155004
C   C95       1.0  0.54364  0.40118  0.92180  1.0000 -0.2024155004
C   C96       1.0  0.40118  0.54364  0.57820  1.0000 -0.2024155004
N   N1        1.0  0.61429  0.67477  0.12907  1.0000 -0.257483874
N   N2        1.0  0.67477  0.61429  0.37093  1.0000 -0.257483874
N   N3        1.0  0.38571  0.32523  0.87093  1.0000 -0.257483874
N   N4        1.0  0.32523  0.38571  0.62907  1.0000 -0.257483874
N   N5        1.0  0.17203  0.33593  0.82942  1.0000 -0.2522129496
N   N6        1.0  0.33593  0.17203  0.67058  1.0000 -0.2522129496
N   N7        1.0  0.82797  0.66407  0.17058  1.0000 -0.2522129496
N   N8        1.0  0.66407  0.82797  0.32942  1.0000 -0.2522129496
N   N9        1.0  0.08749  0.27405  0.85324  1.0000 -0.271502961
N   N10       1.0  0.27405  0.08749  0.64676  1.0000 -0.271502961
N   N11       1.0  0.91251  0.72595  0.14676  1.0000 -0.271502961
N   N12       1.0  0.72595  0.91251  0.35324  1.0000 -0.271502961
N   N13       1.0  0.08878  0.41374  0.88385  1.0000 0.0595321445
N   N14       1.0  0.41374  0.08878  0.61615  1.0000 0.0595321445
N   N15       1.0  0.91122  0.58626  0.11615  1.0000 0.0595321445
N   N16       1.0  0.58626  0.91122  0.38385  1.0000 0.0595321445
N   N17       1.0  0.06126  0.48524  0.91950  1.0000 -0.5165162129
N   N18       1.0  0.48524  0.06126  0.58050  1.0000 -0.5165162129
N   N19       1.0  0.93874  0.51476  0.08050  1.0000 -0.5165162129
N   N20       1.0  0.51476  0.93874  0.41950  1.0000 -0.5165162129
N   N21       1.0  0.78143  0.87033  0.14326  1.0000 -0.2195950081
N   N22       1.0  0.87033  0.78143  0.35674  1.0000 -0.2195950081
N   N23       1.0  0.21857  0.12967  0.85674  1.0000 -0.2195950081
N   N24       1.0  0.12967  0.21857  0.64326  1.0000 -0.2195950081
