# DDEC6 charges by PACMAN v1.1 (https://github.com/mtap-research/PACMAN-charge/)
data_2023[Cd][rtl]3[FSR]2
_chemical_formula_sum              "Cd2 H28 C40 N8 O16"
_cell_length_a       5.0968
_cell_length_b       18.2442
_cell_length_c       15.0256
_cell_angle_alpha    90
_cell_angle_beta     96.058
_cell_angle_gamma    90

_symmetry_space_group_name_H-M    "P 1"
_symmetry_Int_Tables_number       1

loop_
  _symmetry_equiv_pos_as_xyz
  'x, y, z'

loop_
  _atom_site_type_symbol
  _atom_site_label
  _atom_site_symmetry_multiplicity
  _atom_site_fract_x
  _atom_site_fract_y
  _atom_site_fract_z
  _atom_site_occupancy
  _atom_site_charge
Cd  Cd1       1.0  0.00000  0.50000  0.00000  1.0000 0.9367470097
Cd  Cd2       1.0  0.00000  0.00000  0.50000  1.0000 0.9367470097
H   H1        1.0  0.85750  0.42870  0.20460  1.0000 0.1510733318
H   H2        1.0  0.14250  0.92870  0.29540  1.0000 0.1510733318
H   H3        1.0  0.14250  0.57130  0.79540  1.0000 0.1510733318
H   H4        1.0  0.85750  0.07130  0.70460  1.0000 0.1510733318
H   H5        1.0  0.68970  0.36650  0.14890  1.0000 0.131536613
H   H6        1.0  0.31030  0.86650  0.35110  1.0000 0.131536613
H   H7        1.0  0.31030  0.63350  0.85110  1.0000 0.131536613
H   H8        1.0  0.68970  0.13350  0.64890  1.0000 0.131536613
H   H9        1.0  0.27580  0.27900  0.50660  1.0000 0.1449803513
H   H10       1.0  0.72420  0.77900  0.99340  1.0000 0.1449803513
H   H11       1.0  0.72420  0.72100  0.49340  1.0000 0.1449803513
H   H12       1.0  0.27580  0.22100  0.00660  1.0000 0.1449803513
H   H13       1.0  0.59850  0.12040  0.39440  1.0000 0.1218802136
H   H14       1.0  0.40150  0.62040  0.10560  1.0000 0.1218802136
H   H15       1.0  0.40150  0.87960  0.60560  1.0000 0.1218802136
H   H16       1.0  0.59850  0.37960  0.89440  1.0000 0.1218802136
H   H17       1.0  0.26300  0.15560  0.54940  1.0000 0.1095020182
H   H18       1.0  0.73700  0.65560  0.95060  1.0000 0.1095020182
H   H19       1.0  0.73700  0.84440  0.45060  1.0000 0.1095020182
H   H20       1.0  0.26300  0.34440  0.04940  1.0000 0.1095020182
H   H21       1.0  0.34900  0.38120  0.24490  1.0000 0.104337002
H   H22       1.0  0.65100  0.88120  0.25510  1.0000 0.104337002
H   H23       1.0  0.65100  0.61880  0.75510  1.0000 0.104337002
H   H24       1.0  0.34900  0.11880  0.74490  1.0000 0.104337002
H   H25       1.0  0.52890  0.43980  0.30230  1.0000 0.1218802136
H   H26       1.0  0.47110  0.93980  0.19770  1.0000 0.1218802136
H   H27       1.0  0.47110  0.56020  0.69770  1.0000 0.1218802136
H   H28       1.0  0.52890  0.06020  0.80230  1.0000 0.1218802136
C   C1        1.0  0.67630  0.41179  0.18450  1.0000 -0.3593061615
C   C2        1.0  0.32370  0.91179  0.31550  1.0000 -0.3593061615
C   C3        1.0  0.32370  0.58821  0.81550  1.0000 -0.3593061615
C   C4        1.0  0.67630  0.08821  0.68450  1.0000 -0.3593061615
C   C5        1.0  0.53340  0.47044  0.12617  1.0000 0.6397907686
C   C6        1.0  0.46660  0.97044  0.37383  1.0000 0.6397907686
C   C7        1.0  0.46660  0.52956  0.87383  1.0000 0.6397907686
C   C8        1.0  0.53340  0.02956  0.62617  1.0000 0.6397907686
C   C9        1.0  0.74010  0.22372  0.38785  1.0000 -0.0941585202
C   C10       1.0  0.25990  0.72372  0.11215  1.0000 -0.0941585202
C   C11       1.0  0.25990  0.77628  0.61215  1.0000 -0.0941585202
C   C12       1.0  0.74010  0.27628  0.88785  1.0000 -0.0941585202
C   C13       1.0  0.13880  0.24734  0.48223  1.0000 -0.1369669486
C   C14       1.0  0.86120  0.74734  0.01777  1.0000 -0.1369669486
C   C15       1.0  0.86120  0.75266  0.51777  1.0000 -0.1369669486
C   C16       1.0  0.13880  0.25266  0.98223  1.0000 -0.1369669486
C   C17       1.0  0.73800  0.15223  0.41648  1.0000 0.0757079076
C   C18       1.0  0.26200  0.65223  0.08352  1.0000 0.0757079076
C   C19       1.0  0.26200  0.84777  0.58352  1.0000 0.0757079076
C   C20       1.0  0.73800  0.34777  0.91648  1.0000 0.0757079076
C   C21       1.0  0.94090  0.27079  0.42015  1.0000 -0.0117569083
C   C22       1.0  0.05910  0.77079  0.07985  1.0000 -0.0117569083
C   C23       1.0  0.05910  0.72921  0.57985  1.0000 -0.0117569083
C   C24       1.0  0.94090  0.22921  0.92015  1.0000 -0.0117569083
C   C25       1.0  0.12660  0.17395  0.50735  1.0000 0.0919137847
C   C26       1.0  0.87340  0.67395  0.99265  1.0000 0.0919137847
C   C27       1.0  0.87340  0.82605  0.49265  1.0000 0.0919137847
C   C28       1.0  0.12660  0.32605  0.00735  1.0000 0.0919137847
C   C29       1.0  0.55210  0.26553  0.32358  1.0000 0.442577536
C   C30       1.0  0.44790  0.76553  0.17642  1.0000 0.442577536
C   C31       1.0  0.44790  0.73447  0.67642  1.0000 0.442577536
C   C32       1.0  0.55210  0.23447  0.82358  1.0000 0.442577536
C   C33       1.0  0.53350  0.39503  0.26520  1.0000 -0.0533226488
C   C34       1.0  0.46650  0.89503  0.23480  1.0000 -0.0533226488
C   C35       1.0  0.46650  0.60497  0.73480  1.0000 -0.0533226488
C   C36       1.0  0.53350  0.10497  0.76520  1.0000 -0.0533226488
C   C37       1.0  0.89010  0.34417  0.37694  1.0000 0.4475550603
C   C38       1.0  0.10990  0.84417  0.12306  1.0000 0.4475550603
C   C39       1.0  0.10990  0.65583  0.62306  1.0000 0.4475550603
C   C40       1.0  0.89010  0.15583  0.87694  1.0000 0.4475550603
N   N1        1.0  0.93390  0.12744  0.47579  1.0000 -0.2237969238
N   N2        1.0  0.06610  0.62744  0.02421  1.0000 -0.2237969238
N   N3        1.0  0.06610  0.87256  0.52421  1.0000 -0.2237969238
N   N4        1.0  0.93390  0.37256  0.97579  1.0000 -0.2237969238
N   N5        1.0  0.65760  0.33586  0.32006  1.0000 -0.1811804261
N   N6        1.0  0.34240  0.83586  0.17994  1.0000 -0.1811804261
N   N7        1.0  0.34240  0.66414  0.67994  1.0000 -0.1811804261
N   N8        1.0  0.65760  0.16414  0.82006  1.0000 -0.1811804261
O   O1        1.0  0.66500  0.51695  0.08784  1.0000 -0.5838110644
O   O2        1.0  0.33500  0.01695  0.41216  1.0000 -0.5838110644
O   O3        1.0  0.33500  0.48305  0.91216  1.0000 -0.5838110644
O   O4        1.0  0.66500  0.98305  0.58784  1.0000 -0.5838110644
O   O5        1.0  0.28410  0.46978  0.12155  1.0000 -0.5672982979
O   O6        1.0  0.71590  0.96978  0.37845  1.0000 -0.5672982979
O   O7        1.0  0.71590  0.53022  0.87845  1.0000 -0.5672982979
O   O8        1.0  0.28410  0.03022  0.62155  1.0000 -0.5672982979
O   O9        1.0  0.34860  0.24527  0.28260  1.0000 -0.4269704494
O   O10       1.0  0.65140  0.74527  0.21740  1.0000 -0.4269704494
O   O11       1.0  0.65140  0.75473  0.71740  1.0000 -0.4269704494
O   O12       1.0  0.34860  0.25473  0.78260  1.0000 -0.4269704494
O   O13       1.0  0.01750  0.39996  0.38789  1.0000 -0.4125399563
O   O14       1.0  0.98250  0.89996  0.11211  1.0000 -0.4125399563
O   O15       1.0  0.98250  0.60004  0.61211  1.0000 -0.4125399563
O   O16       1.0  0.01750  0.10004  0.88789  1.0000 -0.4125399563
