# DDEC6 charges by PACMAN v1.1 (https://github.com/mtap-research/PACMAN-charge/)
data_2023[Tb][nan]3[FSR]2
_chemical_formula_sum              "Tb2 H18 C32 O20"
_cell_length_a       9.5058
_cell_length_b       10.4879
_cell_length_c       10.6391
_cell_angle_alpha    82.286
_cell_angle_beta     114.934
_cell_angle_gamma    114.859

_symmetry_space_group_name_H-M    "P 1"
_symmetry_Int_Tables_number       1

loop_
  _symmetry_equiv_pos_as_xyz
  'x, y, z'

loop_
  _atom_site_type_symbol
  _atom_site_label
  _atom_site_symmetry_multiplicity
  _atom_site_fract_x
  _atom_site_fract_y
  _atom_site_fract_z
  _atom_site_occupancy
  _atom_site_charge
Tb  Tb1       1.0  0.72085  0.96408  0.02731  1.0000 2.1328612359
Tb  Tb2       1.0  0.27915  0.03592  0.97269  1.0000 2.1328612359
H   H1        1.0  0.70687  0.01890  0.74358  1.0000 0.3824636506
H   H2        1.0  0.29313  0.98110  0.25642  1.0000 0.3824636506
H   H3        1.0  0.86978  0.02064  0.82192  1.0000 0.3824636506
H   H4        1.0  0.13022  0.97936  0.17808  1.0000 0.3824636506
H   H5        1.0  0.64273  0.65123  0.18512  1.0000 0.3704011234
H   H6        1.0  0.35727  0.34877  0.81488  1.0000 0.3704011234
H   H7        1.0  0.06316  0.87057  0.52461  1.0000 0.1399948391
H   H8        1.0  0.93684  0.12943  0.47539  1.0000 0.1399948391
H   H9        1.0  0.23411  0.52564  0.48029  1.0000 0.1318117621
H   H10       1.0  0.76589  0.47436  0.51971  1.0000 0.1318117621
H   H11       1.0  0.38520  0.67482  0.68188  1.0000 0.1318117621
H   H12       1.0  0.61480  0.32518  0.31812  1.0000 0.1318117621
H   H13       1.0  0.32902  0.46696  0.04603  1.0000 0.1399948391
H   H14       1.0  0.67098  0.53304  0.95397  1.0000 0.1399948391
H   H15       1.0  0.97844  0.29136  0.21055  1.0000 0.1471813114
H   H16       1.0  0.02156  0.70864  0.78945  1.0000 0.1471813114
H   H17       1.0  0.18608  0.71602  0.18062  1.0000 0.1471813114
H   H18       1.0  0.81392  0.28398  0.81938  1.0000 0.1471813114
C   C1        1.0  0.33650  0.88240  0.74920  1.0000 0.6512684616
C   C2        1.0  0.66350  0.11760  0.25080  1.0000 0.6512684616
C   C3        1.0  0.23990  0.79050  0.62060  1.0000 -0.0590699242
C   C4        1.0  0.76010  0.20950  0.37940  1.0000 -0.0590699242
C   C5        1.0  0.09940  0.80230  0.51460  1.0000 -0.0913746266
C   C6        1.0  0.90060  0.19770  0.48540  1.0000 -0.0913746266
C   C7        1.0  0.00910  0.71630  0.39290  1.0000 -0.1496869756
C   C8        1.0  0.99090  0.28370  0.60710  1.0000 -0.1496869756
C   C9        1.0  0.06170  0.61270  0.38210  1.0000 0.2446640821
C   C10       1.0  0.93830  0.38730  0.61790  1.0000 0.2446640821
C   C11       1.0  0.20060  0.59640  0.48870  1.0000 -0.2277399359
C   C12       1.0  0.79940  0.40360  0.51130  1.0000 -0.2277399359
C   C13       1.0  0.29020  0.68520  0.60850  1.0000 -0.0590699242
C   C14       1.0  0.70980  0.31480  0.39150  1.0000 -0.0590699242
C   C15       1.0  0.86430  0.74020  0.27960  1.0000 0.6163466962
C   C16       1.0  0.13570  0.25980  0.72040  1.0000 0.6163466962
C   C17       1.0  0.39140  0.74130  0.07210  1.0000 0.6512684616
C   C18       1.0  0.60860  0.25870  0.92790  1.0000 0.6512684616
C   C19       1.0  0.12320  0.21420  0.08690  1.0000 0.655403951
C   C20       1.0  0.87680  0.78580  0.91310  1.0000 0.655403951
C   C21       1.0  0.27990  0.60970  0.11350  1.0000 -0.012663149
C   C22       1.0  0.72010  0.39030  0.88650  1.0000 -0.012663149
C   C23       1.0  0.26330  0.47690  0.08800  1.0000 -0.1175775883
C   C24       1.0  0.73670  0.52310  0.91200  1.0000 -0.1175775883
C   C25       1.0  0.15070  0.35810  0.12360  1.0000 -0.012663149
C   C26       1.0  0.84930  0.64190  0.87640  1.0000 -0.012663149
C   C27       1.0  0.05450  0.37200  0.18490  1.0000 -0.209480053
C   C28       1.0  0.94550  0.62800  0.81510  1.0000 -0.209480053
C   C29       1.0  0.07150  0.50690  0.20840  1.0000 0.2595970424
C   C30       1.0  0.92850  0.49310  0.79160  1.0000 0.2595970424
C   C31       1.0  0.18030  0.62540  0.16920  1.0000 -0.209480053
C   C32       1.0  0.81970  0.37460  0.83080  1.0000 -0.209480053
O   O1        1.0  0.79770  0.05380  0.82420  1.0000 -0.7615611163
O   O2        1.0  0.20230  0.94620  0.17580  1.0000 -0.7615611163
O   O3        1.0  0.48190  0.88530  0.82330  1.0000 -0.6869287698
O   O4        1.0  0.51810  0.11470  0.17670  1.0000 -0.6869287698
O   O5        1.0  0.26940  0.95090  0.77640  1.0000 -0.6692851393
O   O6        1.0  0.73060  0.04910  0.22360  1.0000 -0.6692851393
O   O7        1.0  0.88020  0.86050  0.24290  1.0000 -0.5785958675
O   O8        1.0  0.11980  0.13950  0.75710  1.0000 -0.5785958675
O   O9        1.0  0.72450  0.62780  0.22850  1.0000 -0.4384919016
O   O10       1.0  0.27550  0.37220  0.77150  1.0000 -0.4384919016
O   O11       1.0  0.96920  0.52260  0.26360  1.0000 -0.2277399359
O   O12       1.0  0.03080  0.47740  0.73640  1.0000 -0.2277399359
O   O13       1.0  0.34890  0.84240  0.04010  1.0000 -0.6756040661
O   O14       1.0  0.65110  0.15760  0.95990  1.0000 -0.6756040661
O   O15       1.0  0.52650  0.74550  0.07200  1.0000 -0.6499261765
O   O16       1.0  0.47350  0.25450  0.92800  1.0000 -0.6499261765
O   O17       1.0  0.21560  0.20430  0.03620  1.0000 -0.6499261765
O   O18       1.0  0.78440  0.79570  0.96380  1.0000 -0.6499261765
O   O19       1.0  0.00830  0.10930  0.11170  1.0000 -0.697849652
O   O20       1.0  0.99170  0.89070  0.88830  1.0000 -0.697849652
