# DDEC6 charges by PACMAN v1.1 (https://github.com/mtap-research/PACMAN-charge/)
data_2023[Fe][xmz]3[FSR]3
_chemical_formula_sum              "Fe6 H60 C108 N12 O26"
_cell_length_a       18.6173
_cell_length_b       18.6173
_cell_length_c       18.005
_cell_angle_alpha    65.738
_cell_angle_beta     114.262
_cell_angle_gamma    112.727

_symmetry_space_group_name_H-M    "P 1"
_symmetry_Int_Tables_number       1

loop_
  _symmetry_equiv_pos_as_xyz
  'x, y, z'

loop_
  _atom_site_type_symbol
  _atom_site_label
  _atom_site_symmetry_multiplicity
  _atom_site_fract_x
  _atom_site_fract_y
  _atom_site_fract_z
  _atom_site_occupancy
  _atom_site_charge
Fe  Fe1       1.0  0.34075  0.34075  0.25000  1.0000 1.1518427077
Fe  Fe2       1.0  0.65925  0.65925  0.75000  1.0000 1.1518427077
Fe  Fe3       1.0  0.15091  0.24883  0.14942  1.0000 1.0944730583
Fe  Fe4       1.0  0.24883  0.15091  0.35058  1.0000 1.0975018882
Fe  Fe5       1.0  0.84909  0.75117  0.85058  1.0000 1.0975018882
Fe  Fe6       1.0  0.75117  0.84909  0.64942  1.0000 1.0975018882
H   H1        1.0  0.96915  0.64029  0.97994  1.0000 0.1120407674
H   H2        1.0  0.64029  0.96915  0.52006  1.0000 0.1120407674
H   H3        1.0  0.03085  0.35971  0.02006  1.0000 0.1120407674
H   H4        1.0  0.35971  0.03085  0.47994  1.0000 0.1120407674
H   H5        1.0  0.97225  0.85131  0.97798  1.0000 0.1120407674
H   H6        1.0  0.85131  0.97225  0.52202  1.0000 0.1120407674
H   H7        1.0  0.02775  0.14869  0.02202  1.0000 0.1120407674
H   H8        1.0  0.14869  0.02775  0.47798  1.0000 0.1120407674
H   H9        1.0  0.52133  0.55749  0.83778  1.0000 0.1120407674
H   H10       1.0  0.55749  0.52133  0.66222  1.0000 0.1120407674
H   H11       1.0  0.47867  0.44251  0.16222  1.0000 0.1120407674
H   H12       1.0  0.44251  0.47867  0.33778  1.0000 0.1120407674
H   H13       1.0  0.11990  0.07184  0.04676  1.0000 0.1230954445
H   H14       1.0  0.07184  0.11990  0.45324  1.0000 0.1230954445
H   H15       1.0  0.88010  0.92816  0.95324  1.0000 0.1230954445
H   H16       1.0  0.92816  0.88010  0.54676  1.0000 0.1230954445
H   H17       1.0  0.27329  0.56765  0.19587  1.0000 0.1275558974
H   H18       1.0  0.56765  0.27329  0.30413  1.0000 0.1275558974
H   H19       1.0  0.72671  0.43235  0.80413  1.0000 0.1275558974
H   H20       1.0  0.43235  0.72671  0.69587  1.0000 0.1275558974
H   H21       1.0  0.07543  0.96517  0.99339  1.0000 0.1230954445
H   H22       1.0  0.96517  0.07543  0.50661  1.0000 0.1230954445
H   H23       1.0  0.92457  0.03483  0.00661  1.0000 0.1230954445
H   H24       1.0  0.03483  0.92457  0.49339  1.0000 0.1230954445
H   H25       1.0  0.05184  0.42474  0.12018  1.0000 0.1275558974
H   H26       1.0  0.42474  0.05184  0.37981  1.0000 0.1275558974
H   H27       1.0  0.94816  0.57526  0.87981  1.0000 0.1275558974
H   H28       1.0  0.57526  0.94816  0.62018  1.0000 0.1275558974
H   H29       1.0  0.99414  0.52532  0.08561  1.0000 0.1230954445
H   H30       1.0  0.52532  0.99414  0.41439  1.0000 0.1230954445
H   H31       1.0  0.00586  0.47468  0.91439  1.0000 0.1230954445
H   H32       1.0  0.47468  0.00586  0.58561  1.0000 0.1230954445
H   H33       1.0  0.14405  0.81641  0.22750  1.0000 0.1230954445
H   H34       1.0  0.81641  0.14405  0.27250  1.0000 0.1230954445
H   H35       1.0  0.85595  0.18359  0.77250  1.0000 0.1230954445
H   H36       1.0  0.18359  0.85595  0.72750  1.0000 0.1230954445
H   H37       1.0  0.18483  0.92171  0.28383  1.0000 0.1275558974
H   H38       1.0  0.92171  0.18483  0.21617  1.0000 0.1275558974
H   H39       1.0  0.81517  0.07829  0.71617  1.0000 0.1275558974
H   H40       1.0  0.07829  0.81517  0.78383  1.0000 0.1275558974
H   H41       1.0  0.21464  0.67398  0.15260  1.0000 0.1230954445
H   H42       1.0  0.67398  0.21464  0.34740  1.0000 0.1230954445
H   H43       1.0  0.78536  0.32602  0.84740  1.0000 0.1230954445
H   H44       1.0  0.32602  0.78536  0.65260  1.0000 0.1230954445
H   H45       1.0  0.26114  0.28078  0.94553  1.0000 0.138996506
H   H46       1.0  0.28078  0.26114  0.55447  1.0000 0.138996506
H   H47       1.0  0.73886  0.71922  0.05447  1.0000 0.138996506
H   H48       1.0  0.71922  0.73886  0.44553  1.0000 0.138996506
H   H49       1.0  0.32566  0.32602  0.84622  1.0000 0.1275558974
H   H50       1.0  0.32602  0.32566  0.65378  1.0000 0.1275558974
H   H51       1.0  0.67434  0.67398  0.15378  1.0000 0.1275558974
H   H52       1.0  0.67398  0.67434  0.34622  1.0000 0.1275558974
H   H53       1.0  0.37905  0.48759  0.00575  1.0000 0.1230954445
H   H54       1.0  0.48759  0.37905  0.49425  1.0000 0.1230954445
H   H55       1.0  0.62095  0.51241  0.99425  1.0000 0.1230954445
H   H56       1.0  0.51241  0.62095  0.50575  1.0000 0.1230954445
H   H57       1.0  0.43576  0.53818  0.90011  1.0000 0.1230954445
H   H58       1.0  0.53818  0.43576  0.59989  1.0000 0.1230954445
H   H59       1.0  0.56424  0.46182  0.09989  1.0000 0.1230954445
H   H60       1.0  0.46182  0.56424  0.40011  1.0000 0.1230954445
C   C1        1.0  0.20520  0.41900  0.17450  1.0000 0.5958975497
C   C2        1.0  0.41900  0.20520  0.32550  1.0000 0.5958975497
C   C3        1.0  0.79480  0.58100  0.82550  1.0000 0.5958975497
C   C4        1.0  0.58100  0.79480  0.67450  1.0000 0.5958975497
C   C5        1.0  0.28420  0.34340  0.06530  1.0000 0.5902108493
C   C6        1.0  0.34340  0.28420  0.43470  1.0000 0.5902108493
C   C7        1.0  0.71580  0.65660  0.93470  1.0000 0.5902108493
C   C8        1.0  0.65660  0.71580  0.56530  1.0000 0.5902108493
C   C9        1.0  0.16740  0.07480  0.20680  1.0000 0.5902108493
C   C10       1.0  0.07480  0.16740  0.29320  1.0000 0.5902108493
C   C11       1.0  0.83260  0.92520  0.79320  1.0000 0.5902108493
C   C12       1.0  0.92520  0.83260  0.70680  1.0000 0.5902108493
C   C13       1.0  0.99260  0.68440  0.00170  1.0000 -0.0363309021
C   C14       1.0  0.68440  0.99260  0.49830  1.0000 -0.0363309021
C   C15       1.0  0.00740  0.31560  0.99830  1.0000 -0.0363309021
C   C16       1.0  0.31560  0.00740  0.50170  1.0000 -0.0363309021
C   C17       1.0  0.99490  0.80730  0.00040  1.0000 -0.0112237471
C   C18       1.0  0.80730  0.99490  0.49960  1.0000 -0.0112237471
C   C19       1.0  0.00510  0.19270  0.99960  1.0000 -0.0112237471
C   C20       1.0  0.19270  0.00510  0.50040  1.0000 -0.0112237471
C   C21       1.0  0.06240  0.68380  0.07160  1.0000 0.1731229666
C   C22       1.0  0.68380  0.06240  0.42840  1.0000 0.1731229666
C   C23       1.0  0.93760  0.31620  0.92840  1.0000 0.1731229666
C   C24       1.0  0.31620  0.93760  0.57160  1.0000 0.1731229666
C   C25       1.0  0.16860  0.48600  0.15790  1.0000 -0.0194838755
C   C26       1.0  0.48600  0.16860  0.34210  1.0000 -0.0194838755
C   C27       1.0  0.83140  0.51400  0.84210  1.0000 -0.0194838755
C   C28       1.0  0.51400  0.83140  0.65790  1.0000 -0.0194838755
C   C29       1.0  0.50700  0.52740  0.80110  1.0000 -0.0112237471
C   C30       1.0  0.52740  0.50700  0.69890  1.0000 -0.0112237471
C   C31       1.0  0.49300  0.47260  0.19890  1.0000 -0.0112237471
C   C32       1.0  0.47260  0.49300  0.30110  1.0000 -0.0112237471
C   C33       1.0  0.44100  0.46040  0.80310  1.0000 0.1504763588
C   C34       1.0  0.46040  0.44100  0.69690  1.0000 0.1504763588
C   C35       1.0  0.55900  0.53960  0.19690  1.0000 0.1504763588
C   C36       1.0  0.53960  0.55900  0.30310  1.0000 0.1504763588
C   C37       1.0  0.15050  0.00790  0.17030  1.0000 -0.0194838755
C   C38       1.0  0.00790  0.15050  0.32970  1.0000 -0.0194838755
C   C39       1.0  0.84950  0.99210  0.82970  1.0000 -0.0194838755
C   C40       1.0  0.99210  0.84950  0.67030  1.0000 -0.0194838755
C   C41       1.0  0.10040  0.87660  0.10570  1.0000 0.0595622994
C   C42       1.0  0.87660  0.10040  0.39430  1.0000 0.0595622994
C   C43       1.0  0.89960  0.12340  0.89430  1.0000 0.0595622994
C   C44       1.0  0.12340  0.89960  0.60570  1.0000 0.0595622994
C   C45       1.0  0.06380  0.80840  0.06750  1.0000 0.1504763588
C   C46       1.0  0.80840  0.06380  0.43250  1.0000 0.1504763588
C   C47       1.0  0.93620  0.19160  0.93250  1.0000 0.1504763588
C   C48       1.0  0.19160  0.93620  0.56750  1.0000 0.1504763588
C   C49       1.0  0.09970  0.61470  0.10860  1.0000 0.0512075768
C   C50       1.0  0.61470  0.09970  0.39140  1.0000 0.0512075768
C   C51       1.0  0.90030  0.38530  0.89140  1.0000 0.0512075768
C   C52       1.0  0.38530  0.90030  0.60860  1.0000 0.0512075768
C   C53       1.0  0.12190  0.01970  0.08410  1.0000 -0.1012651964
C   C54       1.0  0.01970  0.12190  0.41590  1.0000 -0.1012651964
C   C55       1.0  0.87810  0.98030  0.91590  1.0000 -0.1012651964
C   C56       1.0  0.98030  0.87810  0.58410  1.0000 -0.1012651964
C   C57       1.0  0.21730  0.55990  0.17060  1.0000 -0.1012651964
C   C58       1.0  0.55990  0.21730  0.32940  1.0000 -0.1012651964
C   C59       1.0  0.78270  0.44010  0.82940  1.0000 -0.1012651964
C   C60       1.0  0.44010  0.78270  0.67060  1.0000 -0.1012651964
C   C61       1.0  0.09620  0.95580  0.05220  1.0000 -0.1486958222
C   C62       1.0  0.95580  0.09620  0.44780  1.0000 -0.1486958222
C   C63       1.0  0.90380  0.04420  0.94780  1.0000 -0.1486958222
C   C64       1.0  0.04420  0.90380  0.55220  1.0000 -0.1486958222
C   C65       1.0  0.08540  0.47540  0.12640  1.0000 -0.1012651964
C   C66       1.0  0.47540  0.08540  0.37360  1.0000 -0.1012651964
C   C67       1.0  0.91460  0.52460  0.87360  1.0000 -0.1012651964
C   C68       1.0  0.52460  0.91460  0.62640  1.0000 -0.1012651964
C   C69       1.0  0.05070  0.53570  0.10410  1.0000 -0.1486958222
C   C70       1.0  0.53570  0.05070  0.39590  1.0000 -0.1486958222
C   C71       1.0  0.94930  0.46430  0.89590  1.0000 -0.1486958222
C   C72       1.0  0.46430  0.94930  0.60410  1.0000 -0.1486958222
C   C73       1.0  0.31970  0.37470  0.99280  1.0000 -0.0194838755
C   C74       1.0  0.37470  0.31970  0.50720  1.0000 -0.0194838755
C   C75       1.0  0.68030  0.62530  0.00720  1.0000 -0.0194838755
C   C76       1.0  0.62530  0.68030  0.49280  1.0000 -0.0194838755
C   C77       1.0  0.39520  0.43220  0.86440  1.0000 0.0512075768
C   C78       1.0  0.43220  0.39520  0.63560  1.0000 0.0512075768
C   C79       1.0  0.60480  0.56780  0.13560  1.0000 0.0512075768
C   C80       1.0  0.56780  0.60480  0.36440  1.0000 0.0512075768
C   C81       1.0  0.13620  0.86720  0.19100  1.0000 -0.1185758891
C   C82       1.0  0.86720  0.13620  0.30900  1.0000 -0.1185758891
C   C83       1.0  0.86380  0.13280  0.80900  1.0000 -0.1185758891
C   C84       1.0  0.13280  0.86380  0.69100  1.0000 -0.1185758891
C   C85       1.0  0.16130  0.93030  0.22530  1.0000 -0.1012651964
C   C86       1.0  0.93030  0.16130  0.27470  1.0000 -0.1012651964
C   C87       1.0  0.83870  0.06970  0.77470  1.0000 -0.1012651964
C   C88       1.0  0.06970  0.83870  0.72530  1.0000 -0.1012651964
C   C89       1.0  0.18130  0.62390  0.14460  1.0000 -0.1185758891
C   C90       1.0  0.62390  0.18130  0.35540  1.0000 -0.1185758891
C   C91       1.0  0.81870  0.37610  0.85540  1.0000 -0.1185758891
C   C92       1.0  0.37610  0.81870  0.64460  1.0000 -0.1185758891
C   C93       1.0  0.30050  0.33050  0.94020  1.0000 -0.1012651964
C   C94       1.0  0.33050  0.30050  0.55980  1.0000 -0.1012651964
C   C95       1.0  0.69950  0.66950  0.05980  1.0000 -0.1012651964
C   C96       1.0  0.66950  0.69950  0.44020  1.0000 -0.1012651964
C   C97       1.0  0.33880  0.35900  0.87960  1.0000 -0.1185758891
C   C98       1.0  0.35900  0.33880  0.62040  1.0000 -0.1185758891
C   C99       1.0  0.66120  0.64100  0.12040  1.0000 -0.1185758891
C   C100      1.0  0.64100  0.66120  0.37960  1.0000 -0.1185758891
C   C101      1.0  0.36990  0.45450  0.97400  1.0000 -0.1012651964
C   C102      1.0  0.45450  0.36990  0.52600  1.0000 -0.1012651964
C   C103      1.0  0.63010  0.54550  0.02600  1.0000 -0.1012651964
C   C104      1.0  0.54550  0.63010  0.47400  1.0000 -0.1012651964
C   C105      1.0  0.40500  0.48420  0.91260  1.0000 -0.1486958222
C   C106      1.0  0.48420  0.40500  0.58740  1.0000 -0.1486958222
C   C107      1.0  0.59500  0.51580  0.08740  1.0000 -0.1486958222
C   C108      1.0  0.51580  0.59500  0.41260  1.0000 -0.1486958222
N   N1        1.0  0.95750  0.74770  0.96420  1.0000 -0.1889987049
N   N2        1.0  0.74770  0.95750  0.53580  1.0000 -0.1889987049
N   N3        1.0  0.04250  0.25230  0.03580  1.0000 -0.1889987049
N   N4        1.0  0.25230  0.04250  0.46420  1.0000 -0.1889987049
N   N5        1.0  0.55100  0.55100  0.75000  1.0000 -0.1606105623
N   N6        1.0  0.44900  0.44900  0.25000  1.0000 -0.1606105623
N   N7        1.0  0.09830  0.74490  0.10660  1.0000 -0.3085101303
N   N8        1.0  0.74490  0.09830  0.39340  1.0000 -0.3085101303
N   N9        1.0  0.90170  0.25510  0.89340  1.0000 -0.3085101303
N   N10       1.0  0.25510  0.90170  0.60660  1.0000 -0.3085101303
N   N11       1.0  0.41650  0.41650  0.75000  1.0000 -0.2933209297
N   N12       1.0  0.58350  0.58350  0.25000  1.0000 -0.2933209297
O   O1        1.0  0.24960  0.24960  0.25000  1.0000 -0.8966023383
O   O2        1.0  0.75040  0.75040  0.75000  1.0000 -0.8966023383
O   O3        1.0  0.27608  0.41998  0.22395  1.0000 -0.5319019613
O   O4        1.0  0.41998  0.27608  0.27605  1.0000 -0.5319019613
O   O5        1.0  0.72392  0.58002  0.77605  1.0000 -0.5319019613
O   O6        1.0  0.58002  0.72392  0.72395  1.0000 -0.5319019613
O   O7        1.0  0.21127  0.06813  0.28267  1.0000 -0.5400010404
O   O8        1.0  0.06813  0.21127  0.21733  1.0000 -0.5400010404
O   O9        1.0  0.78873  0.93187  0.71733  1.0000 -0.5400010404
O   O10       1.0  0.93187  0.78873  0.78267  1.0000 -0.5400010404
O   O11       1.0  0.16087  0.36773  0.13547  1.0000 -0.5478801784
O   O12       1.0  0.36773  0.16087  0.36453  1.0000 -0.5478801784
O   O13       1.0  0.83913  0.63227  0.86453  1.0000 -0.5478801784
O   O14       1.0  0.63227  0.83913  0.63547  1.0000 -0.5478801784
O   O15       1.0  0.13841  0.13379  0.15531  1.0000 -0.5478801784
O   O16       1.0  0.13379  0.13841  0.34469  1.0000 -0.5478801784
O   O17       1.0  0.86159  0.86621  0.84469  1.0000 -0.5478801784
O   O18       1.0  0.86621  0.86159  0.65531  1.0000 -0.5478801784
O   O19       1.0  0.21860  0.29040  0.06230  1.0000 -0.5170933065
O   O20       1.0  0.29040  0.21860  0.43770  1.0000 -0.5170933065
O   O21       1.0  0.78140  0.70960  0.93770  1.0000 -0.5170933065
O   O22       1.0  0.70960  0.78140  0.56230  1.0000 -0.5170933065
O   O23       1.0  0.32831  0.37497  0.12507  1.0000 -0.5478801784
O   O24       1.0  0.37497  0.32831  0.37493  1.0000 -0.5478801784
O   O25       1.0  0.67169  0.62503  0.87493  1.0000 -0.5478801784
O   O26       1.0  0.62503  0.67169  0.62507  1.0000 -0.5478801784
