# DDEC6 charges by PACMAN v1.1 (https://github.com/mtap-research/PACMAN-charge/)
data_2023[Mn][nan]2[FSR]1
_chemical_formula_sum              "Mn8 H108 C140 S16 N12 O36"
_cell_length_a       14.9591
_cell_length_b       17.085
_cell_length_c       20.2066
_cell_angle_alpha    90
_cell_angle_beta     121.059
_cell_angle_gamma    90

_symmetry_space_group_name_H-M    "P 1"
_symmetry_Int_Tables_number       1

loop_
  _symmetry_equiv_pos_as_xyz
  'x, y, z'

loop_
  _atom_site_type_symbol
  _atom_site_label
  _atom_site_symmetry_multiplicity
  _atom_site_fract_x
  _atom_site_fract_y
  _atom_site_fract_z
  _atom_site_occupancy
  _atom_site_charge
Mn  Mn1       1.0  0.06052  0.44063  0.35434  1.0000 0.8740359021
Mn  Mn2       1.0  0.93948  0.94063  0.14566  1.0000 0.8740359021
Mn  Mn3       1.0  0.93948  0.55937  0.64566  1.0000 0.8740359021
Mn  Mn4       1.0  0.06052  0.05937  0.85434  1.0000 0.8740359021
Mn  Mn5       1.0  0.32028  0.53354  0.44750  1.0000 1.0642228199
Mn  Mn6       1.0  0.67972  0.03354  0.05250  1.0000 1.0642228199
Mn  Mn7       1.0  0.67972  0.46646  0.55250  1.0000 1.0642228199
Mn  Mn8       1.0  0.32028  0.96646  0.94750  1.0000 1.0642228199
H   H1        1.0  0.48648  0.64969  0.48878  1.0000 0.0907712428
H   H2        1.0  0.51352  0.14969  0.01122  1.0000 0.0907712428
H   H3        1.0  0.51352  0.35031  0.51122  1.0000 0.0907712428
H   H4        1.0  0.48648  0.85031  0.98878  1.0000 0.0907712428
H   H5        1.0  0.58817  0.77891  0.62352  1.0000 0.1314401596
H   H6        1.0  0.41183  0.27891  0.87648  1.0000 0.1314401596
H   H7        1.0  0.41183  0.22109  0.37648  1.0000 0.1314401596
H   H8        1.0  0.58817  0.72109  0.12352  1.0000 0.1314401596
H   H9        1.0  0.61447  0.72679  0.56991  1.0000 0.138221897
H   H10       1.0  0.38553  0.22679  0.93009  1.0000 0.138221897
H   H11       1.0  0.38553  0.27321  0.43009  1.0000 0.138221897
H   H12       1.0  0.61447  0.77321  0.06991  1.0000 0.138221897
H   H13       1.0  0.58787  0.81776  0.55134  1.0000 0.138221897
H   H14       1.0  0.41213  0.31776  0.94866  1.0000 0.138221897
H   H15       1.0  0.41213  0.18224  0.44866  1.0000 0.138221897
H   H16       1.0  0.58787  0.68224  0.05134  1.0000 0.138221897
H   H17       1.0  0.39792  0.80955  0.57331  1.0000 0.1314401596
H   H18       1.0  0.60208  0.30955  0.92669  1.0000 0.1314401596
H   H19       1.0  0.60208  0.19045  0.42669  1.0000 0.1314401596
H   H20       1.0  0.39792  0.69045  0.07331  1.0000 0.1314401596
H   H21       1.0  0.38845  0.85501  0.50071  1.0000 0.1314401596
H   H22       1.0  0.61155  0.35501  0.99929  1.0000 0.1314401596
H   H23       1.0  0.61155  0.14499  0.49929  1.0000 0.1314401596
H   H24       1.0  0.38845  0.64499  0.00071  1.0000 0.1314401596
H   H25       1.0  0.31366  0.78222  0.48743  1.0000 0.1314401596
H   H26       1.0  0.68634  0.28222  0.01257  1.0000 0.1314401596
H   H27       1.0  0.68634  0.21778  0.51257  1.0000 0.1314401596
H   H28       1.0  0.31366  0.71778  0.98743  1.0000 0.1314401596
H   H29       1.0  0.94524  0.61373  0.47285  1.0000 0.1314401596
H   H30       1.0  0.05476  0.11373  0.02715  1.0000 0.1314401596
H   H31       1.0  0.05476  0.38627  0.52715  1.0000 0.1314401596
H   H32       1.0  0.94524  0.88627  0.97285  1.0000 0.1314401596
H   H33       1.0  0.95055  0.72446  0.55205  1.0000 0.1191799359
H   H34       1.0  0.04945  0.22446  0.94795  1.0000 0.1191799359
H   H35       1.0  0.04945  0.27554  0.44795  1.0000 0.1191799359
H   H36       1.0  0.95055  0.77554  0.05205  1.0000 0.1191799359
H   H37       1.0  0.29526  0.80827  0.70510  1.0000 0.1191799359
H   H38       1.0  0.70474  0.30827  0.79490  1.0000 0.1191799359
H   H39       1.0  0.70474  0.19173  0.29490  1.0000 0.1191799359
H   H40       1.0  0.29526  0.69173  0.20510  1.0000 0.1191799359
H   H41       1.0  0.29526  0.90908  0.79177  1.0000 0.138221897
H   H42       1.0  0.70474  0.40908  0.70823  1.0000 0.1314401596
H   H43       1.0  0.70474  0.09092  0.20823  1.0000 0.1314401596
H   H44       1.0  0.29526  0.59092  0.29177  1.0000 0.1314401596
H   H45       1.0  0.47806  0.36504  0.61187  1.0000 0.138221897
H   H46       1.0  0.52194  0.86504  0.88813  1.0000 0.138221897
H   H47       1.0  0.52194  0.63496  0.38813  1.0000 0.138221897
H   H48       1.0  0.47806  0.13496  0.11187  1.0000 0.138221897
H   H49       1.0  0.52250  0.27640  0.72056  1.0000 0.1314401596
H   H50       1.0  0.47750  0.77640  0.77944  1.0000 0.1314401596
H   H51       1.0  0.47750  0.72360  0.27944  1.0000 0.1314401596
H   H52       1.0  0.52250  0.22360  0.22056  1.0000 0.1314401596
H   H53       1.0  0.21108  0.15695  0.67178  1.0000 0.1314401596
H   H54       1.0  0.78892  0.65695  0.82822  1.0000 0.1314401596
H   H55       1.0  0.78892  0.84305  0.32822  1.0000 0.1314401596
H   H56       1.0  0.21108  0.34305  0.17178  1.0000 0.1314401596
H   H57       1.0  0.25443  0.06005  0.77384  1.0000 0.1314401596
H   H58       1.0  0.74557  0.56005  0.72616  1.0000 0.1314401596
H   H59       1.0  0.74557  0.93995  0.22616  1.0000 0.1314401596
H   H60       1.0  0.25443  0.43995  0.27384  1.0000 0.1314401596
H   H61       1.0  0.86293  0.50456  0.35960  1.0000 0.1191799359
H   H62       1.0  0.13707  0.00456  0.14040  1.0000 0.1191799359
H   H63       1.0  0.13707  0.49544  0.64040  1.0000 0.1191799359
H   H64       1.0  0.86293  0.99544  0.85960  1.0000 0.1191799359
H   H65       1.0  0.60015  0.39841  0.19764  1.0000 0.1191799359
H   H66       1.0  0.39985  0.89841  0.30236  1.0000 0.1191799359
H   H67       1.0  0.39985  0.60159  0.80236  1.0000 0.1191799359
H   H68       1.0  0.60015  0.10159  0.69764  1.0000 0.1191799359
H   H69       1.0  0.70195  0.31964  0.16707  1.0000 0.1314401596
H   H70       1.0  0.29805  0.81964  0.33293  1.0000 0.1314401596
H   H71       1.0  0.29805  0.68036  0.83293  1.0000 0.1314401596
H   H72       1.0  0.70195  0.18036  0.66707  1.0000 0.1314401596
H   H73       1.0  0.58850  0.51629  0.26390  1.0000 0.138221897
H   H74       1.0  0.41150  0.01629  0.23610  1.0000 0.138221897
H   H75       1.0  0.41150  0.48371  0.73610  1.0000 0.138221897
H   H76       1.0  0.58850  0.98371  0.76390  1.0000 0.138221897
H   H77       1.0  0.66393  0.49049  0.35194  1.0000 0.1576950238
H   H78       1.0  0.33607  0.99049  0.14806  1.0000 0.1576950238
H   H79       1.0  0.33607  0.50951  0.64806  1.0000 0.1576950238
H   H80       1.0  0.66393  0.00951  0.85194  1.0000 0.1576950238
H   H81       1.0  0.69234  0.56521  0.31856  1.0000 0.138221897
H   H82       1.0  0.30766  0.06521  0.18144  1.0000 0.138221897
H   H83       1.0  0.30766  0.43479  0.68144  1.0000 0.138221897
H   H84       1.0  0.69234  0.93479  0.81856  1.0000 0.138221897
H   H85       1.0  0.15629  0.30459  0.30368  1.0000 0.1191799359
H   H86       1.0  0.84371  0.80459  0.19632  1.0000 0.1191799359
H   H87       1.0  0.84371  0.69541  0.69632  1.0000 0.1191799359
H   H88       1.0  0.15629  0.19541  0.80368  1.0000 0.1191799359
H   H89       1.0  0.92723  0.17290  0.13782  1.0000 0.1314401596
H   H90       1.0  0.07277  0.67290  0.36218  1.0000 0.1314401596
H   H91       1.0  0.07277  0.82710  0.86218  1.0000 0.1314401596
H   H92       1.0  0.92723  0.32710  0.63782  1.0000 0.1314401596
H   H93       1.0  0.80538  0.24780  0.14859  1.0000 0.1314401596
H   H94       1.0  0.19462  0.74780  0.35141  1.0000 0.1314401596
H   H95       1.0  0.19462  0.75220  0.85141  1.0000 0.1314401596
H   H96       1.0  0.80538  0.25220  0.64859  1.0000 0.1314401596
H   H97       1.0  0.12258  0.12391  0.22374  1.0000 0.1576950238
H   H98       1.0  0.87742  0.62391  0.27626  1.0000 0.1576950238
H   H99       1.0  0.87742  0.87609  0.77626  1.0000 0.1576950238
H   H100      1.0  0.12258  0.37609  0.72374  1.0000 0.1576950238
H   H101      1.0  0.13589  0.18695  0.17086  1.0000 0.1314401596
H   H102      1.0  0.86411  0.68695  0.32914  1.0000 0.1314401596
H   H103      1.0  0.86411  0.81305  0.82914  1.0000 0.1314401596
H   H104      1.0  0.13589  0.31305  0.67086  1.0000 0.1314401596
H   H105      1.0  0.20686  0.19252  0.26296  1.0000 0.138221897
H   H106      1.0  0.79314  0.69252  0.23704  1.0000 0.138221897
H   H107      1.0  0.79314  0.80748  0.73704  1.0000 0.138221897
H   H108      1.0  0.20686  0.30748  0.76296  1.0000 0.138221897
C   C1        1.0  0.43261  0.68379  0.48271  1.0000 0.2922823353
C   C2        1.0  0.56739  0.18379  0.01729  1.0000 0.2922823353
C   C3        1.0  0.56739  0.31621  0.51729  1.0000 0.2922823353
C   C4        1.0  0.43261  0.81621  0.98271  1.0000 0.2922823353
C   C5        1.0  0.57210  0.77020  0.57050  1.0000 -0.3563507127
C   C6        1.0  0.42790  0.27020  0.92950  1.0000 -0.3563507127
C   C7        1.0  0.42790  0.22980  0.42950  1.0000 -0.3563507127
C   C8        1.0  0.57210  0.72980  0.07050  1.0000 -0.3563507127
C   C9        1.0  0.38380  0.80380  0.52050  1.0000 -0.3324671912
C   C10       1.0  0.61620  0.30380  0.97950  1.0000 -0.3324671912
C   C11       1.0  0.61620  0.19620  0.47950  1.0000 -0.3324671912
C   C12       1.0  0.38380  0.69620  0.02050  1.0000 -0.3324671912
C   C13       1.0  0.12686  0.56864  0.47245  1.0000 0.5814985705
C   C14       1.0  0.87314  0.06864  0.02755  1.0000 0.5814985705
C   C15       1.0  0.87314  0.43136  0.52755  1.0000 0.5814985705
C   C16       1.0  0.12686  0.93136  0.97245  1.0000 0.5814985705
C   C17       1.0  0.10018  0.63011  0.51114  1.0000 -0.1193429219
C   C18       1.0  0.89982  0.13011  0.98886  1.0000 -0.1265111816
C   C19       1.0  0.89982  0.36989  0.48886  1.0000 -0.1265111816
C   C20       1.0  0.10018  0.86989  0.01114  1.0000 -0.1193429219
C   C21       1.0  0.00615  0.64382  0.50455  1.0000 -0.1098900638
C   C22       1.0  0.99385  0.14382  0.99545  1.0000 -0.1098900638
C   C23       1.0  0.99385  0.35618  0.49545  1.0000 -0.1098900638
C   C24       1.0  0.00615  0.85618  0.00455  1.0000 -0.1098900638
C   C25       1.0  0.00927  0.70726  0.54975  1.0000 -0.1807194888
C   C26       1.0  0.99073  0.20726  0.95025  1.0000 -0.1807194888
C   C27       1.0  0.99073  0.29274  0.45025  1.0000 -0.1807194888
C   C28       1.0  0.00927  0.79274  0.04975  1.0000 -0.1807194888
C   C29       1.0  0.10507  0.74180  0.59008  1.0000 -0.0124237161
C   C30       1.0  0.89493  0.24180  0.90992  1.0000 -0.0124237161
C   C31       1.0  0.89493  0.25820  0.40992  1.0000 -0.0124237161
C   C32       1.0  0.10507  0.75820  0.09008  1.0000 -0.0124237161
C   C33       1.0  0.13555  0.80432  0.64590  1.0000 -0.0124237161
C   C34       1.0  0.86445  0.30432  0.85410  1.0000 -0.0124237161
C   C35       1.0  0.86445  0.19568  0.35410  1.0000 -0.0124237161
C   C36       1.0  0.13555  0.69568  0.14590  1.0000 -0.0124237161
C   C37       1.0  0.23337  0.82857  0.70084  1.0000 -0.1807194888
C   C38       1.0  0.76663  0.32857  0.79916  1.0000 -0.1807194888
C   C39       1.0  0.76663  0.17143  0.29916  1.0000 -0.1807194888
C   C40       1.0  0.23337  0.67143  0.20084  1.0000 -0.1807194888
C   C41       1.0  0.23363  0.88643  0.75045  1.0000 -0.1026423846
C   C42       1.0  0.76637  0.38643  0.74955  1.0000 -0.1026423846
C   C43       1.0  0.76637  0.11357  0.24955  1.0000 -0.1026423846
C   C44       1.0  0.23363  0.61357  0.25045  1.0000 -0.1026423846
C   C45       1.0  0.13550  0.90627  0.73250  1.0000 -0.1363888572
C   C46       1.0  0.86450  0.40627  0.76750  1.0000 -0.1363888572
C   C47       1.0  0.86450  0.09373  0.26750  1.0000 -0.1363888572
C   C48       1.0  0.13550  0.59373  0.23250  1.0000 -0.1363888572
C   C49       1.0  0.10322  0.96053  0.77264  1.0000 0.5631506516
C   C50       1.0  0.89678  0.46053  0.72736  1.0000 0.5631506516
C   C51       1.0  0.89678  0.03947  0.22736  1.0000 0.5631506516
C   C52       1.0  0.10322  0.53947  0.27264  1.0000 0.5631506516
C   C53       1.0  0.27079  0.37338  0.48482  1.0000 0.5814985705
C   C54       1.0  0.72921  0.87338  0.01518  1.0000 0.5814985705
C   C55       1.0  0.72921  0.62662  0.51518  1.0000 0.5814985705
C   C56       1.0  0.27079  0.12662  0.98482  1.0000 0.5814985705
C   C57       1.0  0.32621  0.32794  0.55784  1.0000 -0.1193429219
C   C58       1.0  0.67379  0.82794  0.94216  1.0000 -0.1193429219
C   C59       1.0  0.67379  0.67206  0.44216  1.0000 -0.1193429219
C   C60       1.0  0.32621  0.17206  0.05784  1.0000 -0.1193429219
C   C61       1.0  0.42888  0.33184  0.61429  1.0000 -0.1098900638
C   C62       1.0  0.57112  0.83184  0.88571  1.0000 -0.1098900638
C   C63       1.0  0.57112  0.66816  0.38571  1.0000 -0.1098900638
C   C64       1.0  0.42888  0.16816  0.11429  1.0000 -0.1098900638
C   C65       1.0  0.45420  0.28122  0.67670  1.0000 -0.1807194888
C   C66       1.0  0.54580  0.78122  0.82330  1.0000 -0.1807194888
C   C67       1.0  0.54580  0.71878  0.32330  1.0000 -0.1807194888
C   C68       1.0  0.45420  0.21878  0.17670  1.0000 -0.1807194888
C   C69       1.0  0.37054  0.23984  0.66772  1.0000 -0.018397419
C   C70       1.0  0.62946  0.73984  0.83228  1.0000 -0.018397419
C   C71       1.0  0.62946  0.76016  0.33228  1.0000 -0.018397419
C   C72       1.0  0.37054  0.26016  0.16772  1.0000 -0.018397419
C   C73       1.0  0.36643  0.18174  0.71848  1.0000 -0.018397419
C   C74       1.0  0.63357  0.68174  0.78152  1.0000 -0.018397419
C   C75       1.0  0.63357  0.81826  0.28152  1.0000 -0.018397419
C   C76       1.0  0.36643  0.31826  0.21848  1.0000 -0.018397419
C   C77       1.0  0.28046  0.14569  0.71186  1.0000 -0.1729893314
C   C78       1.0  0.71954  0.64569  0.78814  1.0000 -0.1729893314
C   C79       1.0  0.71954  0.85431  0.28814  1.0000 -0.1729893314
C   C80       1.0  0.28046  0.35431  0.21186  1.0000 -0.1729893314
C   C81       1.0  0.30517  0.09028  0.77039  1.0000 -0.1098900638
C   C82       1.0  0.69483  0.59028  0.72961  1.0000 -0.1098900638
C   C83       1.0  0.69483  0.90972  0.22961  1.0000 -0.1098900638
C   C84       1.0  0.30517  0.40972  0.27039  1.0000 -0.1098900638
C   C85       1.0  0.40992  0.08466  0.82167  1.0000 -0.1193429219
C   C86       1.0  0.59008  0.58466  0.67833  1.0000 -0.1193429219
C   C87       1.0  0.59008  0.91534  0.17833  1.0000 -0.1193429219
C   C88       1.0  0.40992  0.41534  0.32167  1.0000 -0.1193429219
C   C89       1.0  0.46748  0.03449  0.89149  1.0000 0.5896289421
C   C90       1.0  0.53252  0.53449  0.60851  1.0000 0.5896289421
C   C91       1.0  0.53252  0.96551  0.10851  1.0000 0.5896289421
C   C92       1.0  0.46748  0.46551  0.39149  1.0000 0.5896289421
C   C93       1.0  0.82909  0.46680  0.31965  1.0000 0.0237007027
C   C94       1.0  0.17091  0.96680  0.18035  1.0000 0.0237007027
C   C95       1.0  0.17091  0.53320  0.68035  1.0000 0.0237007027
C   C96       1.0  0.82909  0.03320  0.81965  1.0000 0.0237007027
C   C97       1.0  0.72102  0.46149  0.28252  1.0000 0.138221897
C   C98       1.0  0.27898  0.96149  0.21748  1.0000 0.138221897
C   C99       1.0  0.27898  0.53851  0.71748  1.0000 0.138221897
C   C100      1.0  0.72102  0.03851  0.78252  1.0000 0.138221897
C   C101      1.0  0.67380  0.40490  0.22470  1.0000 -0.1265111816
C   C102      1.0  0.32620  0.90490  0.27530  1.0000 -0.1265111816
C   C103      1.0  0.32620  0.59510  0.77530  1.0000 -0.1265111816
C   C104      1.0  0.67380  0.09510  0.72470  1.0000 -0.1265111816
C   C105      1.0  0.73395  0.35810  0.20655  1.0000 -0.1621674227
C   C106      1.0  0.26605  0.85810  0.29345  1.0000 -0.1621674227
C   C107      1.0  0.26605  0.64190  0.79345  1.0000 -0.1621674227
C   C108      1.0  0.73395  0.14190  0.70655  1.0000 -0.1621674227
C   C109      1.0  0.84124  0.36797  0.24664  1.0000 0.1499119921
C   C110      1.0  0.15876  0.86797  0.25336  1.0000 0.1499119921
C   C111      1.0  0.15876  0.63203  0.75336  1.0000 0.1499119921
C   C112      1.0  0.84124  0.13203  0.74664  1.0000 0.1499119921
C   C113      1.0  0.66130  0.51280  0.30630  1.0000 -0.4669034955
C   C114      1.0  0.33870  0.01280  0.19370  1.0000 -0.4669034955
C   C115      1.0  0.33870  0.48720  0.69370  1.0000 -0.4669034955
C   C116      1.0  0.66130  0.98720  0.80630  1.0000 -0.4669034955
C   C117      1.0  0.08428  0.29264  0.27141  1.0000 0.0297219975
C   C118      1.0  0.91572  0.79264  0.22859  1.0000 0.0297219975
C   C119      1.0  0.91572  0.70736  0.72859  1.0000 0.0297219975
C   C120      1.0  0.08428  0.20736  0.77141  1.0000 0.0297219975
C   C121      1.0  0.05719  0.22981  0.22099  1.0000 0.1499119921
C   C122      1.0  0.94281  0.72981  0.27901  1.0000 0.1499119921
C   C123      1.0  0.94281  0.77019  0.77901  1.0000 0.1499119921
C   C124      1.0  0.05719  0.27019  0.72099  1.0000 0.1499119921
C   C125      1.0  0.95022  0.21446  0.17422  1.0000 -0.1026423846
C   C126      1.0  0.04978  0.71446  0.32578  1.0000 -0.1026423846
C   C127      1.0  0.04978  0.78554  0.82578  1.0000 -0.1026423846
C   C128      1.0  0.95022  0.28554  0.67422  1.0000 -0.1026423846
C   C129      1.0  0.87784  0.25871  0.18024  1.0000 -0.1621674227
C   C130      1.0  0.12216  0.75871  0.31976  1.0000 -0.1621674227
C   C131      1.0  0.12216  0.74129  0.81976  1.0000 -0.1621674227
C   C132      1.0  0.87784  0.24129  0.68024  1.0000 -0.1621674227
C   C133      1.0  0.91240  0.31937  0.23320  1.0000 0.1499119921
C   C134      1.0  0.08760  0.81937  0.26680  1.0000 0.138221897
C   C135      1.0  0.08760  0.68063  0.76680  1.0000 0.138221897
C   C136      1.0  0.91240  0.18063  0.73320  1.0000 0.1499119921
C   C137      1.0  0.13760  0.17890  0.21950  1.0000 -0.4669034955
C   C138      1.0  0.86240  0.67890  0.28050  1.0000 -0.4669034955
C   C139      1.0  0.86240  0.82110  0.78050  1.0000 -0.4669034955
C   C140      1.0  0.13760  0.32110  0.71950  1.0000 -0.4669034955
S   S1        1.0  0.19355  0.69581  0.57261  1.0000 0.1314401596
S   S2        1.0  0.80645  0.19581  0.92739  1.0000 0.1314401596
S   S3        1.0  0.80645  0.30419  0.42739  1.0000 0.1314401596
S   S4        1.0  0.19355  0.80419  0.07261  1.0000 0.1314401596
S   S5        1.0  0.04177  0.85491  0.65367  1.0000 0.1576950238
S   S6        1.0  0.95823  0.35491  0.84633  1.0000 0.1576950238
S   S7        1.0  0.95823  0.14509  0.34633  1.0000 0.1576950238
S   S8        1.0  0.04177  0.64509  0.15367  1.0000 0.1576950238
S   S9        1.0  0.25940  0.26344  0.58179  1.0000 0.138221897
S   S10       1.0  0.74060  0.76344  0.91821  1.0000 0.138221897
S   S11       1.0  0.74060  0.73656  0.41821  1.0000 0.138221897
S   S12       1.0  0.25940  0.23656  0.08179  1.0000 0.138221897
S   S13       1.0  0.47888  0.14815  0.79840  1.0000 0.1097541077
S   S14       1.0  0.52112  0.64815  0.70160  1.0000 0.1097541077
S   S15       1.0  0.52112  0.85185  0.20160  1.0000 0.1097541077
S   S16       1.0  0.47888  0.35185  0.29840  1.0000 0.1097541077
N   N1        1.0  0.46045  0.75090  0.52065  1.0000 0.0297219975
N   N2        1.0  0.53955  0.25090  0.97935  1.0000 0.0297219975
N   N3        1.0  0.53955  0.24910  0.47935  1.0000 0.0297219975
N   N4        1.0  0.46045  0.74910  0.02065  1.0000 0.0297219975
N   N5        1.0  0.88844  0.42282  0.30323  1.0000 -0.2647257375
N   N6        1.0  0.11156  0.92282  0.19677  1.0000 -0.2647257375
N   N7        1.0  0.11156  0.57718  0.69677  1.0000 -0.2647257375
N   N8        1.0  0.88844  0.07718  0.80323  1.0000 -0.2647257375
N   N9        1.0  0.01622  0.33692  0.27741  1.0000 -0.2747694778
N   N10       1.0  0.98378  0.83692  0.22259  1.0000 -0.2747694778
N   N11       1.0  0.98378  0.66308  0.72259  1.0000 -0.2747694778
N   N12       1.0  0.01622  0.16308  0.77741  1.0000 -0.2747694778
O   O1        1.0  0.34014  0.66193  0.43929  1.0000 -0.4669034955
O   O2        1.0  0.65986  0.16193  0.06071  1.0000 -0.4669034955
O   O3        1.0  0.65986  0.33807  0.56071  1.0000 -0.4669034955
O   O4        1.0  0.34014  0.83807  0.93929  1.0000 -0.4669034955
O   O5        1.0  0.05219  0.52648  0.42438  1.0000 -0.5392465519
O   O6        1.0  0.94781  0.02648  0.07562  1.0000 -0.5392465519
O   O7        1.0  0.94781  0.47352  0.57562  1.0000 -0.5392465519
O   O8        1.0  0.05219  0.97352  0.92438  1.0000 -0.5392465519
O   O9        1.0  0.21948  0.56393  0.48967  1.0000 -0.5519612135
O   O10       1.0  0.78052  0.06393  0.01033  1.0000 -0.5519612135
O   O11       1.0  0.78052  0.43607  0.51033  1.0000 -0.5519612135
O   O12       1.0  0.21948  0.93607  0.98967  1.0000 -0.5519612135
O   O13       1.0  0.17429  0.99222  0.83567  1.0000 -0.57623183
O   O14       1.0  0.82571  0.49222  0.66433  1.0000 -0.57623183
O   O15       1.0  0.82571  0.00778  0.16433  1.0000 -0.57623183
O   O16       1.0  0.17429  0.50778  0.33567  1.0000 -0.57623183
O   O17       1.0  0.00914  0.97565  0.74608  1.0000 -0.5123621153
O   O18       1.0  0.99086  0.47565  0.75392  1.0000 -0.5123621153
O   O19       1.0  0.99086  0.02435  0.25392  1.0000 -0.5123621153
O   O20       1.0  0.00914  0.52435  0.24608  1.0000 -0.5123621153
O   O21       1.0  0.17272  0.37030  0.44730  1.0000 -0.5519612135
O   O22       1.0  0.82728  0.87030  0.05270  1.0000 -0.5519612135
O   O23       1.0  0.82728  0.62970  0.55270  1.0000 -0.5519612135
O   O24       1.0  0.17272  0.12970  0.94730  1.0000 -0.5519612135
O   O25       1.0  0.32627  0.41006  0.46563  1.0000 -0.5519612135
O   O26       1.0  0.67373  0.91006  0.03437  1.0000 -0.5519612135
O   O27       1.0  0.67373  0.58994  0.53437  1.0000 -0.5519612135
O   O28       1.0  0.32627  0.08994  0.96563  1.0000 -0.5519612135
O   O29       1.0  0.56225  0.04967  0.93382  1.0000 -0.5519612135
O   O30       1.0  0.43775  0.54967  0.56618  1.0000 -0.5519612135
O   O31       1.0  0.43775  0.95033  0.06618  1.0000 -0.5519612135
O   O32       1.0  0.56225  0.45033  0.43382  1.0000 -0.5519612135
O   O33       1.0  0.41856  0.98077  0.90125  1.0000 -0.5651945995
O   O34       1.0  0.58144  0.48077  0.59875  1.0000 -0.5651945995
O   O35       1.0  0.58144  0.01923  0.09875  1.0000 -0.5651945995
O   O36       1.0  0.41856  0.51923  0.40125  1.0000 -0.5651945995
