# DDEC6 charges by PACMAN v1.1 (https://github.com/mtap-research/PACMAN-charge/)
data_2023[Zn][sql]2[FSR]18
_chemical_formula_sum              "Zn2 H36 C60 N8 O8"
_cell_length_a       6.751
_cell_length_b       12.713
_cell_length_c       17.325
_cell_angle_alpha    109.436
_cell_angle_beta     97.767
_cell_angle_gamma    89.83

_symmetry_space_group_name_H-M    "P 1"
_symmetry_Int_Tables_number       1

loop_
  _symmetry_equiv_pos_as_xyz
  'x, y, z'

loop_
  _atom_site_type_symbol
  _atom_site_label
  _atom_site_symmetry_multiplicity
  _atom_site_fract_x
  _atom_site_fract_y
  _atom_site_fract_z
  _atom_site_occupancy
  _atom_site_charge
Zn  Zn1       1.0  0.19580  0.00318  0.20193  1.0000 0.7405551788
Zn  Zn2       1.0  0.80420  0.99682  0.79807  1.0000 0.7405551788
H   H1        1.0  0.98024  0.41103  0.32005  1.0000 0.1308726561
H   H2        1.0  0.01976  0.58897  0.67995  1.0000 0.1308726561
H   H3        1.0  0.94989  0.72111  0.31261  1.0000 0.1189644664
H   H4        1.0  0.05011  0.27889  0.68739  1.0000 0.1189644664
H   H5        1.0  0.62058  0.94131  0.20126  1.0000 0.1115358663
H   H6        1.0  0.37942  0.05869  0.79874  1.0000 0.1115358663
H   H7        1.0  0.31199  0.45277  0.34208  1.0000 0.1115358663
H   H8        1.0  0.68801  0.54723  0.65792  1.0000 0.1115358663
H   H9        1.0  0.81451  0.81126  0.23164  1.0000 0.1403088052
H   H10       1.0  0.18549  0.18874  0.76836  1.0000 0.1403088052
H   H11       1.0  0.20866  0.19062  0.13880  1.0000 0.1189644664
H   H12       1.0  0.79134  0.80938  0.86120  1.0000 0.1189644664
H   H13       1.0  0.31839  0.62010  0.19683  1.0000 0.1403088052
H   H14       1.0  0.68161  0.37990  0.80317  1.0000 0.1403088052
H   H15       1.0  0.78650  0.27502  0.31992  1.0000 0.1403088052
H   H16       1.0  0.21350  0.72498  0.68008  1.0000 0.1403088052
H   H17       1.0  0.38996  0.34999  0.15714  1.0000 0.1403088052
H   H18       1.0  0.61004  0.65001  0.84286  1.0000 0.1403088052
H   H19       1.0  0.61694  0.50209  0.42789  1.0000 0.1115358663
H   H20       1.0  0.38306  0.49791  0.57211  1.0000 0.1115358663
H   H21       1.0  0.59376  0.12052  0.30076  1.0000 0.1189644664
H   H22       1.0  0.40624  0.87948  0.69924  1.0000 0.1189644664
H   H23       1.0  0.76486  0.13095  0.04940  1.0000 0.1189644664
H   H24       1.0  0.23514  0.86905  0.95060  1.0000 0.1189644664
H   H25       1.0  0.79388  0.97899  0.37724  1.0000 0.1189644664
H   H26       1.0  0.20612  0.02101  0.62276  1.0000 0.1189644664
H   H27       1.0  0.14405  0.76587  0.43914  1.0000 0.1189644664
H   H28       1.0  0.85595  0.23413  0.56086  1.0000 0.1189644664
H   H29       1.0  0.13828  0.75707  0.16630  1.0000 0.1189644664
H   H30       1.0  0.86172  0.24293  0.83370  1.0000 0.1189644664
H   H31       1.0  0.66192  0.96562  0.48931  1.0000 0.1189644664
H   H32       1.0  0.33808  0.03438  0.51069  1.0000 0.1189644664
H   H33       1.0  0.46730  0.17373  0.98615  1.0000 0.1115358663
H   H34       1.0  0.53270  0.82627  0.01385  1.0000 0.1115358663
H   H35       1.0  0.44854  0.81286  0.52203  1.0000 0.1308726561
H   H36       1.0  0.55146  0.18714  0.47797  1.0000 0.1308726561
C   C1        1.0  0.61190  0.33220  0.24070  1.0000 0.0902710897
C   C2        1.0  0.38810  0.66780  0.75930  1.0000 0.0902710897
C   C3        1.0  0.08130  0.00700  0.43130  1.0000 -0.0205773772
C   C4        1.0  0.91870  0.99300  0.56870  1.0000 -0.0205773772
C   C5        1.0  0.70880  0.61870  0.25010  1.0000 0.2005951409
C   C6        1.0  0.29120  0.38130  0.74990  1.0000 0.2005951409
C   C7        1.0  0.91180  0.46590  0.30420  1.0000 -0.2221627094
C   C8        1.0  0.08820  0.53410  0.69580  1.0000 -0.2221627094
C   C9        1.0  0.72380  0.44100  0.25850  1.0000 0.2005951409
C   C10       1.0  0.27620  0.55900  0.74150  1.0000 0.2005951409
C   C11       1.0  0.58930  0.69960  0.22140  1.0000 0.0983268437
C   C12       1.0  0.41070  0.30040  0.77860  1.0000 0.0983268437
C   C13       1.0  0.89580  0.64900  0.29890  1.0000 -0.2221627094
C   C14       1.0  0.10420  0.35100  0.70110  1.0000 -0.2221627094
C   C15       1.0  0.87160  0.94840  0.08240  1.0000 0.5387586471
C   C16       1.0  0.12840  0.05160  0.91760  1.0000 0.5387586471
C   C17       1.0  0.55900  0.87630  0.20190  1.0000 0.0902710897
C   C18       1.0  0.44100  0.12370  0.79810  1.0000 0.0902710897
C   C19       1.0  0.33840  0.52560  0.37820  1.0000 -0.1455806452
C   C20       1.0  0.66160  0.47440  0.62180  1.0000 -0.1455806452
C   C21       1.0  0.99950  0.57280  0.32680  1.0000 0.1189644664
C   C22       1.0  0.00050  0.42720  0.67320  1.0000 0.1189644664
C   C23       1.0  0.67630  0.79870  0.22010  1.0000 -0.1727275173
C   C24       1.0  0.32370  0.20130  0.77990  1.0000 -0.1727275173
C   C25       1.0  0.32530  0.20820  0.17670  1.0000 0.0983268437
C   C26       1.0  0.67470  0.79180  0.82330  1.0000 0.0983268437
C   C27       1.0  0.38380  0.68570  0.19940  1.0000 -0.1727275173
C   C28       1.0  0.61620  0.31430  0.80060  1.0000 -0.1727275173
C   C29       1.0  0.66820  0.26030  0.28300  1.0000 -0.179891746
C   C30       1.0  0.33180  0.73970  0.71700  1.0000 -0.179891746
C   C31       1.0  0.17310  0.01330  0.35780  1.0000 0.5504917321
C   C32       1.0  0.82690  0.98670  0.64220  1.0000 0.5504917321
C   C33       1.0  0.19690  0.60450  0.38100  1.0000 0.0776917902
C   C34       1.0  0.80310  0.39550  0.61900  1.0000 0.0776917902
C   C35       1.0  0.43530  0.30370  0.18700  1.0000 -0.179891746
C   C36       1.0  0.56470  0.69630  0.81300  1.0000 -0.179891746
C   C37       1.0  0.68090  0.97380  0.03790  1.0000 -0.0253445688
C   C38       1.0  0.31910  0.02620  0.96210  1.0000 -0.0253445688
C   C39       1.0  0.52110  0.55520  0.42950  1.0000 -0.131949736
C   C40       1.0  0.47890  0.44480  0.57050  1.0000 -0.1356413844
C   C41       1.0  0.55160  0.16750  0.27110  1.0000 0.0728313294
C   C42       1.0  0.44840  0.83250  0.72890  1.0000 0.0728313294
C   C43       1.0  0.56000  0.66260  0.48240  1.0000 0.0493313898
C   C44       1.0  0.44000  0.33740  0.51760  1.0000 0.0493313898
C   C45       1.0  0.65900  0.07800  0.02960  1.0000 -0.1114588549
C   C46       1.0  0.34100  0.92200  0.97040  1.0000 -0.1114588549
C   C47       1.0  0.87780  0.98730  0.42630  1.0000 -0.1188193257
C   C48       1.0  0.12220  0.01270  0.57370  1.0000 -0.1188193257
C   C49       1.0  0.23940  0.71220  0.43600  1.0000 -0.131949736
C   C50       1.0  0.76060  0.28780  0.56400  1.0000 -0.131949736
C   C51       1.0  0.27610  0.76850  0.18150  1.0000 0.0902710897
C   C52       1.0  0.72390  0.23150  0.81850  1.0000 0.0902710897
C   C53       1.0  0.79880  0.97980  0.49390  1.0000 -0.1114588549
C   C54       1.0  0.20120  0.02020  0.50610  1.0000 -0.1114588549
C   C55       1.0  0.47990  0.10370  0.99170  1.0000 -0.1188193257
C   C56       1.0  0.52010  0.89630  0.00830  1.0000 -0.1188193257
C   C57       1.0  0.42100  0.74020  0.48580  1.0000 -0.1114588549
C   C58       1.0  0.57900  0.25980  0.51420  1.0000 -0.1114588549
C   C59       1.0  0.75240  0.68870  0.53680  1.0000 0.2691693422
C   C60       1.0  0.24760  0.31130  0.46320  1.0000 0.2691693422
N   N1        1.0  0.37860  0.14000  0.21870  1.0000 -0.2294570464
N   N2        1.0  0.62140  0.86000  0.78130  1.0000 -0.2294570464
N   N3        1.0  0.62290  0.51540  0.23040  1.0000 -0.3401601198
N   N4        1.0  0.37710  0.48460  0.76960  1.0000 -0.3401601198
N   N5        1.0  0.36170  0.86490  0.18500  1.0000 -0.2221627094
N   N6        1.0  0.63830  0.13510  0.81500  1.0000 -0.2221627094
N   N7        1.0  0.89950  0.70630  0.57820  1.0000 -0.3608792308
N   N8        1.0  0.10050  0.29370  0.42180  1.0000 -0.3608792308
O   O1        1.0  0.05140  0.99900  0.29150  1.0000 -0.5449510101
O   O2        1.0  0.94860  0.00100  0.70850  1.0000 -0.5449510101
O   O3        1.0  0.99140  0.02880  0.12140  1.0000 -0.5260651591
O   O4        1.0  0.00860  0.97120  0.87860  1.0000 -0.5260651591
O   O5        1.0  0.35580  0.03050  0.36490  1.0000 -0.5589975599
O   O6        1.0  0.64420  0.96950  0.63510  1.0000 -0.5589975599
O   O7        1.0  0.90120  0.85150  0.07990  1.0000 -0.5457909587
O   O8        1.0  0.09880  0.14850  0.92010  1.0000 -0.5457909587
