# DDEC6 charges by PACMAN v1.1 (https://github.com/mtap-research/PACMAN-charge/)
data_2023[Zn][kgd]2[FSR]3
_chemical_formula_sum              "Zn2 H24 C36 N4 O10"
_cell_length_a       9.6875
_cell_length_b       10.2573
_cell_length_c       11.9359
_cell_angle_alpha    97.081
_cell_angle_beta     113.65
_cell_angle_gamma    107.149

_symmetry_space_group_name_H-M    "P 1"
_symmetry_Int_Tables_number       1

loop_
  _symmetry_equiv_pos_as_xyz
  'x, y, z'

loop_
  _atom_site_type_symbol
  _atom_site_label
  _atom_site_symmetry_multiplicity
  _atom_site_fract_x
  _atom_site_fract_y
  _atom_site_fract_z
  _atom_site_occupancy
  _atom_site_charge
Zn  Zn1       1.0  0.21893  0.95914  0.02588  1.0000 0.8708406119
Zn  Zn2       1.0  0.78107  0.04086  0.97412  1.0000 0.8708406119
H   H1        1.0  0.34043  0.86878  0.89289  1.0000 0.3471222847
H   H2        1.0  0.65957  0.13122  0.10711  1.0000 0.3471222847
H   H3        1.0  0.19304  0.76298  0.85592  1.0000 0.330908361
H   H4        1.0  0.80696  0.23702  0.14408  1.0000 0.330908361
H   H5        1.0  0.53334  0.88868  0.41618  1.0000 0.1265335261
H   H6        1.0  0.46666  0.11132  0.58382  1.0000 0.1265335261
H   H7        1.0  0.76325  0.93620  0.60281  1.0000 0.1265335261
H   H8        1.0  0.23675  0.06380  0.39719  1.0000 0.1265335261
H   H9        1.0  0.00352  0.25532  0.51284  1.0000 0.1201433543
H   H10       1.0  0.99648  0.74468  0.48716  1.0000 0.1201433543
H   H11       1.0  0.77284  0.20790  0.32643  1.0000 0.1104634731
H   H12       1.0  0.22716  0.79210  0.67357  1.0000 0.1104634731
H   H13       1.0  0.97995  0.97906  0.76965  1.0000 0.1201433543
H   H14       1.0  0.02005  0.02094  0.23035  1.0000 0.1201433543
H   H15       1.0  0.44375  0.21100  0.97334  1.0000 0.1201433543
H   H16       1.0  0.55625  0.78900  0.02666  1.0000 0.1201433543
H   H17       1.0  0.65761  0.34604  0.94948  1.0000 0.1201433543
H   H18       1.0  0.34239  0.65396  0.05052  1.0000 0.1201433543
H   H19       1.0  0.86898  0.54986  0.98377  1.0000 0.1265335261
H   H20       1.0  0.13102  0.45014  0.01623  1.0000 0.1265335261
H   H21       1.0  0.54941  0.70349  0.77305  1.0000 0.1201433543
H   H22       1.0  0.45059  0.29651  0.22695  1.0000 0.1201433543
H   H23       1.0  0.33753  0.50038  0.73722  1.0000 0.1201433543
H   H24       1.0  0.66247  0.49962  0.26278  1.0000 0.1201433543
C   C1        1.0  0.47770  0.00660  0.22720  1.0000 0.5521084098
C   C2        1.0  0.52230  0.99340  0.77280  1.0000 0.5521084098
C   C3        1.0  0.62920  0.03910  0.34900  1.0000 -0.0171488883
C   C4        1.0  0.37080  0.96090  0.65100  1.0000 -0.0171488883
C   C5        1.0  0.62910  0.96240  0.43420  1.0000 -0.0920134456
C   C6        1.0  0.37090  0.03760  0.56580  1.0000 -0.0920134456
C   C7        1.0  0.76750  0.99110  0.54700  1.0000 -0.1218996935
C   C8        1.0  0.23250  0.00890  0.45300  1.0000 -0.1218996935
C   C9        1.0  0.91030  0.09910  0.57720  1.0000 0.0471796943
C   C10       1.0  0.08970  0.90090  0.42280  1.0000 0.0471796943
C   C11       1.0  0.90890  0.17950  0.49350  1.0000 -0.1218996935
C   C12       1.0  0.09110  0.82050  0.50650  1.0000 -0.1218996935
C   C13       1.0  0.77020  0.15080  0.38090  1.0000 -0.1289294457
C   C14       1.0  0.22980  0.84920  0.61910  1.0000 -0.1289294457
C   C15       1.0  0.06320  0.13270  0.69560  1.0000 0.1787069617
C   C16       1.0  0.93680  0.86730  0.30440  1.0000 0.1787069617
C   C17       1.0  0.07290  0.05350  0.78360  1.0000 -0.0171488883
C   C18       1.0  0.92710  0.94650  0.21640  1.0000 -0.0171488883
C   C19       1.0  0.34380  0.19080  0.90370  1.0000 -0.0171488883
C   C20       1.0  0.65620  0.80920  0.09630  1.0000 -0.0171488883
C   C21       1.0  0.33410  0.27390  0.81910  1.0000 0.1787069617
C   C22       1.0  0.66590  0.72610  0.18090  1.0000 0.1787069617
C   C23       1.0  0.47380  0.40130  0.84070  1.0000 0.0471796943
C   C24       1.0  0.52620  0.59870  0.15930  1.0000 0.0471796943
C   C25       1.0  0.63510  0.41780  0.91410  1.0000 -0.1218996935
C   C26       1.0  0.36490  0.58220  0.08590  1.0000 -0.1218996935
C   C27       1.0  0.76210  0.54050  0.93480  1.0000 -0.0920134456
C   C28       1.0  0.23790  0.45950  0.06520  1.0000 -0.0920134456
C   C29       1.0  0.73210  0.64910  0.88360  1.0000 -0.035443914
C   C30       1.0  0.26790  0.35090  0.11640  1.0000 -0.035443914
C   C31       1.0  0.57140  0.63190  0.80900  1.0000 -0.0969790006
C   C32       1.0  0.42860  0.36810  0.19100  1.0000 -0.0969790006
C   C33       1.0  0.44410  0.51000  0.78760  1.0000 -0.1218996935
C   C34       1.0  0.55590  0.49000  0.21240  1.0000 -0.1289294457
C   C35       1.0  0.86800  0.78670  0.91200  1.0000 0.5734432964
C   C36       1.0  0.13200  0.21330  0.08800  1.0000 0.5734432964
N   N1        1.0  0.19340  0.24380  0.71510  1.0000 -0.2900395663
N   N2        1.0  0.80660  0.75620  0.28490  1.0000 -0.2900395663
N   N3        1.0  0.21300  0.08230  0.88740  1.0000 -0.2209034236
N   N4        1.0  0.78700  0.91770  0.11260  1.0000 -0.2209034236
O   O1        1.0  0.48720  0.07180  0.14500  1.0000 -0.5661008926
O   O2        1.0  0.51280  0.92820  0.85500  1.0000 -0.5661008926
O   O3        1.0  0.34520  0.91770  0.20750  1.0000 -0.5018564732
O   O4        1.0  0.65480  0.08230  0.79250  1.0000 -0.5018564732
O   O5        1.0  0.83220  0.88890  0.87880  1.0000 -0.5661008926
O   O6        1.0  0.16780  0.11110  0.12120  1.0000 -0.5661008926
O   O7        1.0  0.01120  0.79070  0.96680  1.0000 -0.5382700534
O   O8        1.0  0.98880  0.20930  0.03320  1.0000 -0.5382700534
O   O9        1.0  0.27990  0.82190  0.92390  1.0000 -0.6659095855
O   O10       1.0  0.72010  0.17810  0.07610  1.0000 -0.6659095855
