# DDEC6 charges by PACMAN v1.1 (https://github.com/mtap-research/PACMAN-charge/)
data_2023[Eu][bey]2[FSR]2
_chemical_formula_sum              "Eu4 H100 C128 O40"
_cell_length_a       9.6431
_cell_length_b       11.6693
_cell_length_c       34.9873
_cell_angle_alpha    91.212
_cell_angle_beta     93.949
_cell_angle_gamma    93.586

_symmetry_space_group_name_H-M    "P 1"
_symmetry_Int_Tables_number       1

loop_
  _symmetry_equiv_pos_as_xyz
  'x, y, z'

loop_
  _atom_site_type_symbol
  _atom_site_label
  _atom_site_symmetry_multiplicity
  _atom_site_fract_x
  _atom_site_fract_y
  _atom_site_fract_z
  _atom_site_occupancy
  _atom_site_charge
Eu  Eu1       1.0  0.47598  0.48515  0.75435  1.0000 2.0846671221
Eu  Eu2       1.0  0.97505  0.52076  0.73814  1.0000 2.0901497957
Eu  Eu3       1.0  0.52402  0.51485  0.24565  1.0000 2.0901497957
Eu  Eu4       1.0  0.02495  0.47924  0.26186  1.0000 2.0901497957
H   H1        1.0  0.75259  0.65695  0.70769  1.0000 0.3717499321
H   H2        1.0  0.82596  0.63428  0.67635  1.0000 0.3370641899
H   H3        1.0  0.17726  0.56815  0.67734  1.0000 0.3717499321
H   H4        1.0  0.04992  0.56085  0.65684  1.0000 0.3370641899
H   H5        1.0  0.57765  0.26452  0.77302  1.0000 0.357551342
H   H6        1.0  0.69221  0.34054  0.78153  1.0000 0.3717499321
H   H7        1.0  0.39561  0.43847  0.82999  1.0000 0.3531790731
H   H8        1.0  0.27067  0.44363  0.80867  1.0000 0.3717499321
H   H9        1.0  0.80346  0.31132  0.48057  1.0000 0.357551342
H   H10       1.0  0.77614  0.71070  0.01599  1.0000 0.357551342
H   H11       1.0  0.33313  0.10512  0.72106  1.0000 0.1198933828
H   H12       1.0  0.25827  0.93061  0.69041  1.0000 0.1198933828
H   H13       1.0  0.91328  0.07157  0.64496  1.0000 0.1114920576
H   H14       1.0  0.98036  0.24305  0.67837  1.0000 0.125224894
H   H15       1.0  0.04713  0.80545  0.65737  1.0000 0.1198933828
H   H16       1.0  0.96959  0.78395  0.59690  1.0000 0.1198933828
H   H17       1.0  0.79041  0.90014  0.55504  1.0000 0.1198933828
H   H18       1.0  0.76581  0.05173  0.51369  1.0000 0.1114920576
H   H19       1.0  0.15548  0.17830  0.54684  1.0000 0.1198933828
H   H20       1.0  0.18038  0.02823  0.58870  1.0000 0.1198933828
H   H21       1.0  0.15346  0.91021  0.76730  1.0000 0.1198933828
H   H22       1.0  0.22872  0.07600  0.80228  1.0000 0.1198933828
H   H23       1.0  0.50848  0.89769  0.86449  1.0000 0.1114920576
H   H24       1.0  0.43797  0.73348  0.82828  1.0000 0.1198933828
H   H25       1.0  0.39785  0.18063  0.84663  1.0000 0.1198933828
H   H26       1.0  0.48825  0.20587  0.90424  1.0000 0.1198933828
H   H27       1.0  0.69547  0.11220  0.94093  1.0000 0.1198933828
H   H28       1.0  0.76029  0.97211  0.98368  1.0000 0.1114920576
H   H29       1.0  0.37829  0.80873  0.96471  1.0000 0.1198933828
H   H30       1.0  0.31498  0.94734  0.92115  1.0000 0.1198933828
H   H31       1.0  0.81267  0.34003  0.62119  1.0000 0.1198933828
H   H32       1.0  0.72366  0.21945  0.56989  1.0000 0.1114920576
H   H33       1.0  0.40186  0.11312  0.63185  1.0000 0.1114920576
H   H34       1.0  0.48237  0.24345  0.68114  1.0000 0.1198933828
H   H35       1.0  0.49991  0.10189  0.53910  1.0000 0.1198933828
H   H36       1.0  0.42229  0.92516  0.54310  1.0000 0.1198933828
H   H37       1.0  0.63423  0.96155  0.63131  1.0000 0.1198933828
H   H38       1.0  0.63321  0.83443  0.68163  1.0000 0.125224894
H   H39       1.0  0.29319  0.65928  0.63012  1.0000 0.1114920576
H   H40       1.0  0.29334  0.78682  0.58029  1.0000 0.1114920576
H   H41       1.0  0.64889  0.66667  0.87205  1.0000 0.1198933828
H   H42       1.0  0.74219  0.79139  0.92116  1.0000 0.1114920576
H   H43       1.0  0.06499  0.88522  0.85805  1.0000 0.1114920576
H   H44       1.0  0.97876  0.75247  0.81013  1.0000 0.1198933828
H   H45       1.0  0.97780  0.89996  0.95073  1.0000 0.1198933828
H   H46       1.0  0.06016  0.07572  0.94718  1.0000 0.1114920576
H   H47       1.0  0.17569  0.22226  0.91057  1.0000 0.1114920576
H   H48       1.0  0.16240  0.35630  0.86236  1.0000 0.1114920576
H   H49       1.0  0.81637  0.18066  0.81418  1.0000 0.1198933828
H   H50       1.0  0.82796  0.04805  0.86271  1.0000 0.1198933828
H   H51       1.0  0.24741  0.34305  0.29231  1.0000 0.3717499321
H   H52       1.0  0.17404  0.36572  0.32365  1.0000 0.3370641899
H   H53       1.0  0.82274  0.43185  0.32266  1.0000 0.3717499321
H   H54       1.0  0.95008  0.43915  0.34316  1.0000 0.3370641899
H   H55       1.0  0.42235  0.73548  0.22698  1.0000 0.357551342
H   H56       1.0  0.30779  0.65946  0.21847  1.0000 0.3717499321
H   H57       1.0  0.60439  0.56153  0.17001  1.0000 0.3531790731
H   H58       1.0  0.72933  0.55637  0.19133  1.0000 0.3717499321
H   H59       1.0  0.19654  0.68868  0.51943  1.0000 0.357551342
H   H60       1.0  0.22386  0.28930  0.98401  1.0000 0.357551342
H   H61       1.0  0.66687  0.89488  0.27894  1.0000 0.1198933828
H   H62       1.0  0.74173  0.06939  0.30959  1.0000 0.1198933828
H   H63       1.0  0.08672  0.92843  0.35504  1.0000 0.1114920576
H   H64       1.0  0.01964  0.75695  0.32163  1.0000 0.125224894
H   H65       1.0  0.95287  0.19455  0.34263  1.0000 0.1198933828
H   H66       1.0  0.03041  0.21605  0.40310  1.0000 0.1198933828
H   H67       1.0  0.20959  0.09986  0.44496  1.0000 0.1198933828
H   H68       1.0  0.23419  0.94827  0.48631  1.0000 0.1114920576
H   H69       1.0  0.84452  0.82170  0.45316  1.0000 0.1198933828
H   H70       1.0  0.81962  0.97177  0.41130  1.0000 0.1114920576
H   H71       1.0  0.84654  0.08979  0.23270  1.0000 0.1198933828
H   H72       1.0  0.77128  0.92400  0.19772  1.0000 0.1198933828
H   H73       1.0  0.49152  0.10231  0.13551  1.0000 0.1114920576
H   H74       1.0  0.56203  0.26652  0.17172  1.0000 0.1198933828
H   H75       1.0  0.60215  0.81937  0.15337  1.0000 0.1198933828
H   H76       1.0  0.51175  0.79413  0.09576  1.0000 0.1198933828
H   H77       1.0  0.30453  0.88780  0.05907  1.0000 0.1198933828
H   H78       1.0  0.23971  0.02789  0.01632  1.0000 0.1114920576
H   H79       1.0  0.62171  0.19127  0.03529  1.0000 0.1198933828
H   H80       1.0  0.68502  0.05266  0.07885  1.0000 0.1198933828
H   H81       1.0  0.18733  0.65997  0.37881  1.0000 0.1198933828
H   H82       1.0  0.27634  0.78055  0.43011  1.0000 0.1114920576
H   H83       1.0  0.59814  0.88688  0.36815  1.0000 0.1114920576
H   H84       1.0  0.51763  0.75655  0.31886  1.0000 0.1198933828
H   H85       1.0  0.50009  0.89811  0.46090  1.0000 0.1198933828
H   H86       1.0  0.57771  0.07484  0.45690  1.0000 0.1198933828
H   H87       1.0  0.36577  0.03845  0.36869  1.0000 0.1198933828
H   H88       1.0  0.36679  0.16557  0.31837  1.0000 0.125224894
H   H89       1.0  0.70681  0.34072  0.36988  1.0000 0.1114920576
H   H90       1.0  0.70666  0.21318  0.41971  1.0000 0.1114920576
H   H91       1.0  0.35111  0.33327  0.12795  1.0000 0.1198933828
H   H92       1.0  0.25781  0.20861  0.07884  1.0000 0.1114920576
H   H93       1.0  0.93501  0.11478  0.14195  1.0000 0.1114920576
H   H94       1.0  0.02124  0.24753  0.18987  1.0000 0.1198933828
H   H95       1.0  0.02220  0.10004  0.04927  1.0000 0.1198933828
H   H96       1.0  0.93984  0.92428  0.05282  1.0000 0.1114920576
H   H97       1.0  0.82431  0.77774  0.08943  1.0000 0.1114920576
H   H98       1.0  0.83760  0.64370  0.13764  1.0000 0.1114920576
H   H99       1.0  0.18363  0.81934  0.18582  1.0000 0.1198933828
H   H100      1.0  0.17204  0.95195  0.13729  1.0000 0.1198933828
C   C1        1.0  0.21570  0.30570  0.72085  1.0000 0.6509018001
C   C2        1.0  0.16470  0.19250  0.70225  1.0000 -0.0389447565
C   C3        1.0  0.24740  0.09840  0.70584  1.0000 -0.1010568988
C   C4        1.0  0.20360  0.99510  0.68705  1.0000 -0.1599583979
C   C5        1.0  0.08130  0.98400  0.66343  1.0000 0.1198933828
C   C6        1.0  0.99830  0.07800  0.66051  1.0000 -0.1412920349
C   C7        1.0  0.03890  0.18050  0.68009  1.0000 -0.0928768626
C   C8        1.0  0.04090  0.87320  0.64293  1.0000 -0.1412920349
C   C9        1.0  0.99630  0.86000  0.60593  1.0000 -0.1487112429
C   C10       1.0  0.98460  0.95160  0.57782  1.0000 0.1198933828
C   C11       1.0  0.86390  0.95800  0.55416  1.0000 -0.1412920349
C   C12       1.0  0.84980  0.04770  0.52934  1.0000 -0.1060100563
C   C13       1.0  0.95610  0.13170  0.52701  1.0000 -0.0496239782
C   C14       1.0  0.08020  0.12280  0.54900  1.0000 -0.0928768626
C   C15       1.0  0.09470  0.03390  0.57394  1.0000 -0.1412920349
C   C16       1.0  0.93920  0.23380  0.50272  1.0000 0.5452204702
C   C17       1.0  0.23610  0.69760  0.77225  1.0000 0.6442709771
C   C18       1.0  0.28630  0.80420  0.79463  1.0000 -0.0389447565
C   C19       1.0  0.22550  0.90760  0.78713  1.0000 -0.1010568988
C   C20       1.0  0.26930  0.00590  0.80827  1.0000 -0.1599583979
C   C21       1.0  0.37270  0.00410  0.83850  1.0000 0.1198933828
C   C22       1.0  0.43550  0.90050  0.84493  1.0000 -0.1412920349
C   C23       1.0  0.39350  0.80260  0.82344  1.0000 -0.0928768626
C   C24       1.0  0.41310  0.11240  0.86021  1.0000 -0.1487112429
C   C25       1.0  0.46780  0.12820  0.89601  1.0000 -0.1412920349
C   C26       1.0  0.50100  0.04070  0.92484  1.0000 0.1198933828
C   C27       1.0  0.63190  0.04880  0.94499  1.0000 -0.1412920349
C   C28       1.0  0.67020  0.96620  0.97069  1.0000 -0.1010568988
C   C29       1.0  0.57700  0.87460  0.97752  1.0000 -0.0496239782
C   C30       1.0  0.44390  0.86930  0.95930  1.0000 -0.0928768626
C   C31       1.0  0.40640  0.95170  0.93331  1.0000 -0.1487112429
C   C32       1.0  0.61860  0.77780  0.00218  1.0000 0.5396666286
C   C33       1.0  0.71330  0.38430  0.68794  1.0000 0.6442709771
C   C34       1.0  0.65590  0.30340  0.65579  1.0000 -0.0302625297
C   C35       1.0  0.72780  0.29520  0.62303  1.0000 -0.1010568988
C   C36       1.0  0.67640  0.22190  0.59281  1.0000 -0.1487112429
C   C37       1.0  0.55520  0.15190  0.59618  1.0000 0.1198933828
C   C38       1.0  0.48450  0.16030  0.62939  1.0000 -0.1412920349
C   C39       1.0  0.53290  0.23670  0.65892  1.0000 -0.0928768626
C   C40       1.0  0.50290  0.07130  0.56407  1.0000 -0.1487112429
C   C41       1.0  0.46010  0.96130  0.56642  1.0000 -0.1487112429
C   C42       1.0  0.46300  0.88740  0.60026  1.0000 0.1198933828
C   C43       1.0  0.56450  0.90020  0.63100  1.0000 -0.1487112429
C   C44       1.0  0.56410  0.82430  0.66095  1.0000 -0.1010568988
C   C45       1.0  0.46350  0.73330  0.66108  1.0000 -0.0302625297
C   C46       1.0  0.36280  0.72070  0.63053  1.0000 -0.1010568988
C   C47       1.0  0.36310  0.79680  0.60082  1.0000 -0.1487112429
C   C48       1.0  0.46490  0.64730  0.69241  1.0000 0.5787506459
C   C49       1.0  0.74330  0.61910  0.80385  1.0000 0.6509018001
C   C50       1.0  0.80370  0.69860  0.83585  1.0000 -0.0302625297
C   C51       1.0  0.73390  0.71040  0.86926  1.0000 -0.1010568988
C   C52       1.0  0.78880  0.78550  0.89821  1.0000 -0.1487112429
C   C53       1.0  0.91180  0.85300  0.89435  1.0000 0.1198933828
C   C54       1.0  0.98110  0.84020  0.86110  1.0000 -0.1412920349
C   C55       1.0  0.92880  0.76230  0.83232  1.0000 -0.0928768626
C   C56       1.0  0.97070  0.93200  0.92599  1.0000 -0.1487112429
C   C57       1.0  0.01510  0.04280  0.92417  1.0000 -0.1487112429
C   C58       1.0  0.00430  0.12100  0.89177  1.0000 0.1114920576
C   C59       1.0  0.10220  0.21360  0.89099  1.0000 -0.1487112429
C   C60       1.0  0.09480  0.29340  0.86220  1.0000 -0.1010568988
C   C61       1.0  0.98860  0.28160  0.83308  1.0000 -0.0242638541
C   C62       1.0  0.88970  0.18930  0.83381  1.0000 -0.1010568988
C   C63       1.0  0.89660  0.11010  0.86264  1.0000 -0.1487112429
C   C64       1.0  0.98020  0.36860  0.80209  1.0000 0.5787506459
C   C65       1.0  0.78430  0.69430  0.27915  1.0000 0.6509018001
C   C66       1.0  0.83530  0.80750  0.29775  1.0000 -0.0389447565
C   C67       1.0  0.75260  0.90160  0.29416  1.0000 -0.1060100563
C   C68       1.0  0.79640  0.00490  0.31295  1.0000 -0.1599583979
C   C69       1.0  0.91870  0.01600  0.33657  1.0000 0.1198933828
C   C70       1.0  0.00170  0.92200  0.33949  1.0000 -0.1412920349
C   C71       1.0  0.96110  0.81950  0.31991  1.0000 -0.0928768626
C   C72       1.0  0.95910  0.12680  0.35707  1.0000 -0.1412920349
C   C73       1.0  0.00370  0.14000  0.39407  1.0000 -0.1487112429
C   C74       1.0  0.01540  0.04840  0.42218  1.0000 0.1198933828
C   C75       1.0  0.13610  0.04200  0.44584  1.0000 -0.1412920349
C   C76       1.0  0.15020  0.95230  0.47066  1.0000 -0.1060100563
C   C77       1.0  0.04390  0.86830  0.47299  1.0000 -0.0496239782
C   C78       1.0  0.91980  0.87720  0.45100  1.0000 -0.0928768626
C   C79       1.0  0.90530  0.96610  0.42606  1.0000 -0.1412920349
C   C80       1.0  0.06080  0.76620  0.49728  1.0000 0.5452204702
C   C81       1.0  0.76390  0.30240  0.22775  1.0000 0.6442709771
C   C82       1.0  0.71370  0.19580  0.20537  1.0000 -0.0389447565
C   C83       1.0  0.77450  0.09240  0.21287  1.0000 -0.1010568988
C   C84       1.0  0.73070  0.99410  0.19173  1.0000 -0.1599583979
C   C85       1.0  0.62730  0.99590  0.16150  1.0000 0.1198933828
C   C86       1.0  0.56450  0.09950  0.15507  1.0000 -0.1412920349
C   C87       1.0  0.60650  0.19740  0.17656  1.0000 -0.0928768626
C   C88       1.0  0.58690  0.88760  0.13979  1.0000 -0.1487112429
C   C89       1.0  0.53220  0.87180  0.10399  1.0000 -0.1412920349
C   C90       1.0  0.49900  0.95930  0.07516  1.0000 0.1198933828
C   C91       1.0  0.36810  0.95120  0.05501  1.0000 -0.1412920349
C   C92       1.0  0.32980  0.03380  0.02931  1.0000 -0.1010568988
C   C93       1.0  0.42300  0.12540  0.02248  1.0000 -0.0496239782
C   C94       1.0  0.55610  0.13070  0.04070  1.0000 -0.0928768626
C   C95       1.0  0.59360  0.04830  0.06669  1.0000 -0.1487112429
C   C96       1.0  0.38140  0.22220  0.99782  1.0000 0.5396666286
C   C97       1.0  0.28670  0.61570  0.31206  1.0000 0.6442709771
C   C98       1.0  0.34410  0.69660  0.34421  1.0000 -0.0302625297
C   C99       1.0  0.27220  0.70480  0.37697  1.0000 -0.1010568988
C   C100      1.0  0.32360  0.77810  0.40719  1.0000 -0.1487112429
C   C101      1.0  0.44480  0.84810  0.40382  1.0000 0.1198933828
C   C102      1.0  0.51550  0.83970  0.37061  1.0000 -0.1412920349
C   C103      1.0  0.46710  0.76330  0.34108  1.0000 -0.0928768626
C   C104      1.0  0.49710  0.92870  0.43593  1.0000 -0.1487112429
C   C105      1.0  0.53990  0.03870  0.43358  1.0000 -0.1487112429
C   C106      1.0  0.53700  0.11260  0.39974  1.0000 0.1198933828
C   C107      1.0  0.43550  0.09980  0.36900  1.0000 -0.1487112429
C   C108      1.0  0.43590  0.17570  0.33905  1.0000 -0.1010568988
C   C109      1.0  0.53650  0.26670  0.33892  1.0000 -0.0302625297
C   C110      1.0  0.63720  0.27930  0.36947  1.0000 -0.1010568988
C   C111      1.0  0.63690  0.20320  0.39918  1.0000 -0.1487112429
C   C112      1.0  0.53510  0.35270  0.30759  1.0000 0.5787506459
C   C113      1.0  0.25670  0.38090  0.19615  1.0000 0.6509018001
C   C114      1.0  0.19630  0.30140  0.16415  1.0000 -0.0302625297
C   C115      1.0  0.26610  0.28960  0.13074  1.0000 -0.1010568988
C   C116      1.0  0.21120  0.21450  0.10179  1.0000 -0.1487112429
C   C117      1.0  0.08820  0.14700  0.10565  1.0000 0.1198933828
C   C118      1.0  0.01890  0.15980  0.13890  1.0000 -0.1412920349
C   C119      1.0  0.07120  0.23770  0.16768  1.0000 -0.0928768626
C   C120      1.0  0.02930  0.06800  0.07401  1.0000 -0.1487112429
C   C121      1.0  0.98490  0.95720  0.07583  1.0000 -0.1487112429
C   C122      1.0  0.99570  0.87900  0.10823  1.0000 0.1114920576
C   C123      1.0  0.89780  0.78640  0.10901  1.0000 -0.1487112429
C   C124      1.0  0.90520  0.70660  0.13780  1.0000 -0.1010568988
C   C125      1.0  0.01140  0.71840  0.16692  1.0000 -0.0242638541
C   C126      1.0  0.11030  0.81070  0.16619  1.0000 -0.1010568988
C   C127      1.0  0.10340  0.88990  0.13736  1.0000 -0.1487112429
C   C128      1.0  0.01980  0.63140  0.19791  1.0000 0.5787506459
O   O1        1.0  0.34291  0.31933  0.73046  1.0000 -0.6613260749
O   O2        1.0  0.13094  0.38193  0.72448  1.0000 -0.6870528701
O   O3        1.0  0.81618  0.59957  0.77649  1.0000 -0.6870528701
O   O4        1.0  0.11370  0.69164  0.75690  1.0000 -0.648115212
O   O5        1.0  0.31670  0.61717  0.77060  1.0000 -0.7042579594
O   O6        1.0  0.63188  0.42259  0.71056  1.0000 -0.6801382842
O   O7        1.0  0.83670  0.65839  0.70016  1.0000 -0.7508409264
O   O8        1.0  0.09010  0.58100  0.67921  1.0000 -0.7598574254
O   O9        1.0  0.60295  0.33032  0.78491  1.0000 -0.7657042387
O   O10       1.0  0.35110  0.41346  0.80860  1.0000 -0.7598574254
O   O11       1.0  0.84278  0.40895  0.68977  1.0000 -0.6801382842
O   O12       1.0  0.61935  0.57839  0.80574  1.0000 -0.6732762995
O   O13       1.0  0.55895  0.65954  0.71955  1.0000 -0.6230799101
O   O14       1.0  0.37314  0.56483  0.69116  1.0000 -0.6230799101
O   O15       1.0  0.03460  0.30090  0.49632  1.0000 -0.4777557942
O   O16       1.0  0.81020  0.24530  0.48934  1.0000 -0.4687865171
O   O17       1.0  0.88415  0.35440  0.77528  1.0000 -0.6377665641
O   O18       1.0  0.06800  0.45350  0.80286  1.0000 -0.6230799101
O   O19       1.0  0.75610  0.77535  0.00793  1.0000 -0.4687865171
O   O20       1.0  0.53730  0.70780  0.01426  1.0000 -0.4687865171
O   O21       1.0  0.65709  0.68067  0.26954  1.0000 -0.6613260749
O   O22       1.0  0.86906  0.61807  0.27552  1.0000 -0.6870528701
O   O23       1.0  0.18382  0.40043  0.22351  1.0000 -0.6870528701
O   O24       1.0  0.88630  0.30836  0.24310  1.0000 -0.648115212
O   O25       1.0  0.68330  0.38283  0.22940  1.0000 -0.7042579594
O   O26       1.0  0.36812  0.57741  0.28944  1.0000 -0.6801382842
O   O27       1.0  0.16330  0.34161  0.29984  1.0000 -0.7508409264
O   O28       1.0  0.90990  0.41900  0.32079  1.0000 -0.7598574254
O   O29       1.0  0.39705  0.66968  0.21509  1.0000 -0.7657042387
O   O30       1.0  0.64890  0.58654  0.19140  1.0000 -0.7598574254
O   O31       1.0  0.15722  0.59105  0.31023  1.0000 -0.6801382842
O   O32       1.0  0.38065  0.42161  0.19426  1.0000 -0.6732762995
O   O33       1.0  0.44105  0.34046  0.28045  1.0000 -0.6230799101
O   O34       1.0  0.62686  0.43517  0.30884  1.0000 -0.6230799101
O   O35       1.0  0.96540  0.69910  0.50368  1.0000 -0.4777557942
O   O36       1.0  0.18980  0.75470  0.51066  1.0000 -0.4687865171
O   O37       1.0  0.11585  0.64560  0.22472  1.0000 -0.6377665641
O   O38       1.0  0.93200  0.54650  0.19714  1.0000 -0.6230799101
O   O39       1.0  0.24390  0.22465  0.99207  1.0000 -0.4687865171
O   O40       1.0  0.46270  0.29220  0.98574  1.0000 -0.4687865171
