# DDEC6 charges by PACMAN v1.1 (https://github.com/mtap-research/PACMAN-charge/)
data_2023[Co][nan]3[FSR]5
_chemical_formula_sum              "Co8 H112 C140 N16 O32"
_cell_length_a       10.9616
_cell_length_b       19.6278
_cell_length_c       20.7952
_cell_angle_alpha    90
_cell_angle_beta     109.821
_cell_angle_gamma    90

_symmetry_space_group_name_H-M    "P 1"
_symmetry_Int_Tables_number       1

loop_
  _symmetry_equiv_pos_as_xyz
  'x, y, z'

loop_
  _atom_site_type_symbol
  _atom_site_label
  _atom_site_symmetry_multiplicity
  _atom_site_fract_x
  _atom_site_fract_y
  _atom_site_fract_z
  _atom_site_occupancy
  _atom_site_charge
Co  Co1       1.0  0.35341  0.50825  0.50086  1.0000 1.0648613516
Co  Co2       1.0  0.64659  0.00825  0.99914  1.0000 1.0657272879
Co  Co3       1.0  0.64659  0.49175  0.49914  1.0000 1.0657272879
Co  Co4       1.0  0.35341  0.99175  0.00086  1.0000 1.0648613516
Co  Co5       1.0  0.40509  0.59845  0.36921  1.0000 1.007823104
Co  Co6       1.0  0.59491  0.09845  0.13079  1.0000 1.007823104
Co  Co7       1.0  0.59491  0.40155  0.63079  1.0000 1.007823104
Co  Co8       1.0  0.40509  0.90155  0.86921  1.0000 1.007823104
H   H1        1.0  0.38440  0.64000  0.24840  1.0000 0.3006873447
H   H2        1.0  0.61560  0.14000  0.25160  1.0000 0.3006873447
H   H3        1.0  0.61560  0.36000  0.75160  1.0000 0.3006873447
H   H4        1.0  0.38440  0.86000  0.74840  1.0000 0.3006873447
H   H5        1.0  0.26200  0.62560  0.24520  1.0000 0.32046297
H   H6        1.0  0.73800  0.12560  0.25480  1.0000 0.32046297
H   H7        1.0  0.73800  0.37440  0.75480  1.0000 0.32046297
H   H8        1.0  0.26200  0.87440  0.74520  1.0000 0.32046297
H   H9        1.0  0.05220  0.44090  0.57390  1.0000 0.1409351583
H   H10       1.0  0.94780  0.94090  0.92610  1.0000 0.1409351583
H   H11       1.0  0.94780  0.55910  0.42610  1.0000 0.1409351583
H   H12       1.0  0.05220  0.05910  0.07390  1.0000 0.1409351583
H   H13       1.0  0.31980  0.30960  0.68700  1.0000 0.1219049515
H   H14       1.0  0.68020  0.80960  0.81300  1.0000 0.1219049515
H   H15       1.0  0.68020  0.69040  0.31300  1.0000 0.1219049515
H   H16       1.0  0.31980  0.19040  0.18700  1.0000 0.1219049515
H   H17       1.0  0.94690  0.28560  0.66990  1.0000 0.1294564288
H   H18       1.0  0.05310  0.78560  0.83010  1.0000 0.1294564288
H   H19       1.0  0.05310  0.71440  0.33010  1.0000 0.1294564288
H   H20       1.0  0.94690  0.21440  0.16990  1.0000 0.1294564288
H   H21       1.0  0.23290  0.06260  0.72050  1.0000 0.1219049515
H   H22       1.0  0.76710  0.56260  0.77950  1.0000 0.1219049515
H   H23       1.0  0.76710  0.93740  0.27950  1.0000 0.1219049515
H   H24       1.0  0.23290  0.43740  0.22050  1.0000 0.1219049515
H   H25       1.0  0.25180  0.17310  0.88470  1.0000 0.1219049515
H   H26       1.0  0.74820  0.67310  0.61530  1.0000 0.1219049515
H   H27       1.0  0.74820  0.82690  0.11530  1.0000 0.1219049515
H   H28       1.0  0.25180  0.32690  0.38470  1.0000 0.1219049515
H   H29       1.0  0.60730  0.33680  0.48560  1.0000 0.0920985322
H   H30       1.0  0.39270  0.83680  0.01440  1.0000 0.0920985322
H   H31       1.0  0.39270  0.66320  0.51440  1.0000 0.0920985322
H   H32       1.0  0.60730  0.16320  0.98560  1.0000 0.0920985322
H   H33       1.0  0.39790  0.76800  0.34880  1.0000 0.1219049515
H   H34       1.0  0.60210  0.26800  0.15120  1.0000 0.1219049515
H   H35       1.0  0.60210  0.23200  0.65120  1.0000 0.1219049515
H   H36       1.0  0.39790  0.73200  0.84880  1.0000 0.1219049515
H   H37       1.0  0.58660  0.44850  0.32710  1.0000 0.1294564288
H   H38       1.0  0.41340  0.94850  0.17290  1.0000 0.1294564288
H   H39       1.0  0.41340  0.55150  0.67290  1.0000 0.1294564288
H   H40       1.0  0.58660  0.05150  0.82710  1.0000 0.1294564288
H   H41       1.0  0.56900  0.32950  0.29000  1.0000 0.1219049515
H   H42       1.0  0.43100  0.82950  0.21000  1.0000 0.1219049515
H   H43       1.0  0.43100  0.67050  0.71000  1.0000 0.1219049515
H   H44       1.0  0.56900  0.17050  0.79000  1.0000 0.1219049515
H   H45       1.0  0.64650  0.66280  0.49420  1.0000 0.1294564288
H   H46       1.0  0.35350  0.16280  0.00580  1.0000 0.1294564288
H   H47       1.0  0.35350  0.33720  0.50580  1.0000 0.1294564288
H   H48       1.0  0.64650  0.83720  0.99420  1.0000 0.1294564288
H   H49       1.0  0.71650  0.78140  0.51020  1.0000 0.1294564288
H   H50       1.0  0.28350  0.28140  0.98980  1.0000 0.1294564288
H   H51       1.0  0.28350  0.21860  0.48980  1.0000 0.1294564288
H   H52       1.0  0.71650  0.71860  0.01020  1.0000 0.1294564288
H   H53       1.0  0.46750  0.21850  0.29600  1.0000 0.1294564288
H   H54       1.0  0.53250  0.71850  0.20400  1.0000 0.1294564288
H   H55       1.0  0.53250  0.78150  0.70400  1.0000 0.1294564288
H   H56       1.0  0.46750  0.28150  0.79600  1.0000 0.1294564288
H   H57       1.0  0.45910  0.10140  0.30180  1.0000 0.1219049515
H   H58       1.0  0.54090  0.60140  0.19820  1.0000 0.1219049515
H   H59       1.0  0.54090  0.89860  0.69820  1.0000 0.1219049515
H   H60       1.0  0.45910  0.39860  0.80180  1.0000 0.1219049515
H   H61       1.0  0.69400  0.22540  0.49210  1.0000 0.1409351583
H   H62       1.0  0.30600  0.72540  0.00790  1.0000 0.1409351583
H   H63       1.0  0.30600  0.77460  0.50790  1.0000 0.1409351583
H   H64       1.0  0.69400  0.27460  0.99210  1.0000 0.1409351583
H   H65       1.0  0.19250  0.18770  0.60480  1.0000 0.1219049515
H   H66       1.0  0.80750  0.68770  0.89520  1.0000 0.1219049515
H   H67       1.0  0.80750  0.81230  0.39520  1.0000 0.1219049515
H   H68       1.0  0.19250  0.31230  0.10480  1.0000 0.1219049515
H   H69       1.0  0.17060  0.10930  0.61060  1.0000 0.1294564288
H   H70       1.0  0.82940  0.60930  0.88940  1.0000 0.1294564288
H   H71       1.0  0.82940  0.89070  0.38940  1.0000 0.1294564288
H   H72       1.0  0.17060  0.39070  0.11060  1.0000 0.1294564288
H   H73       1.0  0.05540  0.16040  0.60010  1.0000 0.1409351583
H   H74       1.0  0.94460  0.66040  0.89990  1.0000 0.1409351583
H   H75       1.0  0.94460  0.83960  0.39990  1.0000 0.1409351583
H   H76       1.0  0.05540  0.33960  0.10010  1.0000 0.1409351583
H   H77       1.0  0.09410  0.30380  0.82250  1.0000 0.1409351583
H   H78       1.0  0.90590  0.80380  0.67750  1.0000 0.1409351583
H   H79       1.0  0.90590  0.69620  0.17750  1.0000 0.1409351583
H   H80       1.0  0.09410  0.19620  0.32250  1.0000 0.1409351583
H   H81       1.0  0.23020  0.29330  0.87890  1.0000 0.1219049515
H   H82       1.0  0.76980  0.79330  0.62110  1.0000 0.1219049515
H   H83       1.0  0.76980  0.70670  0.12110  1.0000 0.1219049515
H   H84       1.0  0.23020  0.20670  0.37890  1.0000 0.1219049515
H   H85       1.0  0.21920  0.33150  0.81090  1.0000 0.1294564288
H   H86       1.0  0.78080  0.83150  0.68910  1.0000 0.1294564288
H   H87       1.0  0.78080  0.66850  0.18910  1.0000 0.1294564288
H   H88       1.0  0.21920  0.16850  0.31090  1.0000 0.1294564288
H   H89       1.0  0.68700  0.10800  0.49720  1.0000 0.1112352833
H   H90       1.0  0.31300  0.60800  0.00280  1.0000 0.1112352833
H   H91       1.0  0.31300  0.89200  0.50280  1.0000 0.1112352833
H   H92       1.0  0.68700  0.39200  0.99720  1.0000 0.1112352833
H   H93       1.0  0.49680  0.99370  0.30610  1.0000 0.1294564288
H   H94       1.0  0.50320  0.49370  0.19390  1.0000 0.1294564288
H   H95       1.0  0.50320  0.00630  0.69390  1.0000 0.1294564288
H   H96       1.0  0.49680  0.50630  0.80610  1.0000 0.1294564288
H   H97       1.0  0.63940  0.89360  0.51640  1.0000 0.1294564288
H   H98       1.0  0.36060  0.39360  0.98360  1.0000 0.1294564288
H   H99       1.0  0.36060  0.10640  0.48360  1.0000 0.1294564288
H   H100      1.0  0.63940  0.60640  0.01640  1.0000 0.1294564288
H   H101      1.0  0.48950  0.87700  0.31630  1.0000 0.1294564288
H   H102      1.0  0.51050  0.37700  0.18370  1.0000 0.1294564288
H   H103      1.0  0.51050  0.12300  0.68370  1.0000 0.1294564288
H   H104      1.0  0.48950  0.62300  0.81630  1.0000 0.1294564288
H   H105      1.0  0.64920  0.00990  0.50610  1.0000 0.1112352833
H   H106      1.0  0.35080  0.50990  0.99390  1.0000 0.1112352833
H   H107      1.0  0.35080  0.99010  0.49390  1.0000 0.1112352833
H   H108      1.0  0.64920  0.49010  0.00610  1.0000 0.1112352833
H   H109      1.0  0.49100  0.60100  0.49100  1.0000 0.32046297
H   H110      1.0  0.50900  0.10100  0.00900  1.0000 0.32046297
H   H111      1.0  0.50900  0.39900  0.50900  1.0000 0.32046297
H   H112      1.0  0.49100  0.89900  0.99100  1.0000 0.32046297
C   C1        1.0  0.83997  0.39257  0.59247  1.0000 0.5754795614
C   C2        1.0  0.16003  0.89257  0.90753  1.0000 0.5749882999
C   C3        1.0  0.16003  0.60743  0.40753  1.0000 0.5749882999
C   C4        1.0  0.83997  0.10743  0.09247  1.0000 0.5749882999
C   C5        1.0  0.20220  0.38222  0.62880  1.0000 -0.0152766821
C   C6        1.0  0.79780  0.88222  0.87120  1.0000 -0.0152766821
C   C7        1.0  0.79780  0.61778  0.37120  1.0000 -0.0152766821
C   C8        1.0  0.20220  0.11778  0.12880  1.0000 -0.0152766821
C   C9        1.0  0.30622  0.42039  0.61072  1.0000 0.5749882999
C   C10       1.0  0.69378  0.92039  0.88928  1.0000 0.5749882999
C   C11       1.0  0.69378  0.57961  0.38928  1.0000 0.5754795614
C   C12       1.0  0.30622  0.07961  0.11072  1.0000 0.5749882999
C   C13       1.0  0.07422  0.40300  0.60242  1.0000 -0.1400840991
C   C14       1.0  0.92578  0.90300  0.89758  1.0000 -0.1400840991
C   C15       1.0  0.92578  0.59700  0.39758  1.0000 -0.1400840991
C   C16       1.0  0.07422  0.09700  0.10242  1.0000 -0.1400840991
C   C17       1.0  0.23397  0.32381  0.66957  1.0000 -0.1685349904
C   C18       1.0  0.76603  0.82381  0.83043  1.0000 -0.1685349904
C   C19       1.0  0.76603  0.67619  0.33043  1.0000 -0.1685349904
C   C20       1.0  0.23397  0.17619  0.16957  1.0000 -0.1685349904
C   C21       1.0  0.29541  0.04690  0.85581  1.0000 0.5917317215
C   C22       1.0  0.70459  0.54690  0.64419  1.0000 0.5917317215
C   C23       1.0  0.70459  0.95310  0.14419  1.0000 0.5917317215
C   C24       1.0  0.29541  0.45310  0.35581  1.0000 0.5917317215
C   C25       1.0  0.13857  0.28668  0.68437  1.0000 0.0920985322
C   C26       1.0  0.86143  0.78668  0.81563  1.0000 0.0920985322
C   C27       1.0  0.86143  0.71332  0.31563  1.0000 0.0920985322
C   C28       1.0  0.13857  0.21332  0.18437  1.0000 0.0920985322
C   C29       1.0  0.97821  0.36749  0.61831  1.0000 -0.0119290592
C   C30       1.0  0.02179  0.86749  0.88169  1.0000 -0.0119290592
C   C31       1.0  0.02179  0.63251  0.38169  1.0000 -0.0119290592
C   C32       1.0  0.97821  0.13251  0.11831  1.0000 -0.0119290592
C   C33       1.0  0.25093  0.10851  0.80973  1.0000 -0.0119290592
C   C34       1.0  0.74907  0.60851  0.69027  1.0000 -0.0119290592
C   C35       1.0  0.74907  0.89149  0.19027  1.0000 -0.0119290592
C   C36       1.0  0.25093  0.39149  0.30973  1.0000 -0.0119290592
C   C37       1.0  0.01098  0.30935  0.65928  1.0000 -0.1638520118
C   C38       1.0  0.98902  0.80935  0.84072  1.0000 -0.1638520118
C   C39       1.0  0.98902  0.69065  0.34072  1.0000 -0.1638520118
C   C40       1.0  0.01098  0.19065  0.15928  1.0000 -0.1638520118
C   C41       1.0  0.17409  0.22393  0.72739  1.0000 -0.0614135228
C   C42       1.0  0.82591  0.72393  0.77261  1.0000 -0.0614135228
C   C43       1.0  0.82591  0.77607  0.27261  1.0000 -0.0614135228
C   C44       1.0  0.17409  0.27607  0.22739  1.0000 -0.0614135228
C   C45       1.0  0.22378  0.10419  0.73978  1.0000 -0.1990513337
C   C46       1.0  0.77622  0.60419  0.76022  1.0000 -0.1990513337
C   C47       1.0  0.77622  0.89581  0.26022  1.0000 -0.1990513337
C   C48       1.0  0.22378  0.39581  0.23978  1.0000 -0.1990513337
C   C49       1.0  0.23631  0.17044  0.83791  1.0000 -0.1990513337
C   C50       1.0  0.76369  0.67044  0.66209  1.0000 -0.1990513337
C   C51       1.0  0.76369  0.82956  0.16209  1.0000 -0.1990513337
C   C52       1.0  0.23631  0.32956  0.33791  1.0000 -0.1990513337
C   C53       1.0  0.18321  0.16086  0.69781  1.0000 0.1294564288
C   C54       1.0  0.81679  0.66086  0.80219  1.0000 0.1294564288
C   C55       1.0  0.81679  0.83914  0.30219  1.0000 0.1294564288
C   C56       1.0  0.18321  0.33914  0.19781  1.0000 0.1294564288
C   C57       1.0  0.59987  0.34999  0.44147  1.0000 0.1002457551
C   C58       1.0  0.40013  0.84999  0.05853  1.0000 0.1002457551
C   C59       1.0  0.40013  0.65001  0.55853  1.0000 0.1002457551
C   C60       1.0  0.59987  0.15001  0.94147  1.0000 0.1002457551
C   C61       1.0  0.46780  0.75656  0.38740  1.0000 0.1112352833
C   C62       1.0  0.53220  0.25656  0.11260  1.0000 0.1112352833
C   C63       1.0  0.53220  0.24344  0.61260  1.0000 0.1112352833
C   C64       1.0  0.46780  0.74344  0.88740  1.0000 0.1112352833
C   C65       1.0  0.58151  0.23387  0.39331  1.0000 0.1580679956
C   C66       1.0  0.41849  0.73387  0.10669  1.0000 0.1580679956
C   C67       1.0  0.41849  0.76613  0.60669  1.0000 0.1580679956
C   C68       1.0  0.58151  0.26613  0.89331  1.0000 0.1580679956
C   C69       1.0  0.19919  0.22883  0.79829  1.0000 0.1409351583
C   C70       1.0  0.80081  0.72883  0.70171  1.0000 0.1409351583
C   C71       1.0  0.80081  0.77117  0.20171  1.0000 0.1409351583
C   C72       1.0  0.19919  0.27117  0.29829  1.0000 0.1409351583
C   C73       1.0  0.58851  0.41088  0.35461  1.0000 -0.0012676919
C   C74       1.0  0.41149  0.91088  0.14539  1.0000 -0.0012676919
C   C75       1.0  0.41149  0.58912  0.64539  1.0000 -0.0012676919
C   C76       1.0  0.58851  0.08912  0.85461  1.0000 -0.0012676919
C   C77       1.0  0.57880  0.34515  0.33370  1.0000 -0.1096102009
C   C78       1.0  0.42120  0.84515  0.16630  1.0000 -0.1096102009
C   C79       1.0  0.42120  0.65485  0.66630  1.0000 -0.1096102009
C   C80       1.0  0.57880  0.15485  0.83370  1.0000 -0.1096102009
C   C81       1.0  0.55630  0.87430  0.41800  1.0000 0.1468166429
C   C82       1.0  0.44370  0.37430  0.08200  1.0000 0.1468166429
C   C83       1.0  0.44370  0.12570  0.58200  1.0000 0.1468166429
C   C84       1.0  0.55630  0.62570  0.91800  1.0000 0.1468166429
C   C85       1.0  0.60460  0.69914  0.46680  1.0000 -0.0414538459
C   C86       1.0  0.39540  0.19914  0.03320  1.0000 -0.0414538459
C   C87       1.0  0.39540  0.30086  0.53320  1.0000 -0.0414538459
C   C88       1.0  0.60460  0.80086  0.96680  1.0000 -0.0414538459
C   C89       1.0  0.57270  0.09135  0.39940  1.0000 0.0647312849
C   C90       1.0  0.42730  0.59135  0.10060  1.0000 0.0647312849
C   C91       1.0  0.42730  0.90865  0.60060  1.0000 0.0647312849
C   C92       1.0  0.57270  0.40865  0.89940  1.0000 0.0647312849
C   C93       1.0  0.64340  0.76470  0.47620  1.0000 -0.1096102009
C   C94       1.0  0.35660  0.26470  0.02380  1.0000 -0.1096102009
C   C95       1.0  0.35660  0.23530  0.52380  1.0000 -0.1096102009
C   C96       1.0  0.64340  0.73530  0.97620  1.0000 -0.1096102009
C   C97       1.0  0.56690  0.01590  0.40450  1.0000 0.0647312849
C   C98       1.0  0.43310  0.51590  0.09550  1.0000 0.0647312849
C   C99       1.0  0.43310  0.98410  0.59550  1.0000 0.0647312849
C   C100      1.0  0.56690  0.48410  0.90450  1.0000 0.0647312849
C   C101      1.0  0.51180  0.19639  0.33680  1.0000 -0.1782566005
C   C102      1.0  0.48820  0.69639  0.16320  1.0000 -0.1782566005
C   C103      1.0  0.48820  0.80361  0.66320  1.0000 -0.1782566005
C   C104      1.0  0.51180  0.30361  0.83680  1.0000 -0.1782566005
C   C105      1.0  0.50730  0.12590  0.34030  1.0000 -0.1483966094
C   C106      1.0  0.49270  0.62590  0.15970  1.0000 -0.1483966094
C   C107      1.0  0.49270  0.87410  0.65970  1.0000 -0.1483966094
C   C108      1.0  0.50730  0.37410  0.84030  1.0000 -0.1483966094
C   C109      1.0  0.64700  0.20070  0.45350  1.0000 -0.1782566005
C   C110      1.0  0.35300  0.70070  0.04650  1.0000 -0.1782566005
C   C111      1.0  0.35300  0.79930  0.54650  1.0000 -0.1782566005
C   C112      1.0  0.64700  0.29930  0.95350  1.0000 -0.1782566005
C   C113      1.0  0.14720  0.15390  0.62140  1.0000 -0.4444732871
C   C114      1.0  0.85280  0.65390  0.87860  1.0000 -0.4444732871
C   C115      1.0  0.85280  0.84610  0.37860  1.0000 -0.4444732871
C   C116      1.0  0.14720  0.34610  0.12140  1.0000 -0.4444732871
C   C117      1.0  0.18440  0.29540  0.83060  1.0000 -0.4501416143
C   C118      1.0  0.81560  0.79540  0.66940  1.0000 -0.4501416143
C   C119      1.0  0.81560  0.70460  0.16940  1.0000 -0.4501416143
C   C120      1.0  0.18440  0.20460  0.33060  1.0000 -0.4501416143
C   C121      1.0  0.64240  0.13010  0.45630  1.0000 -0.1400840991
C   C122      1.0  0.35760  0.63010  0.04370  1.0000 -0.1400840991
C   C123      1.0  0.35760  0.86990  0.54370  1.0000 -0.1400840991
C   C124      1.0  0.64240  0.36990  0.95630  1.0000 -0.1400840991
C   C125      1.0  0.52390  0.97440  0.34950  1.0000 -0.1285072845
C   C126      1.0  0.47610  0.47440  0.15050  1.0000 -0.1285072845
C   C127      1.0  0.47610  0.02560  0.65050  1.0000 -0.1285072845
C   C128      1.0  0.52390  0.52560  0.84950  1.0000 -0.1285072845
C   C129      1.0  0.60750  0.91350  0.47340  1.0000 -0.1685349904
C   C130      1.0  0.39250  0.41350  0.02660  1.0000 -0.1685349904
C   C131      1.0  0.39250  0.08650  0.52660  1.0000 -0.1685349904
C   C132      1.0  0.60750  0.58650  0.97340  1.0000 -0.1685349904
C   C133      1.0  0.51870  0.90390  0.35530  1.0000 -0.1782566005
C   C134      1.0  0.48130  0.40390  0.14470  1.0000 -0.1782566005
C   C135      1.0  0.48130  0.09610  0.64470  1.0000 -0.1782566005
C   C136      1.0  0.51870  0.59610  0.85530  1.0000 -0.1782566005
C   C137      1.0  0.61300  0.98370  0.46690  1.0000 -0.1483966094
C   C138      1.0  0.38700  0.48370  0.03310  1.0000 -0.1483966094
C   C139      1.0  0.38700  0.01630  0.53310  1.0000 -0.1483966094
C   C140      1.0  0.61300  0.51630  0.96690  1.0000 -0.1483966094
N   N1        1.0  0.60161  0.41371  0.42241  1.0000 -0.3069797624
N   N2        1.0  0.39839  0.91371  0.07759  1.0000 -0.3069797624
N   N3        1.0  0.39839  0.58629  0.57759  1.0000 -0.3069797624
N   N4        1.0  0.60161  0.08629  0.92241  1.0000 -0.3069797624
N   N5        1.0  0.58625  0.30604  0.38975  1.0000 0.0037829303
N   N6        1.0  0.41375  0.80604  0.11025  1.0000 0.0037829303
N   N7        1.0  0.41375  0.69396  0.61025  1.0000 0.0037829303
N   N8        1.0  0.58625  0.19396  0.88975  1.0000 0.0037829303
N   N9        1.0  0.49414  0.69433  0.41084  1.0000 -0.3069797624
N   N10       1.0  0.50586  0.19433  0.08916  1.0000 -0.3069797624
N   N11       1.0  0.50586  0.30567  0.58916  1.0000 -0.3069797624
N   N12       1.0  0.49414  0.80567  0.91084  1.0000 -0.3069797624
N   N13       1.0  0.55456  0.80207  0.42606  1.0000 -0.0012676919
N   N14       1.0  0.44544  0.30207  0.07394  1.0000 -0.0012676919
N   N15       1.0  0.44544  0.19793  0.57394  1.0000 -0.0012676919
N   N16       1.0  0.55456  0.69793  0.92606  1.0000 -0.0012676919
O   O1        1.0  0.48199  0.55625  0.46286  1.0000 -0.8903712686
O   O2        1.0  0.51801  0.05625  0.03714  1.0000 -0.8903712686
O   O3        1.0  0.51801  0.44375  0.53714  1.0000 -0.8903712686
O   O4        1.0  0.48199  0.94375  0.96286  1.0000 -0.8903712686
O   O5        1.0  0.30242  0.05556  0.91662  1.0000 -0.5470025
O   O6        1.0  0.69758  0.55556  0.58338  1.0000 -0.5470025
O   O7        1.0  0.69758  0.94444  0.08338  1.0000 -0.5470025
O   O8        1.0  0.30242  0.44444  0.41662  1.0000 -0.5470025
O   O9        1.0  0.26755  0.45164  0.55525  1.0000 -0.5334695208
O   O10       1.0  0.73245  0.95164  0.94475  1.0000 -0.5334695208
O   O11       1.0  0.73245  0.54836  0.44475  1.0000 -0.5334695208
O   O12       1.0  0.26755  0.04836  0.05525  1.0000 -0.5334695208
O   O13       1.0  0.42077  0.41733  0.65247  1.0000 -0.5914297458
O   O14       1.0  0.57923  0.91733  0.84753  1.0000 -0.5914297458
O   O15       1.0  0.57923  0.58267  0.34753  1.0000 -0.5914297458
O   O16       1.0  0.42077  0.08267  0.15247  1.0000 -0.5914297458
O   O17       1.0  0.32113  0.99354  0.82913  1.0000 -0.5785447118
O   O18       1.0  0.67887  0.49354  0.67087  1.0000 -0.5785447118
O   O19       1.0  0.67887  0.00646  0.17087  1.0000 -0.5785447118
O   O20       1.0  0.32113  0.50646  0.32913  1.0000 -0.5785447118
O   O21       1.0  0.76290  0.36560  0.61790  1.0000 -0.5785447118
O   O22       1.0  0.23710  0.86560  0.88210  1.0000 -0.5785447118
O   O23       1.0  0.23710  0.63440  0.38210  1.0000 -0.5785447118
O   O24       1.0  0.76290  0.13440  0.11790  1.0000 -0.5785447118
O   O25       1.0  0.81353  0.43741  0.54753  1.0000 -0.5353160557
O   O26       1.0  0.18647  0.93741  0.95247  1.0000 -0.5334695208
O   O27       1.0  0.18647  0.56259  0.45247  1.0000 -0.5334695208
O   O28       1.0  0.81353  0.06259  0.04753  1.0000 -0.5334695208
O   O29       1.0  0.33092  0.64615  0.26982  1.0000 -0.6520104315
O   O30       1.0  0.66908  0.14615  0.23018  1.0000 -0.6520104315
O   O31       1.0  0.66908  0.35385  0.73018  1.0000 -0.6520104315
O   O32       1.0  0.33092  0.85385  0.76982  1.0000 -0.6520104315
