# DDEC6 charges by PACMAN v1.1 (https://github.com/mtap-research/PACMAN-charge/)
data_2023[Co][sql]2[FSR]7
_chemical_formula_sum              "Co2 H36 C40 N8 O20"
_cell_length_a       11.5749
_cell_length_b       11.5749
_cell_length_c       13.6378
_cell_angle_alpha    79.1629
_cell_angle_beta     100.837
_cell_angle_gamma    115.694

_symmetry_space_group_name_H-M    "P 1"
_symmetry_Int_Tables_number       1

loop_
  _symmetry_equiv_pos_as_xyz
  'x, y, z'

loop_
  _atom_site_type_symbol
  _atom_site_label
  _atom_site_symmetry_multiplicity
  _atom_site_fract_x
  _atom_site_fract_y
  _atom_site_fract_z
  _atom_site_occupancy
  _atom_site_charge
Co  Co1       1.0  0.50000  0.00000  0.00000  1.0000 0.8669349511
Co  Co2       1.0  0.00000  0.50000  0.50000  1.0000 0.8669349511
H   H1        1.0  0.57300  0.23303  0.02526  1.0000 0.3628779349
H   H2        1.0  0.42701  0.76697  0.97474  1.0000 0.3628779349
H   H3        1.0  0.68077  0.22263  0.00098  1.0000 0.3628779349
H   H4        1.0  0.31923  0.77737  0.99902  1.0000 0.3628779349
H   H5        1.0  0.79839  0.90599  0.90985  1.0000 0.1439645697
H   H6        1.0  0.20161  0.09401  0.09015  1.0000 0.1439645697
H   H7        1.0  0.70270  0.06796  0.36234  1.0000 0.1320384254
H   H8        1.0  0.29730  0.93204  0.63766  1.0000 0.1320384254
H   H9        1.0  0.69354  0.08590  0.19219  1.0000 0.096828859
H   H10       1.0  0.30646  0.91410  0.80781  1.0000 0.096828859
H   H11       1.0  0.45299  0.86351  0.50509  1.0000 0.1152119522
H   H12       1.0  0.54701  0.13649  0.49491  1.0000 0.1152119522
H   H13       1.0  0.60044  0.95652  0.51547  1.0000 0.1104434838
H   H14       1.0  0.39956  0.04348  0.48453  1.0000 0.1104434838
H   H15       1.0  0.32061  0.87685  0.33544  1.0000 0.1320384254
H   H16       1.0  0.67939  0.12315  0.66456  1.0000 0.1320384254
H   H17       1.0  0.31900  0.89700  0.16000  1.0000 0.0921409537
H   H18       1.0  0.68100  0.10300  0.84000  1.0000 0.0921409537
H   H19       1.0  0.23303  0.57300  0.47474  1.0000 0.3628779349
H   H20       1.0  0.76697  0.42700  0.52526  1.0000 0.3628779349
H   H21       1.0  0.22263  0.68077  0.49902  1.0000 0.3628779349
H   H22       1.0  0.77737  0.31923  0.50098  1.0000 0.3628779349
H   H23       1.0  0.90599  0.79839  0.59015  1.0000 0.1439645697
H   H24       1.0  0.09401  0.20161  0.40985  1.0000 0.1439645697
H   H25       1.0  0.06796  0.70270  0.13766  1.0000 0.1320384254
H   H26       1.0  0.93204  0.29730  0.86234  1.0000 0.1320384254
H   H27       1.0  0.08590  0.69354  0.30781  1.0000 0.096828859
H   H28       1.0  0.91410  0.30646  0.69219  1.0000 0.096828859
H   H29       1.0  0.86351  0.45299  0.99491  1.0000 0.1152119522
H   H30       1.0  0.13649  0.54701  0.00509  1.0000 0.1152119522
H   H31       1.0  0.95652  0.60044  0.98453  1.0000 0.1104434838
H   H32       1.0  0.04348  0.39956  0.01547  1.0000 0.1104434838
H   H33       1.0  0.87685  0.32061  0.16456  1.0000 0.1320384254
H   H34       1.0  0.12315  0.67939  0.83544  1.0000 0.1320384254
H   H35       1.0  0.89700  0.31900  0.34000  1.0000 0.0921409537
H   H36       1.0  0.10300  0.68100  0.66000  1.0000 0.0921409537
C   C1        1.0  0.79069  0.06531  0.02320  1.0000 0.5474308689
C   C2        1.0  0.20931  0.93469  0.97680  1.0000 0.5474308689
C   C3        1.0  0.51297  0.96643  0.37080  1.0000 0.1725657989
C   C4        1.0  0.48703  0.03357  0.62920  1.0000 0.1725657989
C   C5        1.0  0.98016  0.91904  0.93230  1.0000 0.0552262177
C   C6        1.0  0.01984  0.08096  0.06770  1.0000 0.0552262177
C   C7        1.0  0.87906  0.94454  0.94630  1.0000 -0.15313191
C   C8        1.0  0.12094  0.05546  0.05370  1.0000 -0.15313191
C   C9        1.0  0.62320  0.03100  0.32400  1.0000 -0.1973102431
C   C10       1.0  0.37680  0.96900  0.67600  1.0000 -0.1973102431
C   C11       1.0  0.89736  0.02764  0.01480  1.0000 -0.029354947
C   C12       1.0  0.10264  0.97236  0.98520  1.0000 -0.029354947
C   C13       1.0  0.61710  0.04170  0.22120  1.0000 0.0733069439
C   C14       1.0  0.38290  0.95830  0.77880  1.0000 0.0733069439
C   C15       1.0  0.51560  0.94900  0.48360  1.0000 -0.218793087
C   C16       1.0  0.48440  0.05100  0.51640  1.0000 -0.218793087
C   C17       1.0  0.40060  0.93200  0.20610  1.0000 0.0771596205
C   C18       1.0  0.59940  0.06800  0.79390  1.0000 0.0771596205
C   C19       1.0  0.39870  0.91830  0.30850  1.0000 -0.1940918605
C   C20       1.0  0.60130  0.08170  0.69150  1.0000 -0.1940918605
C   C21       1.0  0.06531  0.79069  0.47680  1.0000 0.5474308689
C   C22       1.0  0.93469  0.20931  0.52320  1.0000 0.5474308689
C   C23       1.0  0.96643  0.51297  0.12920  1.0000 0.1725657989
C   C24       1.0  0.03357  0.48703  0.87080  1.0000 0.1725657989
C   C25       1.0  0.91904  0.98016  0.56770  1.0000 0.0552262177
C   C26       1.0  0.08096  0.01984  0.43230  1.0000 0.0543667336
C   C27       1.0  0.94454  0.87906  0.55370  1.0000 -0.15313191
C   C28       1.0  0.05546  0.12094  0.44630  1.0000 -0.15313191
C   C29       1.0  0.03100  0.62320  0.17600  1.0000 -0.1973102431
C   C30       1.0  0.96900  0.37680  0.82400  1.0000 -0.1973102431
C   C31       1.0  0.02764  0.89736  0.48520  1.0000 -0.029354947
C   C32       1.0  0.97236  0.10264  0.51480  1.0000 -0.029354947
C   C33       1.0  0.04170  0.61710  0.27880  1.0000 0.0733069439
C   C34       1.0  0.95830  0.38290  0.72120  1.0000 0.0733069439
C   C35       1.0  0.94900  0.51560  0.01640  1.0000 -0.218793087
C   C36       1.0  0.05100  0.48440  0.98360  1.0000 -0.218793087
C   C37       1.0  0.93200  0.40060  0.29390  1.0000 0.0771596205
C   C38       1.0  0.06800  0.59940  0.70610  1.0000 0.0771596205
C   C39       1.0  0.91830  0.39870  0.19150  1.0000 -0.1940918605
C   C40       1.0  0.08170  0.60130  0.80850  1.0000 -0.1940918605
N   N1        1.0  0.50765  0.99215  0.16134  1.0000 -0.2654014057
N   N2        1.0  0.49235  0.00785  0.83866  1.0000 -0.2654014057
N   N3        1.0  0.96040  0.84600  0.84850  1.0000 0.494970258
N   N4        1.0  0.03960  0.15400  0.15150  1.0000 0.494970258
N   N5        1.0  0.99215  0.50765  0.33866  1.0000 -0.2654014057
N   N6        1.0  0.00785  0.49235  0.66134  1.0000 -0.2654014057
N   N7        1.0  0.84600  0.96040  0.65150  1.0000 0.494970258
N   N8        1.0  0.15400  0.03960  0.34850  1.0000 0.494970258
O   O1        1.0  0.67729  0.97961  0.01493  1.0000 -0.5526658038
O   O2        1.0  0.32271  0.02039  0.98507  1.0000 -0.5526658038
O   O3        1.0  0.59826  0.20032  0.98555  1.0000 -0.6708641688
O   O4        1.0  0.40174  0.79968  0.01445  1.0000 -0.6708641688
O   O5        1.0  0.82316  0.17924  0.03460  1.0000 -0.5526658038
O   O6        1.0  0.17684  0.82076  0.96540  1.0000 -0.5526658038
O   O7        1.0  0.04150  0.88250  0.79110  1.0000 -0.3029121871
O   O8        1.0  0.95850  0.11750  0.20890  1.0000 -0.3029121871
O   O9        1.0  0.86210  0.75130  0.83900  1.0000 -0.2654014057
O   O10       1.0  0.13790  0.24870  0.16100  1.0000 -0.2643695216
O   O11       1.0  0.97961  0.67729  0.48507  1.0000 -0.5526658038
O   O12       1.0  0.02039  0.32271  0.51493  1.0000 -0.5526658038
O   O13       1.0  0.20032  0.59826  0.51445  1.0000 -0.6708641688
O   O14       1.0  0.79968  0.40174  0.48555  1.0000 -0.6708641688
O   O15       1.0  0.17924  0.82316  0.46540  1.0000 -0.5526658038
O   O16       1.0  0.82076  0.17684  0.53460  1.0000 -0.5526658038
O   O17       1.0  0.88250  0.04150  0.70890  1.0000 -0.3029121871
O   O18       1.0  0.11750  0.95850  0.29110  1.0000 -0.3029121871
O   O19       1.0  0.75130  0.86210  0.66100  1.0000 -0.2654014057
O   O20       1.0  0.24870  0.13790  0.33900  1.0000 -0.2654014057
