# DDEC6 charges by PACMAN v1.1 (https://github.com/mtap-research/PACMAN-charge/)
data_2023[Bi][nan]3[FSR]1
_chemical_formula_sum              "Bi2 H4 C24 O14 F12"
_cell_length_a       7.483
_cell_length_b       10.2368
_cell_length_c       11.8229
_cell_angle_alpha    88.305
_cell_angle_beta     108.366
_cell_angle_gamma    98.627

_symmetry_space_group_name_H-M    "P 1"
_symmetry_Int_Tables_number       1

loop_
  _symmetry_equiv_pos_as_xyz
  'x, y, z'

loop_
  _atom_site_type_symbol
  _atom_site_label
  _atom_site_symmetry_multiplicity
  _atom_site_fract_x
  _atom_site_fract_y
  _atom_site_fract_z
  _atom_site_occupancy
  _atom_site_charge
Bi  Bi1       1.0  0.71664  0.49857  0.40976  1.0000 1.4450992512
Bi  Bi2       1.0  0.28336  0.50143  0.59024  1.0000 1.4445671009
H   H1        1.0  0.34385  0.41500  0.29005  1.0000 0.3932609128
H   H2        1.0  0.65615  0.58500  0.70995  1.0000 0.3932609128
H   H3        1.0  0.43972  0.40883  0.20601  1.0000 0.3955448436
H   H4        1.0  0.56028  0.59117  0.79399  1.0000 0.3955448436
C   C1        1.0  0.86900  0.25710  0.45180  1.0000 0.6012080478
C   C2        1.0  0.13100  0.74290  0.54820  1.0000 0.6012080478
C   C3        1.0  0.97000  0.48460  0.24000  1.0000 0.6274207997
C   C4        1.0  0.03000  0.51540  0.76000  1.0000 0.6274207997
C   C5        1.0  0.93300  0.12550  0.47630  1.0000 -0.232538799
C   C6        1.0  0.06700  0.87450  0.52370  1.0000 -0.232538799
C   C7        1.0  0.58000  0.91510  0.58570  1.0000 0.168618705
C   C8        1.0  0.42000  0.08490  0.41430  1.0000 0.168618705
C   C9        1.0  0.55300  0.03810  0.61630  1.0000 0.1610740031
C   C10       1.0  0.44700  0.96190  0.38370  1.0000 0.1610740031
C   C11       1.0  0.52700  0.87310  0.46950  1.0000 -0.2114008946
C   C12       1.0  0.47300  0.12690  0.53050  1.0000 -0.2114008946
C   C13       1.0  0.98700  0.49470  0.11900  1.0000 -0.232538799
C   C14       1.0  0.01300  0.50530  0.88100  1.0000 -0.232538799
C   C15       1.0  0.05400  0.61860  0.95490  1.0000 0.168618705
C   C16       1.0  0.94600  0.38140  0.04510  1.0000 0.168618705
C   C17       1.0  0.55800  0.73690  0.43770  1.0000 0.6099432873
C   C18       1.0  0.44200  0.26310  0.56230  1.0000 0.6099432873
C   C19       1.0  0.93500  0.04170  0.38480  1.0000 0.168618705
C   C20       1.0  0.06500  0.95830  0.61520  1.0000 0.168618705
C   C21       1.0  0.99800  0.07680  0.59150  1.0000 0.1610740031
C   C22       1.0  0.00200  0.92320  0.40850  1.0000 0.1610740031
C   C23       1.0  0.04000  0.60950  0.07170  1.0000 0.168618705
C   C24       1.0  0.96000  0.39050  0.92830  1.0000 0.168618705
O   O1        1.0  0.64900  0.73390  0.36660  1.0000 -0.4903947247
O   O2        1.0  0.35100  0.26610  0.63340  1.0000 -0.4903947247
O   O3        1.0  0.73000  0.27050  0.36530  1.0000 -0.4965128732
O   O4        1.0  0.27000  0.72950  0.63470  1.0000 -0.4965128732
O   O5        1.0  0.43700  0.46210  0.26500  1.0000 -0.6370639635
O   O6        1.0  0.56300  0.53790  0.73500  1.0000 -0.6370639635
O   O7        1.0  0.10400  0.45310  0.32220  1.0000 -0.5437576604
O   O8        1.0  0.89600  0.54690  0.67780  1.0000 -0.5437576604
O   O9        1.0  0.81500  0.51150  0.24720  1.0000 -0.5143126381
O   O10       1.0  0.18500  0.48850  0.75280  1.0000 -0.5143126381
O   O11       1.0  0.49800  0.63920  0.48630  1.0000 -0.5564856363
O   O12       1.0  0.50200  0.36080  0.51370  1.0000 -0.5564856363
O   O13       1.0  0.96100  0.35100  0.52260  1.0000 -0.5505292249
O   O14       1.0  0.03900  0.64900  0.47740  1.0000 -0.5505292249
F   F1        1.0  0.61110  0.07340  0.73290  1.0000 -0.0977341565
F   F2        1.0  0.38890  0.92660  0.26710  1.0000 -0.0977341565
F   F3        1.0  0.66990  0.83970  0.67440  1.0000 -0.1082559602
F   F4        1.0  0.33010  0.16030  0.32560  1.0000 -0.1082559602
F   F5        1.0  0.99640  0.14920  0.68480  1.0000 -0.0977341565
F   F6        1.0  0.00360  0.85080  0.31520  1.0000 -0.0977341565
F   F7        1.0  0.87850  0.08070  0.27170  1.0000 -0.1082559602
F   F8        1.0  0.12150  0.91930  0.72830  1.0000 -0.1082559602
F   F9        1.0  0.10500  0.73730  0.91350  1.0000 -0.0977341565
F   F10       1.0  0.89500  0.26270  0.08650  1.0000 -0.0977341565
F   F11       1.0  0.08100  0.72210  0.13490  1.0000 -0.0935842899
F   F12       1.0  0.91900  0.27790  0.86510  1.0000 -0.0935842899
