# DDEC6 charges by PACMAN v1.1 (https://github.com/mtap-research/PACMAN-charge/)
data_2023[Co][fgl]3[FSR]1
_chemical_formula_sum              "Co6 H60 C132 O48"
_cell_length_a       18.5234
_cell_length_b       18.5234
_cell_length_c       18.5234
_cell_angle_alpha    98.782
_cell_angle_beta     98.782
_cell_angle_gamma    98.782

_symmetry_space_group_name_H-M    "P 1"
_symmetry_Int_Tables_number       1

loop_
  _symmetry_equiv_pos_as_xyz
  'x, y, z'

loop_
  _atom_site_type_symbol
  _atom_site_label
  _atom_site_symmetry_multiplicity
  _atom_site_fract_x
  _atom_site_fract_y
  _atom_site_fract_z
  _atom_site_occupancy
  _atom_site_charge
Co  Co1       1.0  0.75000  0.10726  0.39274  1.0000 1.0199527363
Co  Co2       1.0  0.10726  0.39274  0.75000  1.0000 1.0199527363
Co  Co3       1.0  0.39274  0.75000  0.10726  1.0000 1.0199527363
Co  Co4       1.0  0.25000  0.89274  0.60726  1.0000 1.0199527363
Co  Co5       1.0  0.89274  0.60726  0.25000  1.0000 1.0199527363
Co  Co6       1.0  0.60726  0.25000  0.89274  1.0000 1.0199527363
H   H1        1.0  0.65190  0.05060  0.16500  1.0000 0.1308879466
H   H2        1.0  0.05060  0.16500  0.65190  1.0000 0.1308879466
H   H3        1.0  0.16500  0.65190  0.05060  1.0000 0.1308879466
H   H4        1.0  0.44940  0.84810  0.33500  1.0000 0.1308879466
H   H5        1.0  0.33500  0.44940  0.84810  1.0000 0.1308879466
H   H6        1.0  0.84810  0.33500  0.44940  1.0000 0.1308879466
H   H7        1.0  0.34810  0.94940  0.83500  1.0000 0.1308879466
H   H8        1.0  0.94940  0.83500  0.34810  1.0000 0.1308879466
H   H9        1.0  0.83500  0.34810  0.94940  1.0000 0.1308879466
H   H10       1.0  0.55060  0.15190  0.66500  1.0000 0.1308879466
H   H11       1.0  0.66500  0.55060  0.15190  1.0000 0.1308879466
H   H12       1.0  0.15190  0.66500  0.55060  1.0000 0.1308879466
H   H13       1.0  0.68740  0.07470  0.96200  1.0000 0.1308879466
H   H14       1.0  0.07470  0.96200  0.68740  1.0000 0.1308879466
H   H15       1.0  0.96200  0.68740  0.07470  1.0000 0.1308879466
H   H16       1.0  0.42530  0.81260  0.53800  1.0000 0.1308879466
H   H17       1.0  0.53800  0.42530  0.81260  1.0000 0.1308879466
H   H18       1.0  0.81260  0.53800  0.42530  1.0000 0.1308879466
H   H19       1.0  0.31260  0.92530  0.03800  1.0000 0.1308879466
H   H20       1.0  0.92530  0.03800  0.31260  1.0000 0.1308879466
H   H21       1.0  0.03800  0.31260  0.92530  1.0000 0.1308879466
H   H22       1.0  0.57470  0.18740  0.46200  1.0000 0.1308879466
H   H23       1.0  0.46200  0.57470  0.18740  1.0000 0.1308879466
H   H24       1.0  0.18740  0.46200  0.57470  1.0000 0.1308879466
H   H25       1.0  0.85650  0.13300  0.13420  1.0000 0.1308879466
H   H26       1.0  0.13300  0.13420  0.85650  1.0000 0.1356555342
H   H27       1.0  0.13420  0.85650  0.13300  1.0000 0.1308879466
H   H28       1.0  0.36700  0.64350  0.36580  1.0000 0.1308879466
H   H29       1.0  0.36580  0.36700  0.64350  1.0000 0.1308879466
H   H30       1.0  0.64350  0.36580  0.36700  1.0000 0.1308879466
H   H31       1.0  0.14350  0.86700  0.86580  1.0000 0.1356555342
H   H32       1.0  0.86700  0.86580  0.14350  1.0000 0.1308879466
H   H33       1.0  0.86580  0.14350  0.86700  1.0000 0.1308879466
H   H34       1.0  0.63300  0.35650  0.63420  1.0000 0.1308879466
H   H35       1.0  0.63420  0.63300  0.35650  1.0000 0.1308879466
H   H36       1.0  0.35650  0.63420  0.63300  1.0000 0.1308879466
H   H37       1.0  0.81160  0.11720  0.00890  1.0000 0.1163608358
H   H38       1.0  0.11720  0.00890  0.81160  1.0000 0.1163608358
H   H39       1.0  0.00890  0.81160  0.11720  1.0000 0.1163608358
H   H40       1.0  0.38280  0.68840  0.49110  1.0000 0.1163608358
H   H41       1.0  0.49110  0.38280  0.68840  1.0000 0.1163608358
H   H42       1.0  0.68840  0.49110  0.38280  1.0000 0.1163608358
H   H43       1.0  0.18840  0.88280  0.99110  1.0000 0.1163608358
H   H44       1.0  0.88280  0.99110  0.18840  1.0000 0.1163608358
H   H45       1.0  0.99110  0.18840  0.88280  1.0000 0.1163608358
H   H46       1.0  0.61720  0.31160  0.50890  1.0000 0.1163608358
H   H47       1.0  0.50890  0.61720  0.31160  1.0000 0.1163608358
H   H48       1.0  0.31160  0.50890  0.61720  1.0000 0.1163608358
H   H49       1.0  0.57090  0.93880  0.07310  1.0000 0.1308879466
H   H50       1.0  0.93880  0.07310  0.57090  1.0000 0.1308879466
H   H51       1.0  0.07310  0.57090  0.93880  1.0000 0.1308879466
H   H52       1.0  0.56120  0.92910  0.42690  1.0000 0.1308879466
H   H53       1.0  0.42690  0.56120  0.92910  1.0000 0.1308879466
H   H54       1.0  0.92910  0.42690  0.56120  1.0000 0.1308879466
H   H55       1.0  0.42910  0.06120  0.92690  1.0000 0.1308879466
H   H56       1.0  0.06120  0.92690  0.42910  1.0000 0.1308879466
H   H57       1.0  0.92690  0.42910  0.06120  1.0000 0.1308879466
H   H58       1.0  0.43880  0.07090  0.57310  1.0000 0.1308879466
H   H59       1.0  0.57310  0.43880  0.07090  1.0000 0.1308879466
H   H60       1.0  0.07090  0.57310  0.43880  1.0000 0.1308879466
C   C1        1.0  0.65590  0.06140  0.05840  1.0000 0.0608472645
C   C2        1.0  0.06140  0.05840  0.65590  1.0000 0.0608472645
C   C3        1.0  0.05840  0.65590  0.06140  1.0000 0.0608472645
C   C4        1.0  0.43860  0.84410  0.44160  1.0000 0.0608472645
C   C5        1.0  0.44160  0.43860  0.84410  1.0000 0.0608472645
C   C6        1.0  0.84410  0.44160  0.43860  1.0000 0.0608472645
C   C7        1.0  0.34410  0.93860  0.94160  1.0000 0.0608472645
C   C8        1.0  0.93860  0.94160  0.34410  1.0000 0.0608472645
C   C9        1.0  0.94160  0.34410  0.93860  1.0000 0.0608472645
C   C10       1.0  0.56140  0.15590  0.55840  1.0000 0.0608472645
C   C11       1.0  0.55840  0.56140  0.15590  1.0000 0.0608472645
C   C12       1.0  0.15590  0.55840  0.56140  1.0000 0.0608472645
C   C13       1.0  0.68360  0.06630  0.13380  1.0000 -0.1180377335
C   C14       1.0  0.06630  0.13380  0.68360  1.0000 -0.1180377335
C   C15       1.0  0.13380  0.68360  0.06630  1.0000 -0.1180377335
C   C16       1.0  0.43370  0.81640  0.36620  1.0000 -0.1180377335
C   C17       1.0  0.36620  0.43370  0.81640  1.0000 -0.1180377335
C   C18       1.0  0.81640  0.36620  0.43370  1.0000 -0.1180377335
C   C19       1.0  0.31640  0.93370  0.86620  1.0000 -0.1180377335
C   C20       1.0  0.93370  0.86620  0.31640  1.0000 -0.1180377335
C   C21       1.0  0.86620  0.31640  0.93370  1.0000 -0.1180377335
C   C22       1.0  0.56630  0.18360  0.63380  1.0000 -0.1180377335
C   C23       1.0  0.63380  0.56630  0.18360  1.0000 -0.1180377335
C   C24       1.0  0.18360  0.63380  0.56630  1.0000 -0.1180377335
C   C25       1.0  0.57640  0.03210  0.02890  1.0000 0.0608472645
C   C26       1.0  0.03210  0.02890  0.57640  1.0000 0.0608472645
C   C27       1.0  0.02890  0.57640  0.03210  1.0000 0.0608472645
C   C28       1.0  0.46790  0.92360  0.47110  1.0000 0.0608472645
C   C29       1.0  0.47110  0.46790  0.92360  1.0000 0.0608472645
C   C30       1.0  0.92360  0.47110  0.46790  1.0000 0.0608472645
C   C31       1.0  0.42360  0.96790  0.97110  1.0000 0.0608472645
C   C32       1.0  0.96790  0.97110  0.42360  1.0000 0.0608472645
C   C33       1.0  0.97110  0.42360  0.96790  1.0000 0.0608472645
C   C34       1.0  0.53210  0.07640  0.52890  1.0000 0.0608472645
C   C35       1.0  0.52890  0.53210  0.07640  1.0000 0.0608472645
C   C36       1.0  0.07640  0.52890  0.53210  1.0000 0.0608472645
C   C37       1.0  0.70460  0.07970  0.01270  1.0000 -0.1061156102
C   C38       1.0  0.07970  0.01270  0.70460  1.0000 -0.1061156102
C   C39       1.0  0.01270  0.70460  0.07970  1.0000 -0.1061156102
C   C40       1.0  0.42030  0.79540  0.48730  1.0000 -0.1061156102
C   C41       1.0  0.48730  0.42030  0.79540  1.0000 -0.1061156102
C   C42       1.0  0.79540  0.48730  0.42030  1.0000 -0.1061156102
C   C43       1.0  0.29540  0.92030  0.98730  1.0000 -0.1061156102
C   C44       1.0  0.92030  0.98730  0.29540  1.0000 -0.1061156102
C   C45       1.0  0.98730  0.29540  0.92030  1.0000 -0.1061156102
C   C46       1.0  0.57970  0.20460  0.51270  1.0000 -0.1061156102
C   C47       1.0  0.51270  0.57970  0.20460  1.0000 -0.1061156102
C   C48       1.0  0.20460  0.51270  0.57970  1.0000 -0.1061156102
C   C49       1.0  0.80650  0.11410  0.11550  1.0000 -0.104819569
C   C50       1.0  0.11410  0.11550  0.80650  1.0000 -0.1061156102
C   C51       1.0  0.11550  0.80650  0.11410  1.0000 -0.1061156102
C   C52       1.0  0.38590  0.69350  0.38450  1.0000 -0.1061156102
C   C53       1.0  0.38450  0.38590  0.69350  1.0000 -0.1061156102
C   C54       1.0  0.69350  0.38450  0.38590  1.0000 -0.1061156102
C   C55       1.0  0.19350  0.88590  0.88450  1.0000 -0.1061156102
C   C56       1.0  0.88590  0.88450  0.19350  1.0000 -0.104819569
C   C57       1.0  0.88450  0.19350  0.88590  1.0000 -0.1061156102
C   C58       1.0  0.61410  0.30650  0.61550  1.0000 -0.104819569
C   C59       1.0  0.61550  0.61410  0.30650  1.0000 -0.104819569
C   C60       1.0  0.30650  0.61550  0.61410  1.0000 -0.1061156102
C   C61       1.0  0.53100  0.06810  0.98400  1.0000 -0.0290130342
C   C62       1.0  0.06810  0.98400  0.53100  1.0000 -0.0290130342
C   C63       1.0  0.98400  0.53100  0.06810  1.0000 -0.0290130342
C   C64       1.0  0.43190  0.96900  0.51600  1.0000 -0.0290130342
C   C65       1.0  0.51600  0.43190  0.96900  1.0000 -0.0290130342
C   C66       1.0  0.96900  0.51600  0.43190  1.0000 -0.0290130342
C   C67       1.0  0.46900  0.93190  0.01600  1.0000 -0.0290130342
C   C68       1.0  0.93190  0.01600  0.46900  1.0000 -0.0290130342
C   C69       1.0  0.01600  0.46900  0.93190  1.0000 -0.0290130342
C   C70       1.0  0.56810  0.03100  0.48400  1.0000 -0.0290130342
C   C71       1.0  0.48400  0.56810  0.03100  1.0000 -0.0290130342
C   C72       1.0  0.03100  0.48400  0.56810  1.0000 -0.0290130342
C   C73       1.0  0.78420  0.10630  0.24610  1.0000 0.5499614521
C   C74       1.0  0.10630  0.24610  0.78420  1.0000 0.5499614521
C   C75       1.0  0.24610  0.78420  0.10630  1.0000 0.5499614521
C   C76       1.0  0.39370  0.71580  0.25390  1.0000 0.5499614521
C   C77       1.0  0.25390  0.39370  0.71580  1.0000 0.5499614521
C   C78       1.0  0.71580  0.25390  0.39370  1.0000 0.5499614521
C   C79       1.0  0.21580  0.89370  0.75390  1.0000 0.5499614521
C   C80       1.0  0.89370  0.75390  0.21580  1.0000 0.5499614521
C   C81       1.0  0.75390  0.21580  0.89370  1.0000 0.5499614521
C   C82       1.0  0.60630  0.28420  0.74610  1.0000 0.5499614521
C   C83       1.0  0.74610  0.60630  0.28420  1.0000 0.5499614521
C   C84       1.0  0.28420  0.74610  0.60630  1.0000 0.5499614521
C   C85       1.0  0.77920  0.10550  0.04100  1.0000 -0.0778113199
C   C86       1.0  0.10550  0.04100  0.77920  1.0000 -0.0778113199
C   C87       1.0  0.04100  0.77920  0.10550  1.0000 -0.0778113199
C   C88       1.0  0.39450  0.72080  0.45900  1.0000 -0.0778113199
C   C89       1.0  0.45900  0.39450  0.72080  1.0000 -0.0778113199
C   C90       1.0  0.72080  0.45900  0.39450  1.0000 -0.0778113199
C   C91       1.0  0.22080  0.89450  0.95900  1.0000 -0.0778113199
C   C92       1.0  0.89450  0.95900  0.22080  1.0000 -0.0778113199
C   C93       1.0  0.95900  0.22080  0.89450  1.0000 -0.0778113199
C   C94       1.0  0.60550  0.27920  0.54100  1.0000 -0.0778113199
C   C95       1.0  0.54100  0.60550  0.27920  1.0000 -0.0778113199
C   C96       1.0  0.27920  0.54100  0.60550  1.0000 -0.0778113199
C   C97       1.0  0.75830  0.09440  0.16270  1.0000 0.007439181
C   C98       1.0  0.09440  0.16270  0.75830  1.0000 0.007439181
C   C99       1.0  0.16270  0.75830  0.09440  1.0000 0.007439181
C   C100      1.0  0.40560  0.74170  0.33730  1.0000 0.007439181
C   C101      1.0  0.33730  0.40560  0.74170  1.0000 0.007439181
C   C102      1.0  0.74170  0.33730  0.40560  1.0000 0.007439181
C   C103      1.0  0.24170  0.90560  0.83730  1.0000 0.007439181
C   C104      1.0  0.90560  0.83730  0.24170  1.0000 0.007439181
C   C105      1.0  0.83730  0.24170  0.90560  1.0000 0.007439181
C   C106      1.0  0.59440  0.25830  0.66270  1.0000 0.007439181
C   C107      1.0  0.66270  0.59440  0.25830  1.0000 0.007439181
C   C108      1.0  0.25830  0.66270  0.59440  1.0000 0.007439181
C   C109      1.0  0.54230  0.96390  0.04330  1.0000 -0.1437754662
C   C110      1.0  0.96390  0.04330  0.54230  1.0000 -0.1437754662
C   C111      1.0  0.04330  0.54230  0.96390  1.0000 -0.1437754662
C   C112      1.0  0.53610  0.95770  0.45670  1.0000 -0.1437754662
C   C113      1.0  0.45670  0.53610  0.95770  1.0000 -0.1437754662
C   C114      1.0  0.95770  0.45670  0.53610  1.0000 -0.1437754662
C   C115      1.0  0.45770  0.03610  0.95670  1.0000 -0.1437754662
C   C116      1.0  0.03610  0.95670  0.45770  1.0000 -0.1437754662
C   C117      1.0  0.95670  0.45770  0.03610  1.0000 -0.1437754662
C   C118      1.0  0.46390  0.04230  0.54330  1.0000 -0.1437754662
C   C119      1.0  0.54330  0.46390  0.04230  1.0000 -0.1437754662
C   C120      1.0  0.04230  0.54330  0.46390  1.0000 -0.1437754662
C   C121      1.0  0.55900  0.14340  0.96830  1.0000 0.5499614521
C   C122      1.0  0.14340  0.96830  0.55900  1.0000 0.5499614521
C   C123      1.0  0.96830  0.55900  0.14340  1.0000 0.5499614521
C   C124      1.0  0.35660  0.94100  0.53170  1.0000 0.5499614521
C   C125      1.0  0.53170  0.35660  0.94100  1.0000 0.5499614521
C   C126      1.0  0.94100  0.53170  0.35660  1.0000 0.5499614521
C   C127      1.0  0.44100  0.85660  0.03170  1.0000 0.5499614521
C   C128      1.0  0.85660  0.03170  0.44100  1.0000 0.5499614521
C   C129      1.0  0.03170  0.44100  0.85660  1.0000 0.5499614521
C   C130      1.0  0.64340  0.05900  0.46830  1.0000 0.5499614521
C   C131      1.0  0.46830  0.64340  0.05900  1.0000 0.5499614521
C   C132      1.0  0.05900  0.46830  0.64340  1.0000 0.5499614521
O   O1        1.0  0.73910  0.08090  0.28360  1.0000 -0.4722746976
O   O2        1.0  0.08090  0.28360  0.73910  1.0000 -0.4722746976
O   O3        1.0  0.28360  0.73910  0.08090  1.0000 -0.4722746976
O   O4        1.0  0.41910  0.76090  0.21640  1.0000 -0.4722746976
O   O5        1.0  0.21640  0.41910  0.76090  1.0000 -0.4722746976
O   O6        1.0  0.76090  0.21640  0.41910  1.0000 -0.4722746976
O   O7        1.0  0.26090  0.91910  0.71640  1.0000 -0.4722746976
O   O8        1.0  0.91910  0.71640  0.26090  1.0000 -0.4722746976
O   O9        1.0  0.71640  0.26090  0.91910  1.0000 -0.4722746976
O   O10       1.0  0.58090  0.23910  0.78360  1.0000 -0.4722746976
O   O11       1.0  0.78360  0.58090  0.23910  1.0000 -0.4722746976
O   O12       1.0  0.23910  0.78360  0.58090  1.0000 -0.4722746976
O   O13       1.0  0.55150  0.15190  0.90280  1.0000 -0.4386455994
O   O14       1.0  0.15190  0.90280  0.55150  1.0000 -0.4386455994
O   O15       1.0  0.90280  0.55150  0.15190  1.0000 -0.4386455994
O   O16       1.0  0.34810  0.94850  0.59720  1.0000 -0.4386455994
O   O17       1.0  0.59720  0.34810  0.94850  1.0000 -0.4386455994
O   O18       1.0  0.94850  0.59720  0.34810  1.0000 -0.4386455994
O   O19       1.0  0.44850  0.84810  0.09720  1.0000 -0.4386455994
O   O20       1.0  0.84810  0.09720  0.44850  1.0000 -0.4386455994
O   O21       1.0  0.09720  0.44850  0.84810  1.0000 -0.4386455994
O   O22       1.0  0.65190  0.05150  0.40280  1.0000 -0.4386455994
O   O23       1.0  0.40280  0.65190  0.05150  1.0000 -0.4386455994
O   O24       1.0  0.05150  0.40280  0.65190  1.0000 -0.4386455994
O   O25       1.0  0.84800  0.14340  0.27300  1.0000 -0.4722746976
O   O26       1.0  0.14340  0.27300  0.84800  1.0000 -0.4722746976
O   O27       1.0  0.27300  0.84800  0.14340  1.0000 -0.4722746976
O   O28       1.0  0.35660  0.65200  0.22700  1.0000 -0.4722746976
O   O29       1.0  0.22700  0.35660  0.65200  1.0000 -0.4722746976
O   O30       1.0  0.65200  0.22700  0.35660  1.0000 -0.4722746976
O   O31       1.0  0.15200  0.85660  0.72700  1.0000 -0.4722746976
O   O32       1.0  0.85660  0.72700  0.15200  1.0000 -0.4722746976
O   O33       1.0  0.72700  0.15200  0.85660  1.0000 -0.4722746976
O   O34       1.0  0.64340  0.34800  0.77300  1.0000 -0.4722746976
O   O35       1.0  0.77300  0.64340  0.34800  1.0000 -0.4722746976
O   O36       1.0  0.34800  0.77300  0.64340  1.0000 -0.4722746976
O   O37       1.0  0.58940  0.19380  0.01860  1.0000 -0.4161084474
O   O38       1.0  0.19380  0.01860  0.58940  1.0000 -0.4161084474
O   O39       1.0  0.01860  0.58940  0.19380  1.0000 -0.4161084474
O   O40       1.0  0.30620  0.91060  0.48140  1.0000 -0.4161084474
O   O41       1.0  0.48140  0.30620  0.91060  1.0000 -0.4161084474
O   O42       1.0  0.91060  0.48140  0.30620  1.0000 -0.4161084474
O   O43       1.0  0.41060  0.80620  0.98140  1.0000 -0.4161084474
O   O44       1.0  0.80620  0.98140  0.41060  1.0000 -0.4161084474
O   O45       1.0  0.98140  0.41060  0.80620  1.0000 -0.4161084474
O   O46       1.0  0.69380  0.08940  0.51860  1.0000 -0.4161084474
O   O47       1.0  0.51860  0.69380  0.08940  1.0000 -0.4161084474
O   O48       1.0  0.08940  0.51860  0.69380  1.0000 -0.4161084474
