# DDEC6 charges by PACMAN v1.1 (https://github.com/mtap-research/PACMAN-charge/)
data_2023[Co][pcu]3[FSR]2
_chemical_formula_sum              "Co4 H48 C96 N8 O24"
_cell_length_a       12.97
_cell_length_b       22.05
_cell_length_c       13.08
_cell_angle_alpha    90
_cell_angle_beta     102.71
_cell_angle_gamma    90

_symmetry_space_group_name_H-M    "P 1"
_symmetry_Int_Tables_number       1

loop_
  _symmetry_equiv_pos_as_xyz
  'x, y, z'

loop_
  _atom_site_type_symbol
  _atom_site_label
  _atom_site_symmetry_multiplicity
  _atom_site_fract_x
  _atom_site_fract_y
  _atom_site_fract_z
  _atom_site_occupancy
  _atom_site_charge
Co  Co1       1.0  0.22731  0.67648  0.63073  1.0000 0.8305473147
Co  Co2       1.0  0.25283  0.55668  0.65658  1.0000 0.8305473147
Co  Co3       1.0  0.77269  0.17648  0.36927  1.0000 0.8305473147
Co  Co4       1.0  0.74717  0.05668  0.34342  1.0000 0.8305473147
H   H1        1.0  0.97715  0.17178  0.64055  1.0000 0.1215608888
H   H2        1.0  0.10943  0.87817  0.47825  1.0000 0.1473292677
H   H3        1.0  0.26028  0.51025  0.33576  1.0000 0.1302205844
H   H4        1.0  0.55440  0.72534  0.65602  1.0000 0.1302205844
H   H5        1.0  0.89562  0.68904  0.62412  1.0000 0.1302205844
H   H6        1.0  0.58523  0.54404  0.66455  1.0000 0.1302205844
H   H7        1.0  0.30708  0.34515  0.80013  1.0000 0.1414648486
H   H8        1.0  0.97325  0.06602  0.62932  1.0000 0.1215608888
H   H9        1.0  0.30704  0.88734  0.75456  1.0000 0.1414648486
H   H10       1.0  0.16864  0.45792  0.50871  1.0000 0.1215608888
H   H11       1.0  0.11682  0.77432  0.48642  1.0000 0.1215608888
H   H12       1.0  0.23295  0.69167  0.29770  1.0000 0.1302205844
H   H13       1.0  0.46331  0.06090  0.61338  1.0000 0.1302205844
H   H14       1.0  0.23375  0.73659  0.12839  1.0000 0.1215608888
H   H15       1.0  0.24290  0.72427  0.95296  1.0000 0.1215608888
H   H16       1.0  0.72635  0.73554  0.64332  1.0000 0.1215608888
H   H17       1.0  0.47076  0.16551  0.62886  1.0000 0.1302205844
H   H18       1.0  0.75625  0.49730  0.65128  1.0000 0.1215608888
H   H19       1.0  0.26454  0.54454  0.99037  1.0000 0.1302205844
H   H20       1.0  0.92792  0.50840  0.63957  1.0000 0.1215608888
H   H21       1.0  0.31629  0.45053  0.80213  1.0000 0.1215608888
H   H22       1.0  0.26269  0.49961  0.16540  1.0000 0.1215608888
H   H23       1.0  0.16157  0.35431  0.49647  1.0000 0.1473292677
H   H24       1.0  0.31094  0.78196  0.76145  1.0000 0.1215608888
H   H25       1.0  0.02285  0.67178  0.35945  1.0000 0.1302205844
H   H26       1.0  0.89057  0.37817  0.52175  1.0000 0.1473292677
H   H27       1.0  0.73972  0.01025  0.66424  1.0000 0.1302205844
H   H28       1.0  0.44560  0.22534  0.34398  1.0000 0.1302205844
H   H29       1.0  0.10438  0.18904  0.37588  1.0000 0.1302205844
H   H30       1.0  0.41477  0.04404  0.33545  1.0000 0.1302205844
H   H31       1.0  0.69292  0.84515  0.19987  1.0000 0.1414648486
H   H32       1.0  0.02675  0.56602  0.37068  1.0000 0.1215608888
H   H33       1.0  0.69296  0.38734  0.24544  1.0000 0.1414648486
H   H34       1.0  0.83136  0.95792  0.49129  1.0000 0.1215608888
H   H35       1.0  0.88318  0.27432  0.51358  1.0000 0.1215608888
H   H36       1.0  0.76705  0.19167  0.70230  1.0000 0.1302205844
H   H37       1.0  0.53669  0.56090  0.38662  1.0000 0.1302205844
H   H38       1.0  0.76625  0.23659  0.87161  1.0000 0.1215608888
H   H39       1.0  0.75710  0.22427  0.04704  1.0000 0.1215608888
H   H40       1.0  0.27365  0.23554  0.35668  1.0000 0.1215608888
H   H41       1.0  0.52924  0.66551  0.37114  1.0000 0.1302205844
H   H42       1.0  0.24375  0.99730  0.34872  1.0000 0.1215608888
H   H43       1.0  0.73546  0.04454  0.00963  1.0000 0.1302205844
H   H44       1.0  0.07208  0.00840  0.36043  1.0000 0.1215608888
H   H45       1.0  0.68371  0.95053  0.19787  1.0000 0.1215608888
H   H46       1.0  0.73731  0.99961  0.83460  1.0000 0.1215608888
H   H47       1.0  0.83843  0.85431  0.50353  1.0000 0.1473292677
H   H48       1.0  0.68906  0.28196  0.23855  1.0000 0.1215608888
C   C1        1.0  0.13040  0.18040  0.63870  1.0000 -0.0615010796
C   C2        1.0  0.25240  0.63180  0.95480  1.0000 -0.0374173926
C   C3        1.0  0.22060  0.08410  0.62730  1.0000 0.0335202204
C   C4        1.0  0.31820  0.17890  0.63190  1.0000 -0.0726746402
C   C5        1.0  0.43960  0.62610  0.66410  1.0000 0.5682205973
C   C6        1.0  0.21100  0.89210  0.61520  1.0000 0.1962713418
C   C7        1.0  0.55240  0.63190  0.65870  1.0000 -0.0214226855
C   C8        1.0  0.03810  0.15040  0.63730  1.0000 -0.0726746402
C   C9        1.0  0.15200  0.85900  0.53560  1.0000 -0.2016740994
C   C10       1.0  0.25500  0.54430  0.29300  1.0000 -0.1113137684
C   C11       1.0  0.24390  0.60240  0.33490  1.0000 -0.0214226855
C   C12       1.0  0.24370  0.64630  0.16580  1.0000 0.0831386453
C   C13       1.0  0.32200  0.24520  0.63710  1.0000 0.4234975396
C   C14       1.0  0.59580  0.69110  0.65400  1.0000 -0.1113137684
C   C15       1.0  0.86740  0.65090  0.63150  1.0000 -0.150765154
C   C16       1.0  0.22220  0.14810  0.63320  1.0000 0.0369292466
C   C17       1.0  0.30970  0.98630  0.61390  1.0000 0.4292091174
C   C18       1.0  0.61370  0.58230  0.65880  1.0000 -0.150765154
C   C19       1.0  0.23260  0.33920  0.64700  1.0000 0.2097056327
C   C20       1.0  0.27980  0.36750  0.73990  1.0000 -0.2016740994
C   C21       1.0  0.03620  0.08650  0.63070  1.0000 -0.0726746402
C   C22       1.0  0.26860  0.86470  0.69920  1.0000 -0.1934475484
C   C23       1.0  0.25110  0.62360  0.84210  1.0000 0.5760005532
C   C24       1.0  0.19900  0.43490  0.56720  1.0000 0.1078476175
C   C25       1.0  0.15600  0.79710  0.54120  1.0000 0.1078476175
C   C26       1.0  0.23920  0.65320  0.27060  1.0000 -0.1678746673
C   C27       1.0  0.40350  0.08270  0.61930  1.0000 -0.0833801212
C   C28       1.0  0.23440  0.60990  0.44620  1.0000 0.5508827386
C   C29       1.0  0.23960  0.69810  0.10140  1.0000 -0.1612674775
C   C30       1.0  0.24470  0.69050  0.99590  1.0000 -0.0935161667
C   C31       1.0  0.31170  0.05330  0.62070  1.0000 -0.0542551311
C   C32       1.0  0.69840  0.69690  0.64640  1.0000 -0.1423609885
C   C33       1.0  0.04020  0.60700  0.62470  1.0000 0.5682205973
C   C34       1.0  0.25400  0.58760  0.12510  1.0000 0.0680451796
C   C35       1.0  0.40720  0.14550  0.62700  1.0000 -0.0833801212
C   C36       1.0  0.78420  0.53590  0.64760  1.0000 -0.150765154
C   C37       1.0  0.76420  0.64560  0.64300  1.0000 0.0680451796
C   C38       1.0  0.12300  0.05470  0.62630  1.0000 -0.0615010796
C   C39       1.0  0.25790  0.58280  0.01820  1.0000 -0.1423609885
C   C40       1.0  0.13240  0.24750  0.64390  1.0000 0.4292091174
C   C41       1.0  0.72080  0.58740  0.65030  1.0000 0.0680451796
C   C42       1.0  0.11790  0.98840  0.62050  1.0000 0.4234975396
C   C43       1.0  0.88570  0.54250  0.63950  1.0000 -0.1113137684
C   C44       1.0  0.28510  0.43080  0.74020  1.0000 0.1078476175
C   C45       1.0  0.92770  0.60050  0.63120  1.0000 -0.0214226855
C   C46       1.0  0.25790  0.53840  0.19200  1.0000 -0.1344004156
C   C47       1.0  0.19250  0.37290  0.55960  1.0000 -0.2060089292
C   C48       1.0  0.27060  0.80150  0.70320  1.0000 0.1078476175
C   C49       1.0  0.86960  0.68040  0.36130  1.0000 -0.0615010796
C   C50       1.0  0.74760  0.13180  0.04520  1.0000 -0.0374173926
C   C51       1.0  0.77940  0.58410  0.37270  1.0000 0.0335202204
C   C52       1.0  0.68180  0.67890  0.36810  1.0000 -0.0726746402
C   C53       1.0  0.56040  0.12610  0.33590  1.0000 0.5682205973
C   C54       1.0  0.78900  0.39210  0.38480  1.0000 0.1962713418
C   C55       1.0  0.44760  0.13190  0.34130  1.0000 -0.0214226855
C   C56       1.0  0.96190  0.65040  0.36270  1.0000 -0.0726746402
C   C57       1.0  0.84800  0.35900  0.46440  1.0000 -0.2016740994
C   C58       1.0  0.74500  0.04430  0.70700  1.0000 -0.1113137684
C   C59       1.0  0.75610  0.10240  0.66510  1.0000 -0.0214226855
C   C60       1.0  0.75630  0.14630  0.83420  1.0000 0.0831386453
C   C61       1.0  0.67800  0.74520  0.36290  1.0000 0.4234975396
C   C62       1.0  0.40420  0.19110  0.34600  1.0000 -0.1113137684
C   C63       1.0  0.13260  0.15090  0.36850  1.0000 -0.150765154
C   C64       1.0  0.77780  0.64810  0.36680  1.0000 0.0369292466
C   C65       1.0  0.69030  0.48630  0.38610  1.0000 0.4292091174
C   C66       1.0  0.38630  0.08230  0.34120  1.0000 -0.150765154
C   C67       1.0  0.76740  0.83920  0.35300  1.0000 0.2097056327
C   C68       1.0  0.72020  0.86750  0.26010  1.0000 -0.2016740994
C   C69       1.0  0.96380  0.58650  0.36930  1.0000 -0.0726746402
C   C70       1.0  0.73140  0.36470  0.30080  1.0000 -0.1934475484
C   C71       1.0  0.74890  0.12360  0.15790  1.0000 0.5760005532
C   C72       1.0  0.80100  0.93490  0.43280  1.0000 0.1078476175
C   C73       1.0  0.84400  0.29710  0.45880  1.0000 0.1078476175
C   C74       1.0  0.76080  0.15320  0.72940  1.0000 -0.1678746673
C   C75       1.0  0.59650  0.58270  0.38070  1.0000 -0.0833801212
C   C76       1.0  0.76560  0.10990  0.55380  1.0000 0.5508827386
C   C77       1.0  0.76040  0.19810  0.89860  1.0000 -0.1612674775
C   C78       1.0  0.75530  0.19050  0.00410  1.0000 -0.0935161667
C   C79       1.0  0.68830  0.55330  0.37930  1.0000 -0.0542551311
C   C80       1.0  0.30160  0.19690  0.35360  1.0000 -0.1423609885
C   C81       1.0  0.95980  0.10700  0.37530  1.0000 0.5682205973
C   C82       1.0  0.74600  0.08760  0.87490  1.0000 0.0680451796
C   C83       1.0  0.59280  0.64550  0.37300  1.0000 -0.0833801212
C   C84       1.0  0.21580  0.03590  0.35240  1.0000 -0.150765154
C   C85       1.0  0.23580  0.14560  0.35700  1.0000 0.0680451796
C   C86       1.0  0.87700  0.55470  0.37370  1.0000 -0.0615010796
C   C87       1.0  0.74210  0.08280  0.98180  1.0000 -0.1423609885
C   C88       1.0  0.86760  0.74750  0.35610  1.0000 0.4292091174
C   C89       1.0  0.27920  0.08740  0.34970  1.0000 0.0680451796
C   C90       1.0  0.88210  0.48840  0.37950  1.0000 0.4234975396
C   C91       1.0  0.11430  0.04250  0.36050  1.0000 -0.1113137684
C   C92       1.0  0.71490  0.93080  0.25980  1.0000 0.1078476175
C   C93       1.0  0.07230  0.10050  0.36880  1.0000 -0.0214226855
C   C94       1.0  0.74210  0.03840  0.80800  1.0000 -0.1344004156
C   C95       1.0  0.80750  0.87290  0.44040  1.0000 -0.2060089292
C   C96       1.0  0.72940  0.30150  0.29680  1.0000 0.1078476175
N   N1        1.0  0.21480  0.76890  0.62350  1.0000 -0.2202180246
N   N2        1.0  0.24710  0.46410  0.65530  1.0000 -0.2202180246
N   N3        1.0  0.21250  0.95860  0.61000  1.0000 -0.2370202424
N   N4        1.0  0.22860  0.27470  0.64280  1.0000 -0.2307919966
N   N5        1.0  0.78520  0.26890  0.37650  1.0000 -0.2202180246
N   N6        1.0  0.75290  0.96410  0.34470  1.0000 -0.2202180246
N   N7        1.0  0.78750  0.45860  0.39000  1.0000 -0.2370202424
N   N8        1.0  0.77140  0.77470  0.35720  1.0000 -0.2307919966
O   O1        1.0  0.07360  0.65990  0.61370  1.0000 -0.5291047178
O   O2        1.0  0.24080  0.67260  0.78800  1.0000 -0.5508958878
O   O3        1.0  0.24230  0.56290  0.49960  1.0000 -0.5291047178
O   O4        1.0  0.05570  0.27770  0.65000  1.0000 -0.4312285962
O   O5        1.0  0.09440  0.55890  0.63000  1.0000 -0.543131906
O   O6        1.0  0.38530  0.67330  0.65530  1.0000 -0.5291047178
O   O7        1.0  0.40010  0.27420  0.63480  1.0000 -0.4114029364
O   O8        1.0  0.38640  0.95630  0.60790  1.0000 -0.4199884119
O   O9        1.0  0.40730  0.57440  0.67490  1.0000 -0.5132284345
O   O10       1.0  0.25870  0.57190  0.80800  1.0000 -0.5179731729
O   O11       1.0  0.03960  0.95910  0.61930  1.0000 -0.4114029364
O   O12       1.0  0.22220  0.66240  0.47700  1.0000 -0.5179731729
O   O13       1.0  0.92640  0.15990  0.38630  1.0000 -0.5291047178
O   O14       1.0  0.75920  0.17260  0.21200  1.0000 -0.5508958878
O   O15       1.0  0.75770  0.06290  0.50040  1.0000 -0.5291047178
O   O16       1.0  0.94430  0.77770  0.35000  1.0000 -0.4312285962
O   O17       1.0  0.90560  0.05890  0.37000  1.0000 -0.543131906
O   O18       1.0  0.61470  0.17330  0.34470  1.0000 -0.5291047178
O   O19       1.0  0.59990  0.77420  0.36520  1.0000 -0.4114029364
O   O20       1.0  0.61360  0.45630  0.39210  1.0000 -0.4199884119
O   O21       1.0  0.59270  0.07440  0.32510  1.0000 -0.5132284345
O   O22       1.0  0.74130  0.07190  0.19200  1.0000 -0.5179731729
O   O23       1.0  0.96040  0.45910  0.38070  1.0000 -0.4114029364
O   O24       1.0  0.77780  0.16240  0.52300  1.0000 -0.5179731729
