# DDEC6 charges by PACMAN v1.1 (https://github.com/mtap-research/PACMAN-charge/)
data_2023[Cu][sql]2[FSR]5
_chemical_formula_sum              "Cu4 H32 C48 N12 O24 F4"
_cell_length_a       4.7345
_cell_length_b       14.709
_cell_length_c       20.7216
_cell_angle_alpha    85.8853
_cell_angle_beta     89.2707
_cell_angle_gamma    86.4535

_symmetry_space_group_name_H-M    "P 1"
_symmetry_Int_Tables_number       1

loop_
  _symmetry_equiv_pos_as_xyz
  'x, y, z'

loop_
  _atom_site_type_symbol
  _atom_site_label
  _atom_site_symmetry_multiplicity
  _atom_site_fract_x
  _atom_site_fract_y
  _atom_site_fract_z
  _atom_site_occupancy
  _atom_site_charge
Cu  Cu1       1.0  0.27724  0.67324  0.18706  1.0000 0.8116480986
Cu  Cu2       1.0  0.58466  0.36695  0.31368  1.0000 0.8116480986
Cu  Cu3       1.0  0.72276  0.32676  0.81294  1.0000 0.8116480986
Cu  Cu4       1.0  0.41534  0.63305  0.68632  1.0000 0.8116480986
H   H1        1.0  0.53163  0.77233  0.04857  1.0000 0.1371748428
H   H2        1.0  0.63026  0.67444  0.02410  1.0000 0.1499026398
H   H3        1.0  0.01388  0.65806  0.95097  1.0000 0.1611398476
H   H4        1.0  0.19901  0.34297  0.48521  1.0000 0.1499026398
H   H5        1.0  0.34354  0.26128  0.44682  1.0000 0.1371748428
H   H6        1.0  0.84421  0.31072  0.56318  1.0000 0.1611398476
H   H7        1.0  0.37049  0.86269  0.14048  1.0000 0.1128269595
H   H8        1.0  0.21728  0.00872  0.16164  1.0000 0.1292362082
H   H9        1.0  0.82396  0.90465  0.32203  1.0000 0.1292362082
H   H10       1.0  0.98083  0.76110  0.29470  1.0000 0.1128269595
H   H11       1.0  0.99191  0.28197  0.22424  1.0000 0.1167043562
H   H12       1.0  0.16330  0.13835  0.19970  1.0000 0.1292362082
H   H13       1.0  0.58017  0.03138  0.32258  1.0000 0.1292362082
H   H14       1.0  0.42614  0.17823  0.34440  1.0000 0.1128269595
H   H15       1.0  0.15600  0.95700  0.96170  1.0000 0.3203742931
H   H16       1.0  0.72600  0.04000  0.47400  1.0000 0.3203742931
H   H17       1.0  0.46837  0.22767  0.95143  1.0000 0.1371748428
H   H18       1.0  0.36974  0.32556  0.97590  1.0000 0.1499026398
H   H19       1.0  0.98612  0.34194  0.04903  1.0000 0.1611398476
H   H20       1.0  0.80099  0.65703  0.51479  1.0000 0.1499026398
H   H21       1.0  0.65646  0.73872  0.55318  1.0000 0.1371748428
H   H22       1.0  0.15579  0.68928  0.43682  1.0000 0.1611398476
H   H23       1.0  0.62951  0.13731  0.85952  1.0000 0.1128269595
H   H24       1.0  0.78272  0.99128  0.83836  1.0000 0.1292362082
H   H25       1.0  0.17604  0.09535  0.67797  1.0000 0.1292362082
H   H26       1.0  0.01917  0.23890  0.70530  1.0000 0.1128269595
H   H27       1.0  0.00809  0.71803  0.77576  1.0000 0.1167043562
H   H28       1.0  0.83670  0.86165  0.80030  1.0000 0.1292362082
H   H29       1.0  0.41983  0.96862  0.67742  1.0000 0.1292362082
H   H30       1.0  0.57386  0.82177  0.65560  1.0000 0.1128269595
H   H31       1.0  0.84400  0.04300  0.03830  1.0000 0.3203742931
H   H32       1.0  0.27400  0.96000  0.52600  1.0000 0.3203742931
C   C1        1.0  0.85120  0.70580  0.10422  1.0000 0.6241694371
C   C2        1.0  0.69850  0.73050  0.04079  1.0000 -0.2607754637
C   C3        1.0  0.04640  0.72090  0.95254  1.0000 -0.0933225733
C   C4        1.0  0.25080  0.75730  0.91616  1.0000 0.0589113309
C   C5        1.0  0.30880  0.85120  0.91599  1.0000 0.4048371593
C   C6        1.0  0.92700  0.86460  0.99700  1.0000 0.562070338
C   C7        1.0  0.01100  0.33080  0.39677  1.0000 0.6241694371
C   C8        1.0  0.16010  0.29230  0.45823  1.0000 -0.2607754637
C   C9        1.0  0.82230  0.25310  0.54644  1.0000 -0.0978074441
C   C10       1.0  0.63160  0.19850  0.57301  1.0000 0.0589113309
C   C11       1.0  0.57770  0.11340  0.54777  1.0000 0.4189814906
C   C12       1.0  0.95500  0.14580  0.46751  1.0000 0.562070338
C   C13       1.0  0.25300  0.87150  0.17728  1.0000 0.0924692879
C   C14       1.0  0.16430  0.95870  0.18985  1.0000 -0.1592392345
C   C15       1.0  0.99650  0.97420  0.24391  1.0000 0.1167043562
C   C16       1.0  0.93270  0.89780  0.28365  1.0000 -0.1826856528
C   C17       1.0  0.02770  0.81250  0.26710  1.0000 0.0924692879
C   C18       1.0  0.90800  0.23020  0.24450  1.0000 0.0924692879
C   C19       1.0  0.01070  0.14480  0.22958  1.0000 -0.1826856528
C   C20       1.0  0.89060  0.06750  0.25839  1.0000 0.1167043562
C   C21       1.0  0.66880  0.08190  0.30177  1.0000 -0.1592392345
C   C22       1.0  0.57770  0.16970  0.31452  1.0000 0.0924692879
C   C23       1.0  0.39940  0.49380  0.22028  1.0000 0.4630627612
C   C24       1.0  0.45560  0.54610  0.27966  1.0000 0.4630627612
C   C25       1.0  0.14880  0.29420  0.89578  1.0000 0.6241694371
C   C26       1.0  0.30150  0.26950  0.95921  1.0000 -0.2607754637
C   C27       1.0  0.95360  0.27910  0.04746  1.0000 -0.0933225733
C   C28       1.0  0.74920  0.24270  0.08384  1.0000 0.0589113309
C   C29       1.0  0.69120  0.14880  0.08401  1.0000 0.4048371593
C   C30       1.0  0.07300  0.13540  0.00300  1.0000 0.562070338
C   C31       1.0  0.98900  0.66920  0.60323  1.0000 0.6241694371
C   C32       1.0  0.83990  0.70770  0.54177  1.0000 -0.2607754637
C   C33       1.0  0.17770  0.74690  0.45356  1.0000 -0.0978074441
C   C34       1.0  0.36840  0.80150  0.42699  1.0000 0.0589113309
C   C35       1.0  0.42230  0.88660  0.45223  1.0000 0.4189814906
C   C36       1.0  0.04500  0.85420  0.53249  1.0000 0.562070338
C   C37       1.0  0.74700  0.12850  0.82272  1.0000 0.0924692879
C   C38       1.0  0.83570  0.04130  0.81015  1.0000 -0.1592392345
C   C39       1.0  0.00350  0.02580  0.75609  1.0000 0.1128269595
C   C40       1.0  0.06730  0.10220  0.71635  1.0000 -0.1826856528
C   C41       1.0  0.97230  0.18750  0.73290  1.0000 0.0924692879
C   C42       1.0  0.09200  0.76980  0.75550  1.0000 0.0924692879
C   C43       1.0  0.98930  0.85520  0.77042  1.0000 -0.1826856528
C   C44       1.0  0.10940  0.93250  0.74161  1.0000 0.1167043562
C   C45       1.0  0.33120  0.91810  0.69823  1.0000 -0.1592392345
C   C46       1.0  0.42230  0.83030  0.68548  1.0000 0.0924692879
C   C47       1.0  0.60060  0.50620  0.77972  1.0000 0.4630627612
C   C48       1.0  0.54440  0.45390  0.72034  1.0000 0.4630627612
N   N1        1.0  0.88180  0.77408  0.99242  1.0000 -0.0773830434
N   N2        1.0  0.13230  0.89920  0.95680  1.0000 -0.4238313456
N   N3        1.0  0.98700  0.22730  0.49538  1.0000 -0.0738879946
N   N4        1.0  0.75060  0.09290  0.49613  1.0000 -0.4300525804
N   N5        1.0  0.18240  0.79810  0.21430  1.0000 -0.2281600257
N   N6        1.0  0.69420  0.24342  0.28645  1.0000 -0.2352599074
N   N7        1.0  0.11820  0.22592  0.00758  1.0000 -0.0773830434
N   N8        1.0  0.86770  0.10080  0.04320  1.0000 -0.4238313456
N   N9        1.0  0.01300  0.77270  0.50462  1.0000 -0.0738879946
N   N10       1.0  0.24940  0.90710  0.50387  1.0000 -0.4300525804
N   N11       1.0  0.81760  0.20190  0.78570  1.0000 -0.2281600257
N   N12       1.0  0.30580  0.75658  0.71355  1.0000 -0.2352599074
O   O1        1.0  0.11830  0.70402  0.10162  1.0000 -0.5194586833
O   O2        1.0  0.71320  0.68797  0.15421  1.0000 -0.5728996863
O   O3        1.0  0.79210  0.91105  0.03482  1.0000 -0.4989331682
O   O4        1.0  0.49390  0.88880  0.88422  1.0000 -0.4491194755
O   O5        1.0  0.74400  0.33382  0.39880  1.0000 -0.5194586833
O   O6        1.0  0.15000  0.35650  0.34857  1.0000 -0.5728996863
O   O7        1.0  0.09330  0.12265  0.42140  1.0000 -0.4728858193
O   O8        1.0  0.39240  0.06272  0.56789  1.0000 -0.4728858193
O   O9        1.0  0.30180  0.54041  0.17177  1.0000 -0.4491194755
O   O10       1.0  0.45420  0.40975  0.22568  1.0000 -0.463816764
O   O11       1.0  0.39510  0.63011  0.27549  1.0000 -0.4728858193
O   O12       1.0  0.55740  0.50008  0.32804  1.0000 -0.4491194755
O   O13       1.0  0.88170  0.29598  0.89838  1.0000 -0.5194586833
O   O14       1.0  0.28680  0.31203  0.84579  1.0000 -0.5728996863
O   O15       1.0  0.20790  0.08895  0.96518  1.0000 -0.4989331682
O   O16       1.0  0.50610  0.11120  0.11578  1.0000 -0.4491194755
O   O17       1.0  0.25600  0.66618  0.60120  1.0000 -0.5194586833
O   O18       1.0  0.85000  0.64350  0.65143  1.0000 -0.5728996863
O   O19       1.0  0.90670  0.87735  0.57860  1.0000 -0.4728858193
O   O20       1.0  0.60760  0.93728  0.43211  1.0000 -0.4728858193
O   O21       1.0  0.69820  0.45959  0.82823  1.0000 -0.4491194755
O   O22       1.0  0.54580  0.59025  0.77432  1.0000 -0.463816764
O   O23       1.0  0.60490  0.36989  0.72451  1.0000 -0.4728858193
O   O24       1.0  0.44260  0.49992  0.67196  1.0000 -0.4491194755
F   F1        1.0  0.41550  0.70517  0.87842  1.0000 -0.0978074441
F   F2        1.0  0.46880  0.22390  0.62264  1.0000 -0.0978074441
F   F3        1.0  0.58450  0.29483  0.12158  1.0000 -0.0978074441
F   F4        1.0  0.53120  0.77610  0.37736  1.0000 -0.0978074441
