# DDEC6 charges by PACMAN v1.1 (https://github.com/mtap-research/PACMAN-charge/)
data_2023[Co][gfy]3[FSR]1
_chemical_formula_sum              "Co6 H46 C78 N6 O32"
_cell_length_a       10.1376
_cell_length_b       16.1471
_cell_length_c       17.349
_cell_angle_alpha    101.501
_cell_angle_beta     103.174
_cell_angle_gamma    96.354

_symmetry_space_group_name_H-M    "P 1"
_symmetry_Int_Tables_number       1

loop_
  _symmetry_equiv_pos_as_xyz
  'x, y, z'

loop_
  _atom_site_type_symbol
  _atom_site_label
  _atom_site_symmetry_multiplicity
  _atom_site_fract_x
  _atom_site_fract_y
  _atom_site_fract_z
  _atom_site_occupancy
  _atom_site_charge
Co  Co1       1.0  0.02618  0.14462  0.17549  1.0000 0.9126404856
Co  Co2       1.0  0.97382  0.85538  0.82451  1.0000 0.9126404856
Co  Co3       1.0  0.62751  0.44441  0.17271  1.0000 0.8465735053
Co  Co4       1.0  0.37249  0.55559  0.82729  1.0000 0.8465735053
Co  Co5       1.0  0.35975  0.31365  0.26039  1.0000 1.005923066
Co  Co6       1.0  0.64025  0.68635  0.73961  1.0000 1.0038163994
H   H1        1.0  0.15449  0.12823  0.31733  1.0000 0.3646996354
H   H2        1.0  0.84551  0.87177  0.68267  1.0000 0.3653620218
H   H3        1.0  0.03318  0.07037  0.29522  1.0000 0.3646996354
H   H4        1.0  0.96682  0.92963  0.70478  1.0000 0.3653620218
H   H5        1.0  0.07777  0.72414  0.90727  1.0000 0.1328590154
H   H6        1.0  0.92223  0.27586  0.09273  1.0000 0.1328590154
H   H7        1.0  0.92123  0.61199  0.06238  1.0000 0.1328590154
H   H8        1.0  0.07877  0.38801  0.93762  1.0000 0.1328590154
H   H9        1.0  0.26049  0.96001  0.09333  1.0000 0.1384452646
H   H10       1.0  0.73951  0.03999  0.90667  1.0000 0.1384452646
H   H11       1.0  0.34467  0.73147  0.90723  1.0000 0.1328590154
H   H12       1.0  0.65533  0.26853  0.09277  1.0000 0.1328590154
H   H13       1.0  0.32261  0.58568  0.09132  1.0000 0.1384452646
H   H14       1.0  0.67739  0.41432  0.90868  1.0000 0.1384452646
H   H15       1.0  0.58211  0.57732  0.99585  1.0000 0.1185269539
H   H16       1.0  0.41789  0.42268  0.00415  1.0000 0.1185269539
H   H17       1.0  0.85499  0.31104  0.24615  1.0000 0.1384452646
H   H18       1.0  0.14501  0.68896  0.75385  1.0000 0.1384452646
H   H19       1.0  0.06892  0.43079  0.17305  1.0000 0.1328590154
H   H20       1.0  0.93108  0.56921  0.82695  1.0000 0.1328590154
H   H21       1.0  0.65935  0.67564  0.12083  1.0000 0.1328590154
H   H22       1.0  0.34065  0.32436  0.87917  1.0000 0.1328590154
H   H23       1.0  0.92021  0.92261  0.99532  1.0000 0.1136753817
H   H24       1.0  0.07979  0.07739  0.00468  1.0000 0.1136753817
H   H25       1.0  0.56869  0.80360  0.14092  1.0000 0.1328590154
H   H26       1.0  0.43131  0.19640  0.85908  1.0000 0.1328590154
H   H27       1.0  0.74712  0.36320  0.46059  1.0000 0.1498526593
H   H28       1.0  0.25288  0.63680  0.53941  1.0000 0.1498526593
H   H29       1.0  0.58153  0.15639  0.17674  1.0000 0.1328590154
H   H30       1.0  0.41847  0.84361  0.82326  1.0000 0.1328590154
H   H31       1.0  0.63796  0.92211  0.06443  1.0000 0.1384452646
H   H32       1.0  0.36204  0.07789  0.93557  1.0000 0.1384452646
H   H33       1.0  0.95593  0.88909  0.12148  1.0000 0.1328590154
H   H34       1.0  0.04407  0.11091  0.87852  1.0000 0.1328590154
H   H35       1.0  0.14339  0.35130  0.46058  1.0000 0.1328590154
H   H36       1.0  0.85661  0.64870  0.53942  1.0000 0.1328590154
H   H37       1.0  0.06287  0.76850  0.14152  1.0000 0.1384452646
H   H38       1.0  0.93713  0.23150  0.85848  1.0000 0.1384452646
H   H39       1.0  0.11888  0.49558  0.67397  1.0000 0.1328590154
H   H40       1.0  0.88112  0.50442  0.32603  1.0000 0.1328590154
H   H41       1.0  0.43383  0.38135  0.74576  1.0000 0.1185269539
H   H42       1.0  0.56617  0.61865  0.25424  1.0000 0.1185269539
H   H43       1.0  0.12136  0.25558  0.55373  1.0000 0.1328590154
H   H44       1.0  0.87864  0.74442  0.44627  1.0000 0.1328590154
H   H45       1.0  0.33426  0.25958  0.64591  1.0000 0.1185269539
H   H46       1.0  0.66574  0.74042  0.35409  1.0000 0.1185269539
C   C1        1.0  0.63590  0.33840  0.30260  1.0000 0.5749174987
C   C2        1.0  0.36410  0.66160  0.69740  1.0000 0.5749174987
C   C3        1.0  0.05410  0.75870  0.95160  1.0000 -0.0205661885
C   C4        1.0  0.94590  0.24130  0.04840  1.0000 -0.0205661885
C   C5        1.0  0.78040  0.33900  0.34720  1.0000 -0.0104926149
C   C6        1.0  0.21960  0.66100  0.65280  1.0000 -0.0104926149
C   C7        1.0  0.99560  0.58390  0.08120  1.0000 -0.2285282155
C   C8        1.0  0.00440  0.41610  0.91880  1.0000 -0.2285282155
C   C9        1.0  0.35460  0.98180  0.10060  1.0000 -0.2163433697
C   C10       1.0  0.64540  0.01820  0.89940  1.0000 -0.2163433697
C   C11       1.0  0.40800  0.71930  0.95150  1.0000 -0.0104926149
C   C12       1.0  0.59200  0.28070  0.04850  1.0000 -0.0104926149
C   C13       1.0  0.33140  0.45920  0.16890  1.0000 0.5820331608
C   C14       1.0  0.66860  0.54080  0.83110  1.0000 0.5820331608
C   C15       1.0  0.01420  0.32770  0.34750  1.0000 0.0065452789
C   C16       1.0  0.98580  0.67230  0.65250  1.0000 0.0065452789
C   C17       1.0  0.97820  0.51840  0.11920  1.0000 0.0182731065
C   C18       1.0  0.02180  0.48160  0.88080  1.0000 0.0182731065
C   C19       1.0  0.23460  0.56790  0.09860  1.0000 -0.2113767126
C   C20       1.0  0.76540  0.43210  0.90140  1.0000 -0.2113767126
C   C21       1.0  0.40610  0.06650  0.13910  1.0000 -0.004046065
C   C22       1.0  0.59390  0.93350  0.86090  1.0000 -0.004046065
C   C23       1.0  0.31390  0.12460  0.16960  1.0000 0.5820331608
C   C24       1.0  0.68610  0.87540  0.83040  1.0000 0.5820331608
C   C25       1.0  0.44660  0.77880  0.02540  1.0000 0.2000802218
C   C26       1.0  0.55340  0.22120  0.97460  1.0000 0.2000802218
C   C27       1.0  0.54760  0.62990  0.00300  1.0000 0.0677853783
C   C28       1.0  0.45240  0.37010  0.99700  1.0000 0.0677853783
C   C29       1.0  0.08130  0.73680  0.02610  1.0000 0.2000802218
C   C30       1.0  0.91870  0.26320  0.97390  1.0000 0.2000802218
C   C31       1.0  0.87930  0.32380  0.30390  1.0000 -0.1308547056
C   C32       1.0  0.12070  0.67620  0.69610  1.0000 -0.1308547056
C   C33       1.0  0.83940  0.49020  0.13310  1.0000 0.5375799273
C   C34       1.0  0.16060  0.50980  0.86690  1.0000 0.5375799273
C   C35       1.0  0.08390  0.47630  0.14710  1.0000 -0.139731359
C   C36       1.0  0.91610  0.52370  0.85290  1.0000 -0.139731359
C   C37       1.0  0.21440  0.50210  0.13650  1.0000 -0.0104926149
C   C38       1.0  0.78560  0.49790  0.86350  1.0000 -0.0104926149
C   C39       1.0  0.78140  0.07790  0.14080  1.0000 0.5315046047
C   C40       1.0  0.21860  0.92210  0.85920  1.0000 0.5315046047
C   C41       1.0  0.59300  0.68790  0.07810  1.0000 -0.1121061075
C   C42       1.0  0.40700  0.31210  0.92190  1.0000 -0.1121061075
C   C43       1.0  0.44030  0.92850  0.07240  1.0000 0.2599486445
C   C44       1.0  0.55970  0.07150  0.92760  1.0000 0.2599486445
C   C45       1.0  0.96140  0.87380  0.00300  1.0000 0.0677853783
C   C46       1.0  0.03860  0.12620  0.99700  1.0000 0.0677853783
C   C47       1.0  0.63070  0.04260  0.12390  1.0000 0.0182731065
C   C48       1.0  0.36930  0.95740  0.87610  1.0000 0.0182731065
C   C49       1.0  0.54070  0.76340  0.08980  1.0000 -0.1692133288
C   C50       1.0  0.45930  0.23660  0.91020  1.0000 -0.1692133288
C   C51       1.0  0.81550  0.35550  0.43150  1.0000 -0.2113767126
C   C52       1.0  0.18450  0.64450  0.56850  1.0000 -0.2113767126
C   C53       1.0  0.54550  0.09810  0.15080  1.0000 -0.139731359
C   C54       1.0  0.45450  0.90190  0.84920  1.0000 -0.139731359
C   C55       1.0  0.57970  0.95880  0.08390  1.0000 -0.2366139556
C   C56       1.0  0.42030  0.04120  0.91610  1.0000 -0.2366139556
C   C57       1.0  0.12260  0.30940  0.30280  1.0000 0.5820331608
C   C58       1.0  0.87740  0.69060  0.69720  1.0000 0.5820331608
C   C59       1.0  0.12440  0.60800  0.07100  1.0000 0.2484399413
C   C60       1.0  0.87560  0.39200  0.92900  1.0000 0.2484399413
C   C61       1.0  0.98300  0.85470  0.07850  1.0000 -0.1121061075
C   C62       1.0  0.01700  0.14530  0.92150  1.0000 -0.1121061075
C   C63       1.0  0.95110  0.36060  0.47280  1.0000 0.241643313
C   C64       1.0  0.04890  0.63940  0.52720  1.0000 0.241643313
C   C65       1.0  0.05050  0.34720  0.43150  1.0000 -0.2285282155
C   C66       1.0  0.94950  0.65280  0.56850  1.0000 -0.2285282155
C   C67       1.0  0.04580  0.78360  0.09040  1.0000 -0.1692133288
C   C68       1.0  0.95420  0.21640  0.90960  1.0000 -0.1692133288
C   C69       1.0  0.16530  0.44760  0.66780  1.0000 -0.0205661885
C   C70       1.0  0.83470  0.55240  0.33220  1.0000 -0.0205661885
C   C71       1.0  0.10430  0.37690  0.60660  1.0000 0.2000802218
C   C72       1.0  0.89570  0.62310  0.39340  1.0000 0.2000802218
C   C73       1.0  0.34760  0.38090  0.70970  1.0000 0.0439190638
C   C74       1.0  0.65240  0.61910  0.29030  1.0000 0.0439190638
C   C75       1.0  0.16360  0.30490  0.59590  1.0000 -0.1566117074
C   C76       1.0  0.83640  0.69510  0.40410  1.0000 -0.1566117074
C   C77       1.0  0.28880  0.30810  0.65010  1.0000 -0.1308547056
C   C78       1.0  0.71120  0.69190  0.34990  1.0000 -0.1308547056
N   N1        1.0  0.45650  0.64560  0.94010  1.0000 -0.2113767126
N   N2        1.0  0.54350  0.35440  0.05990  1.0000 -0.2163433697
N   N3        1.0  0.99570  0.82690  0.94010  1.0000 -0.2285282155
N   N4        1.0  0.00430  0.17310  0.05990  1.0000 -0.2285282155
N   N5        1.0  0.28800  0.45200  0.71940  1.0000 -0.2163433697
N   N6        1.0  0.71200  0.54800  0.28060  1.0000 -0.2163433697
O   O1        1.0  0.60790  0.34670  0.23100  1.0000 -0.5607737865
O   O2        1.0  0.39210  0.65330  0.76900  1.0000 -0.5607737865
O   O3        1.0  0.44710  0.48710  0.16170  1.0000 -0.553209659
O   O4        1.0  0.55290  0.51290  0.83830  1.0000 -0.553209659
O   O5        1.0  0.82810  0.42920  0.16800  1.0000 -0.5256774093
O   O6        1.0  0.17190  0.57080  0.83200  1.0000 -0.5256774093
O   O7        1.0  0.74000  0.52870  0.11270  1.0000 -0.553209659
O   O8        1.0  0.26000  0.47130  0.88730  1.0000 -0.553209659
O   O9        1.0  0.19380  0.09220  0.16440  1.0000 -0.5692060854
O   O10       1.0  0.80620  0.90780  0.83560  1.0000 -0.5692060854
O   O11       1.0  0.08790  0.27330  0.22740  1.0000 -0.5878568555
O   O12       1.0  0.91210  0.72670  0.77260  1.0000 -0.5878568555
O   O13       1.0  0.86580  0.02900  0.12730  1.0000 -0.5692060854
O   O14       1.0  0.13420  0.97100  0.87270  1.0000 -0.5692060854
O   O15       1.0  0.82040  0.15620  0.17140  1.0000 -0.5186665322
O   O16       1.0  0.17960  0.84380  0.82860  1.0000 -0.5186665322
O   O17       1.0  0.54260  0.32900  0.33990  1.0000 -0.5387377704
O   O18       1.0  0.45740  0.67100  0.66010  1.0000 -0.5387377704
O   O19       1.0  0.15600  0.67060  0.03020  1.0000 -0.2029794345
O   O20       1.0  0.84400  0.32940  0.96980  1.0000 -0.2029794345
O   O21       1.0  0.24580  0.32970  0.34150  1.0000 -0.5387377704
O   O22       1.0  0.75420  0.67030  0.65850  1.0000 -0.5387377704
O   O23       1.0  0.37580  0.84740  0.02940  1.0000 -0.1942459609
O   O24       1.0  0.62420  0.15260  0.97060  1.0000 -0.1942459609
O   O25       1.0  0.30360  0.39830  0.20040  1.0000 -0.5607737865
O   O26       1.0  0.69640  0.60170  0.79960  1.0000 -0.5607737865
O   O27       1.0  0.36630  0.20180  0.19770  1.0000 -0.5607737865
O   O28       1.0  0.63370  0.79820  0.80230  1.0000 -0.5607737865
O   O29       1.0  0.97780  0.38200  0.55760  1.0000 -0.2113767126
O   O30       1.0  0.02220  0.61800  0.44240  1.0000 -0.2113767126
O   O31       1.0  0.06560  0.12370  0.29680  1.0000 -0.654857185
O   O32       1.0  0.93440  0.87630  0.70320  1.0000 -0.6568949486
