# DDEC6 charges by PACMAN v1.1 (https://github.com/mtap-research/PACMAN-charge/)
data_2023[Cd][hex]3[FSR]1
_chemical_formula_sum              "Cd4 H104 C180 S8 N8 O16 F32"
_cell_length_a       9.5896
_cell_length_b       37.3061
_cell_length_c       15.593
_cell_angle_alpha    90
_cell_angle_beta     103.285
_cell_angle_gamma    90

_symmetry_space_group_name_H-M    "P 1"
_symmetry_Int_Tables_number       1

loop_
  _symmetry_equiv_pos_as_xyz
  'x, y, z'

loop_
  _atom_site_type_symbol
  _atom_site_label
  _atom_site_symmetry_multiplicity
  _atom_site_fract_x
  _atom_site_fract_y
  _atom_site_fract_z
  _atom_site_occupancy
  _atom_site_charge
Cd  Cd1       1.0  0.50320  0.49266  0.14445  1.0000 0.871411731
Cd  Cd2       1.0  0.49680  0.99266  0.35555  1.0000 0.871411731
Cd  Cd3       1.0  0.49680  0.50734  0.85555  1.0000 0.871411731
Cd  Cd4       1.0  0.50320  0.00734  0.64445  1.0000 0.871411731
H   H1        1.0  0.86568  0.45447  0.04229  1.0000 0.1178764902
H   H2        1.0  0.13432  0.95447  0.45771  1.0000 0.1178764902
H   H3        1.0  0.13432  0.54553  0.95771  1.0000 0.1178764902
H   H4        1.0  0.86568  0.04553  0.54229  1.0000 0.1178764902
H   H5        1.0  0.03265  0.41206  0.11675  1.0000 0.1103251057
H   H6        1.0  0.96735  0.91206  0.38325  1.0000 0.1103251057
H   H7        1.0  0.96735  0.58794  0.88325  1.0000 0.1103251057
H   H8        1.0  0.03265  0.08794  0.61675  1.0000 0.1103251057
H   H9        1.0  0.16538  0.42630  0.89080  1.0000 0.1178764902
H   H10       1.0  0.83462  0.92630  0.60920  1.0000 0.1178764902
H   H11       1.0  0.83462  0.57370  0.10920  1.0000 0.1178764902
H   H12       1.0  0.16538  0.07370  0.39080  1.0000 0.1178764902
H   H13       1.0  0.09617  0.35146  0.11805  1.0000 0.1483296059
H   H14       1.0  0.90383  0.85146  0.38195  1.0000 0.1483296059
H   H15       1.0  0.90383  0.64854  0.88195  1.0000 0.1483296059
H   H16       1.0  0.09617  0.14854  0.61805  1.0000 0.1483296059
H   H17       1.0  0.50117  0.57198  0.05031  1.0000 0.1103251057
H   H18       1.0  0.49883  0.07198  0.44969  1.0000 0.1103251057
H   H19       1.0  0.49883  0.42802  0.94969  1.0000 0.1103251057
H   H20       1.0  0.50117  0.92802  0.55031  1.0000 0.1103251057
H   H21       1.0  0.39803  0.62802  0.04584  1.0000 0.1286325022
H   H22       1.0  0.60197  0.12802  0.45416  1.0000 0.1286325022
H   H23       1.0  0.60197  0.37198  0.95416  1.0000 0.1286325022
H   H24       1.0  0.39803  0.87198  0.54584  1.0000 0.1286325022
H   H25       1.0  0.55757  0.85171  0.37958  1.0000 0.1286325022
H   H26       1.0  0.44243  0.35171  0.12042  1.0000 0.1286325022
H   H27       1.0  0.44243  0.14829  0.62042  1.0000 0.1286325022
H   H28       1.0  0.55757  0.64829  0.87958  1.0000 0.1286325022
H   H29       1.0  0.08102  0.82239  0.28325  1.0000 0.1286325022
H   H30       1.0  0.91898  0.32239  0.21675  1.0000 0.1286325022
H   H31       1.0  0.91898  0.17761  0.71675  1.0000 0.1286325022
H   H32       1.0  0.08102  0.67761  0.78325  1.0000 0.1286325022
H   H33       1.0  0.14579  0.88290  0.28746  1.0000 0.1403442139
H   H34       1.0  0.85421  0.38290  0.21254  1.0000 0.1403442139
H   H35       1.0  0.85421  0.11710  0.71254  1.0000 0.1403442139
H   H36       1.0  0.14579  0.61710  0.78746  1.0000 0.1403442139
H   H37       1.0  0.23700  0.36642  0.89444  1.0000 0.1483296059
H   H38       1.0  0.76300  0.86642  0.60556  1.0000 0.1483296059
H   H39       1.0  0.76300  0.63358  0.10556  1.0000 0.1483296059
H   H40       1.0  0.23700  0.13358  0.39444  1.0000 0.1483296059
H   H41       1.0  0.25807  0.53552  0.20293  1.0000 0.1178764902
H   H42       1.0  0.74193  0.03552  0.29707  1.0000 0.1178764902
H   H43       1.0  0.74193  0.46448  0.79707  1.0000 0.1178764902
H   H44       1.0  0.25807  0.96448  0.70293  1.0000 0.1178764902
H   H45       1.0  0.14734  0.59043  0.20267  1.0000 0.1403442139
H   H46       1.0  0.85266  0.09043  0.29733  1.0000 0.1403442139
H   H47       1.0  0.85266  0.40957  0.79733  1.0000 0.1403442139
H   H48       1.0  0.14734  0.90957  0.70267  1.0000 0.1403442139
H   H49       1.0  0.08618  0.64734  0.22609  1.0000 0.1286325022
H   H50       1.0  0.91382  0.14734  0.27391  1.0000 0.1286325022
H   H51       1.0  0.91382  0.35266  0.77391  1.0000 0.1286325022
H   H52       1.0  0.08618  0.85266  0.72609  1.0000 0.1286325022
H   H53       1.0  0.62336  0.91138  0.39087  1.0000 0.1103251057
H   H54       1.0  0.37664  0.41138  0.10913  1.0000 0.1103251057
H   H55       1.0  0.37664  0.08862  0.60913  1.0000 0.1103251057
H   H56       1.0  0.62336  0.58862  0.89087  1.0000 0.1103251057
H   H57       1.0  0.22573  0.94140  0.29943  1.0000 0.1286325022
H   H58       1.0  0.77427  0.44140  0.20057  1.0000 0.1286325022
H   H59       1.0  0.77427  0.05860  0.70057  1.0000 0.1286325022
H   H60       1.0  0.22573  0.55860  0.79943  1.0000 0.1286325022
H   H61       1.0  0.36482  0.70760  0.29315  1.0000 0.1403442139
H   H62       1.0  0.63518  0.20760  0.20685  1.0000 0.1403442139
H   H63       1.0  0.63518  0.29240  0.70685  1.0000 0.1403442139
H   H64       1.0  0.36482  0.79240  0.79315  1.0000 0.1403442139
H   H65       1.0  0.42952  0.71594  0.39522  1.0000 0.1483296059
H   H66       1.0  0.57048  0.21594  0.10478  1.0000 0.1483296059
H   H67       1.0  0.57048  0.28406  0.60478  1.0000 0.1483296059
H   H68       1.0  0.42952  0.78406  0.89522  1.0000 0.1483296059
H   H69       1.0  0.26629  0.70342  0.36262  1.0000 0.1403442139
H   H70       1.0  0.73371  0.20342  0.13738  1.0000 0.1403442139
H   H71       1.0  0.73371  0.29658  0.63738  1.0000 0.1403442139
H   H72       1.0  0.26629  0.79658  0.86262  1.0000 0.1403442139
H   H73       1.0  0.29687  0.44870  0.64719  1.0000 0.1286325022
H   H74       1.0  0.70313  0.94870  0.85281  1.0000 0.1286325022
H   H75       1.0  0.70313  0.55130  0.35281  1.0000 0.1286325022
H   H76       1.0  0.29687  0.05130  0.14719  1.0000 0.1286325022
H   H77       1.0  0.28617  0.39526  0.72437  1.0000 0.1483296059
H   H78       1.0  0.71383  0.89526  0.77563  1.0000 0.1483296059
H   H79       1.0  0.71383  0.60474  0.27563  1.0000 0.1483296059
H   H80       1.0  0.28617  0.10474  0.22437  1.0000 0.1483296059
H   H81       1.0  0.64029  0.41063  0.56546  1.0000 0.1178764902
H   H82       1.0  0.35971  0.91063  0.93454  1.0000 0.1178764902
H   H83       1.0  0.35971  0.58937  0.43454  1.0000 0.1178764902
H   H84       1.0  0.64029  0.08937  0.06546  1.0000 0.1178764902
H   H85       1.0  0.20798  0.76991  0.13040  1.0000 0.1403442139
H   H86       1.0  0.79202  0.26991  0.36960  1.0000 0.1403442139
H   H87       1.0  0.79202  0.23009  0.86960  1.0000 0.1403442139
H   H88       1.0  0.20798  0.73009  0.63040  1.0000 0.1403442139
H   H89       1.0  0.14821  0.75794  0.03012  1.0000 0.1483296059
H   H90       1.0  0.85179  0.25794  0.46988  1.0000 0.1483296059
H   H91       1.0  0.85179  0.24206  0.96988  1.0000 0.1483296059
H   H92       1.0  0.14821  0.74206  0.53012  1.0000 0.1483296059
H   H93       1.0  0.03919  0.76552  0.09183  1.0000 0.1483296059
H   H94       1.0  0.96081  0.26552  0.40817  1.0000 0.1483296059
H   H95       1.0  0.96081  0.23448  0.90817  1.0000 0.1483296059
H   H96       1.0  0.03919  0.73448  0.59183  1.0000 0.1483296059
H   H97       1.0  0.49484  0.44374  0.43616  1.0000 0.1178764902
H   H98       1.0  0.50516  0.94374  0.06384  1.0000 0.1178764902
H   H99       1.0  0.50516  0.55626  0.56384  1.0000 0.1178764902
H   H100      1.0  0.49484  0.05626  0.93616  1.0000 0.1178764902
H   H101      1.0  0.62935  0.35725  0.64219  1.0000 0.1403442139
H   H102      1.0  0.37065  0.85725  0.85781  1.0000 0.1403442139
H   H103      1.0  0.37065  0.64275  0.35781  1.0000 0.1403442139
H   H104      1.0  0.62935  0.14275  0.14219  1.0000 0.1403442139
C   C1        1.0  0.04950  0.46386  0.00370  1.0000 0.0525698844
C   C2        1.0  0.95050  0.96386  0.49630  1.0000 0.0525698844
C   C3        1.0  0.95050  0.53614  0.99630  1.0000 0.0525698844
C   C4        1.0  0.04950  0.03614  0.50370  1.0000 0.0525698844
C   C5        1.0  0.92130  0.47297  0.02480  1.0000 -0.1637524678
C   C6        1.0  0.07870  0.97297  0.47520  1.0000 -0.1637524678
C   C7        1.0  0.07870  0.52703  0.97520  1.0000 -0.1637524678
C   C8        1.0  0.92130  0.02703  0.52480  1.0000 -0.1637524678
C   C9        1.0  0.87050  0.50797  0.02150  1.0000 -0.0516010993
C   C10       1.0  0.12950  0.00797  0.47850  1.0000 -0.0516010993
C   C11       1.0  0.12950  0.49203  0.97850  1.0000 -0.0516010993
C   C12       1.0  0.87050  0.99203  0.52150  1.0000 -0.0516010993
C   C13       1.0  0.09380  0.42561  0.00440  1.0000 0.0525698844
C   C14       1.0  0.90620  0.92561  0.49560  1.0000 0.0525698844
C   C15       1.0  0.90620  0.57439  0.99560  1.0000 0.0525698844
C   C16       1.0  0.09380  0.07439  0.50440  1.0000 0.0525698844
C   C17       1.0  0.72670  0.51351  0.04200  1.0000 0.5713825575
C   C18       1.0  0.27330  0.01351  0.45800  1.0000 0.5713825575
C   C19       1.0  0.27330  0.48649  0.95800  1.0000 0.5713825575
C   C20       1.0  0.72670  0.98649  0.54200  1.0000 0.5713825575
C   C21       1.0  0.07350  0.40282  0.07130  1.0000 -0.1315496065
C   C22       1.0  0.92650  0.90282  0.42870  1.0000 -0.1315496065
C   C23       1.0  0.92650  0.59718  0.92870  1.0000 -0.1315496065
C   C24       1.0  0.07350  0.09718  0.57130  1.0000 -0.1315496065
C   C25       1.0  0.26320  0.61637  0.12610  1.0000 0.1286325022
C   C26       1.0  0.73680  0.11637  0.37390  1.0000 0.1286325022
C   C27       1.0  0.73680  0.38363  0.87390  1.0000 0.1286325022
C   C28       1.0  0.26320  0.88363  0.62610  1.0000 0.1286325022
C   C29       1.0  0.20230  0.65199  0.13190  1.0000 -0.0184194999
C   C30       1.0  0.79770  0.15199  0.36810  1.0000 -0.0184194999
C   C31       1.0  0.79770  0.34801  0.86810  1.0000 -0.0184194999
C   C32       1.0  0.20230  0.84801  0.63190  1.0000 -0.0184194999
C   C33       1.0  0.15320  0.41130  0.93780  1.0000 -0.1315496065
C   C34       1.0  0.84680  0.91130  0.56220  1.0000 -0.1315496065
C   C35       1.0  0.84680  0.58870  0.06220  1.0000 -0.1315496065
C   C36       1.0  0.15320  0.08870  0.43780  1.0000 -0.1315496065
C   C37       1.0  0.34360  0.86016  0.33260  1.0000 0.1286325022
C   C38       1.0  0.65640  0.36016  0.16740  1.0000 0.1286325022
C   C39       1.0  0.65640  0.13984  0.66740  1.0000 0.1286325022
C   C40       1.0  0.34360  0.63984  0.83260  1.0000 0.1286325022
C   C41       1.0  0.11160  0.36692  0.07270  1.0000 -0.2269721063
C   C42       1.0  0.88840  0.86692  0.42730  1.0000 -0.2269721063
C   C43       1.0  0.88840  0.63308  0.92730  1.0000 -0.2269721063
C   C44       1.0  0.11160  0.13308  0.57270  1.0000 -0.2269721063
C   C45       1.0  0.42930  0.57588  0.08220  1.0000 0.0902154665
C   C46       1.0  0.57070  0.07588  0.41780  1.0000 0.0902154665
C   C47       1.0  0.57070  0.42412  0.91780  1.0000 0.0902154665
C   C48       1.0  0.42930  0.92412  0.58220  1.0000 0.0902154665
C   C49       1.0  0.36830  0.60951  0.07950  1.0000 -0.207174797
C   C50       1.0  0.63170  0.10951  0.42050  1.0000 -0.207174797
C   C51       1.0  0.63170  0.39049  0.92050  1.0000 -0.207174797
C   C52       1.0  0.36830  0.89049  0.57950  1.0000 -0.207174797
C   C53       1.0  0.48650  0.86975  0.36300  1.0000 -0.207174797
C   C54       1.0  0.51350  0.36975  0.13700  1.0000 -0.207174797
C   C55       1.0  0.51350  0.13025  0.63700  1.0000 -0.207174797
C   C56       1.0  0.48650  0.63025  0.86300  1.0000 -0.207174797
C   C57       1.0  0.16520  0.80827  0.30100  1.0000 -0.207174797
C   C58       1.0  0.83480  0.30827  0.19900  1.0000 -0.207174797
C   C59       1.0  0.83480  0.19173  0.69900  1.0000 -0.207174797
C   C60       1.0  0.16520  0.69173  0.80100  1.0000 -0.207174797
C   C61       1.0  0.24490  0.88791  0.30870  1.0000 -0.1933006145
C   C62       1.0  0.75510  0.38791  0.19130  1.0000 -0.1933006145
C   C63       1.0  0.75510  0.11209  0.69130  1.0000 -0.1933006145
C   C64       1.0  0.24490  0.61209  0.80870  1.0000 -0.1933006145
C   C65       1.0  0.19440  0.37581  0.93900  1.0000 -0.2269721063
C   C66       1.0  0.80560  0.87581  0.56100  1.0000 -0.2269721063
C   C67       1.0  0.80560  0.62419  0.06100  1.0000 -0.2269721063
C   C68       1.0  0.19440  0.12419  0.43900  1.0000 -0.2269721063
C   C69       1.0  0.28740  0.55471  0.17110  1.0000 0.0902154665
C   C70       1.0  0.71260  0.05471  0.32890  1.0000 0.0902154665
C   C71       1.0  0.71260  0.44529  0.82890  1.0000 0.0902154665
C   C72       1.0  0.28740  0.94529  0.67110  1.0000 0.0902154665
C   C73       1.0  0.16360  0.77005  0.30370  1.0000 0.024341614
C   C74       1.0  0.83640  0.27005  0.19630  1.0000 0.024341614
C   C75       1.0  0.83640  0.22995  0.69630  1.0000 0.024341614
C   C76       1.0  0.16360  0.72995  0.80370  1.0000 0.024341614
C   C77       1.0  0.22100  0.58749  0.17170  1.0000 -0.1760826481
C   C78       1.0  0.77900  0.08749  0.32830  1.0000 -0.1760826481
C   C79       1.0  0.77900  0.41251  0.82830  1.0000 -0.1760826481
C   C80       1.0  0.22100  0.91251  0.67170  1.0000 -0.1760826481
C   C81       1.0  0.29920  0.82254  0.32640  1.0000 -0.0394500033
C   C82       1.0  0.70080  0.32254  0.17360  1.0000 -0.0394500033
C   C83       1.0  0.70080  0.17746  0.67360  1.0000 -0.0394500033
C   C84       1.0  0.29920  0.67746  0.82640  1.0000 -0.0394500033
C   C85       1.0  0.03120  0.74888  0.28230  1.0000 -0.0619400912
C   C86       1.0  0.96880  0.24888  0.21770  1.0000 -0.0619400912
C   C87       1.0  0.96880  0.25112  0.71770  1.0000 -0.0619400912
C   C88       1.0  0.03120  0.75112  0.78230  1.0000 -0.0619400912
C   C89       1.0  0.11930  0.66302  0.18700  1.0000 -0.207174797
C   C90       1.0  0.88070  0.16302  0.31300  1.0000 -0.207174797
C   C91       1.0  0.88070  0.33698  0.81300  1.0000 -0.207174797
C   C92       1.0  0.11930  0.83698  0.68700  1.0000 -0.207174797
C   C93       1.0  0.29800  0.75568  0.33240  1.0000 0.0525698844
C   C94       1.0  0.70200  0.25568  0.16760  1.0000 0.0525698844
C   C95       1.0  0.70200  0.24432  0.66760  1.0000 0.0525698844
C   C96       1.0  0.29800  0.74432  0.83240  1.0000 0.0525698844
C   C97       1.0  0.17220  0.35428  0.00680  1.0000 0.2808550648
C   C98       1.0  0.82780  0.85428  0.49320  1.0000 0.2808550648
C   C99       1.0  0.82780  0.64572  0.99320  1.0000 0.2808550648
C   C100      1.0  0.17220  0.14572  0.50680  1.0000 0.2808550648
C   C101      1.0  0.52520  0.90544  0.36920  1.0000 0.1027240358
C   C102      1.0  0.47480  0.40544  0.13080  1.0000 0.1027240358
C   C103      1.0  0.47480  0.09456  0.63080  1.0000 0.1027240358
C   C104      1.0  0.52520  0.59456  0.86920  1.0000 0.1027240358
C   C105      1.0  0.00040  0.71871  0.23440  1.0000 -0.0651585632
C   C106      1.0  0.99960  0.21871  0.26560  1.0000 -0.0651585632
C   C107      1.0  0.99960  0.28129  0.76560  1.0000 -0.0651585632
C   C108      1.0  0.00040  0.78129  0.73440  1.0000 -0.0651585632
C   C109      1.0  0.29390  0.92274  0.31640  1.0000 0.0902154665
C   C110      1.0  0.70610  0.42274  0.18360  1.0000 0.0902154665
C   C111      1.0  0.70610  0.07726  0.68360  1.0000 0.0902154665
C   C112      1.0  0.29390  0.57726  0.81640  1.0000 0.0902154665
C   C113      1.0  0.08690  0.70033  0.18040  1.0000 0.024341614
C   C114      1.0  0.91310  0.20033  0.31960  1.0000 0.024341614
C   C115      1.0  0.91310  0.29967  0.81960  1.0000 0.024341614
C   C116      1.0  0.08690  0.79967  0.68040  1.0000 0.024341614
C   C117      1.0  0.34360  0.71735  0.34710  1.0000 -0.4755031117
C   C118      1.0  0.65640  0.21735  0.15290  1.0000 -0.4749847003
C   C119      1.0  0.65640  0.28265  0.65290  1.0000 -0.4749847003
C   C120      1.0  0.34360  0.78265  0.84710  1.0000 -0.4749847003
C   C121      1.0  0.47080  0.43524  0.59910  1.0000 0.0525698844
C   C122      1.0  0.52920  0.93524  0.90090  1.0000 0.0525698844
C   C123      1.0  0.52920  0.56476  0.40090  1.0000 0.0525698844
C   C124      1.0  0.47080  0.06476  0.09910  1.0000 0.0525698844
C   C125      1.0  0.36480  0.43025  0.64640  1.0000 -0.1071407539
C   C126      1.0  0.63520  0.93025  0.85360  1.0000 -0.1071407539
C   C127      1.0  0.63520  0.56975  0.35360  1.0000 -0.1071407539
C   C128      1.0  0.36480  0.06975  0.14640  1.0000 -0.1071407539
C   C129      1.0  0.35790  0.39865  0.69200  1.0000 -0.223546537
C   C130      1.0  0.64210  0.89865  0.80800  1.0000 -0.223546537
C   C131      1.0  0.64210  0.60135  0.30800  1.0000 -0.223546537
C   C132      1.0  0.35790  0.10135  0.19200  1.0000 -0.223546537
C   C133      1.0  0.51970  0.49129  0.31860  1.0000 0.5498274318
C   C134      1.0  0.48030  0.99129  0.18140  1.0000 0.5498274318
C   C135      1.0  0.48030  0.50871  0.68140  1.0000 0.5498274318
C   C136      1.0  0.51970  0.00871  0.81860  1.0000 0.5498274318
C   C137      1.0  0.14350  0.71746  0.11810  1.0000 0.0637342367
C   C138      1.0  0.85650  0.21746  0.38190  1.0000 0.0637342367
C   C139      1.0  0.85650  0.28254  0.88190  1.0000 0.0637342367
C   C140      1.0  0.14350  0.78254  0.61810  1.0000 0.0637342367
C   C141      1.0  0.56850  0.40763  0.59790  1.0000 -0.1216626004
C   C142      1.0  0.43150  0.90763  0.90210  1.0000 -0.1216626004
C   C143      1.0  0.43150  0.59237  0.40210  1.0000 -0.1216626004
C   C144      1.0  0.56850  0.09237  0.09790  1.0000 -0.1216626004
C   C145      1.0  0.45710  0.37232  0.68940  1.0000 0.2808550648
C   C146      1.0  0.54290  0.87232  0.81060  1.0000 0.2808550648
C   C147      1.0  0.54290  0.62768  0.31060  1.0000 0.2808550648
C   C148      1.0  0.45710  0.12768  0.18940  1.0000 0.2808550648
C   C149      1.0  0.80810  0.72716  0.30890  1.0000 0.2576790057
C   C150      1.0  0.19190  0.22716  0.19110  1.0000 0.2576790057
C   C151      1.0  0.19190  0.27284  0.69110  1.0000 0.2576790057
C   C152      1.0  0.80810  0.77284  0.80890  1.0000 0.2576790057
C   C153      1.0  0.13390  0.75606  0.09020  1.0000 -0.462987306
C   C154      1.0  0.86610  0.25606  0.40980  1.0000 -0.462987306
C   C155      1.0  0.86610  0.24394  0.90980  1.0000 -0.462987306
C   C156      1.0  0.13390  0.74394  0.59020  1.0000 -0.462987306
C   C157      1.0  0.49670  0.46675  0.46250  1.0000 -0.1637524678
C   C158      1.0  0.50330  0.96675  0.03750  1.0000 -0.1637524678
C   C159      1.0  0.50330  0.53325  0.53750  1.0000 -0.1637524678
C   C160      1.0  0.49670  0.03325  0.96250  1.0000 -0.1637524678
C   C161      1.0  0.85260  0.70515  0.23610  1.0000 0.3516465477
C   C162      1.0  0.14740  0.20515  0.26390  1.0000 0.3516465477
C   C163      1.0  0.14740  0.29485  0.76390  1.0000 0.3516465477
C   C164      1.0  0.85260  0.79485  0.73610  1.0000 0.3516465477
C   C165      1.0  0.90530  0.76036  0.31820  1.0000 0.3447970204
C   C166      1.0  0.09470  0.26036  0.18180  1.0000 0.3447970204
C   C167      1.0  0.09470  0.23964  0.68180  1.0000 0.3447970204
C   C168      1.0  0.90530  0.73964  0.81820  1.0000 0.3447970204
C   C169      1.0  0.48120  0.46888  0.54970  1.0000 0.0525698844
C   C170      1.0  0.51880  0.96888  0.95030  1.0000 0.0525698844
C   C171      1.0  0.51880  0.53112  0.45030  1.0000 0.0525698844
C   C172      1.0  0.48120  0.03112  0.04970  1.0000 0.0525698844
C   C173      1.0  0.56250  0.37597  0.64310  1.0000 -0.2269721063
C   C174      1.0  0.43750  0.87597  0.85690  1.0000 -0.2269721063
C   C175      1.0  0.43750  0.62403  0.35690  1.0000 -0.2269721063
C   C176      1.0  0.56250  0.12403  0.14310  1.0000 -0.2269721063
C   C177      1.0  0.51460  0.49662  0.41270  1.0000 -0.0394500033
C   C178      1.0  0.48540  0.99662  0.08730  1.0000 -0.0394500033
C   C179      1.0  0.48540  0.50338  0.58730  1.0000 -0.0394500033
C   C180      1.0  0.51460  0.00338  0.91270  1.0000 -0.0394500033
S   S1        1.0  0.23757  0.68761  0.06865  1.0000 0.0697514057
S   S2        1.0  0.76243  0.18761  0.43135  1.0000 0.0697514057
S   S3        1.0  0.76243  0.31239  0.93135  1.0000 0.0697514057
S   S4        1.0  0.23757  0.81239  0.56865  1.0000 0.0697514057
S   S5        1.0  0.42545  0.78883  0.35463  1.0000 0.0902154665
S   S6        1.0  0.57455  0.28883  0.14537  1.0000 0.0902154665
S   S7        1.0  0.57455  0.21117  0.64537  1.0000 0.0902154665
S   S8        1.0  0.42545  0.71117  0.85463  1.0000 0.0902154665
N   N1        1.0  0.43080  0.93196  0.34616  1.0000 -0.2269721063
N   N2        1.0  0.56920  0.43196  0.15384  1.0000 -0.2269721063
N   N3        1.0  0.56920  0.06804  0.65384  1.0000 -0.2269721063
N   N4        1.0  0.43080  0.56804  0.84616  1.0000 -0.2269721063
N   N5        1.0  0.39170  0.54841  0.12794  1.0000 -0.2574721821
N   N6        1.0  0.60830  0.04841  0.37206  1.0000 -0.2574721821
N   N7        1.0  0.60830  0.45159  0.87206  1.0000 -0.2574721821
N   N8        1.0  0.39170  0.95159  0.62794  1.0000 -0.2574721821
O   O1        1.0  0.62790  0.52740  0.98616  1.0000 -0.5637688883
O   O2        1.0  0.37210  0.02740  0.51384  1.0000 -0.5637688883
O   O3        1.0  0.37210  0.47260  0.01384  1.0000 -0.5637688883
O   O4        1.0  0.62790  0.97260  0.48616  1.0000 -0.5637688883
O   O5        1.0  0.71650  0.50252  0.11716  1.0000 -0.532576675
O   O6        1.0  0.28350  0.00252  0.38284  1.0000 -0.532576675
O   O7        1.0  0.28350  0.49748  0.88284  1.0000 -0.532576675
O   O8        1.0  0.71650  0.99748  0.61716  1.0000 -0.532576675
O   O9        1.0  0.40140  0.48520  0.26465  1.0000 -0.5637688883
O   O10       1.0  0.59860  0.98520  0.23535  1.0000 -0.5637688883
O   O11       1.0  0.59860  0.51480  0.73535  1.0000 -0.5637688883
O   O12       1.0  0.40140  0.01480  0.76465  1.0000 -0.5637688883
O   O13       1.0  0.63630  0.49338  0.29673  1.0000 -0.532576675
O   O14       1.0  0.36370  0.99338  0.20327  1.0000 -0.532576675
O   O15       1.0  0.36370  0.50662  0.70327  1.0000 -0.532576675
O   O16       1.0  0.63630  0.00662  0.79673  1.0000 -0.532576675
F   F1        1.0  0.21570  0.31953  0.00971  1.0000 -0.1518202475
F   F2        1.0  0.78430  0.81953  0.49029  1.0000 -0.1518202475
F   F3        1.0  0.78430  0.68047  0.99029  1.0000 -0.1518202475
F   F4        1.0  0.21570  0.18047  0.50971  1.0000 -0.1518202475
F   F5        1.0  0.83240  0.78806  0.27113  1.0000 -0.1749886521
F   F6        1.0  0.16760  0.28806  0.22887  1.0000 -0.1749886521
F   F7        1.0  0.16760  0.21194  0.72887  1.0000 -0.1749886521
F   F8        1.0  0.83240  0.71194  0.77113  1.0000 -0.1749886521
F   F9        1.0  0.45340  0.34160  0.73593  1.0000 -0.1518202475
F   F10       1.0  0.54660  0.84160  0.76407  1.0000 -0.1518202475
F   F11       1.0  0.54660  0.65840  0.26407  1.0000 -0.1518202475
F   F12       1.0  0.45340  0.15840  0.23593  1.0000 -0.1518202475
F   F13       1.0  0.84910  0.66947  0.25213  1.0000 -0.1749886521
F   F14       1.0  0.15090  0.16947  0.24787  1.0000 -0.1749886521
F   F15       1.0  0.15090  0.33053  0.74787  1.0000 -0.1760826481
F   F16       1.0  0.84910  0.83053  0.75213  1.0000 -0.1760826481
F   F17       1.0  0.94300  0.77182  0.40263  1.0000 -0.1637524678
F   F18       1.0  0.05700  0.27182  0.09737  1.0000 -0.1637524678
F   F19       1.0  0.05700  0.22818  0.59737  1.0000 -0.1637524678
F   F20       1.0  0.94300  0.72818  0.90263  1.0000 -0.1637524678
F   F21       1.0  0.66840  0.73525  0.29001  1.0000 -0.1518202475
F   F22       1.0  0.33160  0.23525  0.20999  1.0000 -0.1518202475
F   F23       1.0  0.33160  0.26475  0.70999  1.0000 -0.1518202475
F   F24       1.0  0.66840  0.76475  0.79001  1.0000 -0.1518202475
F   F25       1.0  0.75920  0.71091  0.15845  1.0000 -0.1637524678
F   F26       1.0  0.24080  0.21091  0.34155  1.0000 -0.1637524678
F   F27       1.0  0.24080  0.28909  0.84155  1.0000 -0.1637524678
F   F28       1.0  0.75920  0.78909  0.65845  1.0000 -0.1637524678
F   F29       1.0  0.83820  0.70847  0.38522  1.0000 -0.1518202475
F   F30       1.0  0.16180  0.20847  0.11478  1.0000 -0.1518202475
F   F31       1.0  0.16180  0.29153  0.61478  1.0000 -0.1518202475
F   F32       1.0  0.83820  0.79153  0.88522  1.0000 -0.1518202475
