# DDEC6 charges by PACMAN v1.1 (https://github.com/mtap-research/PACMAN-charge/)
data_2023[TiCu][nan]3[FSR]3
_chemical_formula_sum              "Ti4 Cu4 H80 C104 N32 O16 F24"
_cell_length_a       19.7387
_cell_length_b       19.7387
_cell_length_c       19.7387
_cell_angle_alpha    130.454
_cell_angle_beta     130.454
_cell_angle_gamma    72.6824

_symmetry_space_group_name_H-M    "P 1"
_symmetry_Int_Tables_number       1

loop_
  _symmetry_equiv_pos_as_xyz
  'x, y, z'

loop_
  _atom_site_type_symbol
  _atom_site_label
  _atom_site_symmetry_multiplicity
  _atom_site_fract_x
  _atom_site_fract_y
  _atom_site_fract_z
  _atom_site_occupancy
  _atom_site_charge
Ti  Ti1       1.0  0.37500  0.59597  0.72097  1.0000 2.1479735154
Ti  Ti2       1.0  0.34597  0.12500  0.72097  1.0000 2.1479735154
Ti  Ti3       1.0  0.87500  0.65403  0.27903  1.0000 2.1479735154
Ti  Ti4       1.0  0.40403  0.62500  0.27903  1.0000 2.1479735154
Cu  Cu1       1.0  0.62460  0.62460  0.00000  1.0000 0.7621100623
Cu  Cu2       1.0  0.37460  0.87460  0.50000  1.0000 0.7621100623
Cu  Cu3       1.0  0.12540  0.62540  0.50000  1.0000 0.7621100623
Cu  Cu4       1.0  0.37540  0.37540  0.00000  1.0000 0.7621100623
H   H1        1.0  0.55834  0.75235  0.93511  1.0000 0.1212100753
H   H2        1.0  0.50235  0.06724  0.69401  1.0000 0.1212100753
H   H3        1.0  0.81724  0.62323  0.06489  1.0000 0.1212100753
H   H4        1.0  0.37323  0.80834  0.30599  1.0000 0.1212100753
H   H5        1.0  0.19166  0.62677  0.69401  1.0000 0.1212100753
H   H6        1.0  0.37677  0.18276  0.93511  1.0000 0.1212100753
H   H7        1.0  0.93276  0.49765  0.30599  1.0000 0.1212100753
H   H8        1.0  0.24765  0.44166  0.06489  1.0000 0.1212100753
H   H9        1.0  0.77629  0.81163  0.22510  1.0000 0.1469333809
H   H10       1.0  0.56163  0.83653  0.53534  1.0000 0.1469333809
H   H11       1.0  0.58653  0.55119  0.77490  1.0000 0.1469333809
H   H12       1.0  0.30119  0.02629  0.46466  1.0000 0.1469333809
H   H13       1.0  0.97371  0.69881  0.53534  1.0000 0.1469333809
H   H14       1.0  0.44881  0.41347  0.22510  1.0000 0.1469333809
H   H15       1.0  0.16347  0.43837  0.46466  1.0000 0.1469333809
H   H16       1.0  0.18837  0.22371  0.77490  1.0000 0.1469333809
H   H17       1.0  0.78003  0.93979  0.23934  1.0000 0.136686616
H   H18       1.0  0.68979  0.95045  0.65976  1.0000 0.136686616
H   H19       1.0  0.70045  0.54069  0.76066  1.0000 0.136686616
H   H20       1.0  0.29069  0.03003  0.34024  1.0000 0.136686616
H   H21       1.0  0.96997  0.70931  0.65976  1.0000 0.136686616
H   H22       1.0  0.45931  0.29955  0.23934  1.0000 0.136686616
H   H23       1.0  0.04955  0.31021  0.34024  1.0000 0.136686616
H   H24       1.0  0.06021  0.21997  0.76066  1.0000 0.136686616
H   H25       1.0  0.55555  0.81446  0.87233  1.0000 0.1469333809
H   H26       1.0  0.56446  0.19213  0.75891  1.0000 0.1469333809
H   H27       1.0  0.94213  0.68322  0.12767  1.0000 0.1469333809
H   H28       1.0  0.43322  0.80555  0.24109  1.0000 0.1469333809
H   H29       1.0  0.19445  0.56678  0.75891  1.0000 0.1469333809
H   H30       1.0  0.31678  0.05787  0.87233  1.0000 0.1469333809
H   H31       1.0  0.80787  0.43554  0.24109  1.0000 0.1469333809
H   H32       1.0  0.18554  0.44445  0.12767  1.0000 0.1469333809
H   H33       1.0  0.53877  0.05802  0.94015  1.0000 0.1469333809
H   H34       1.0  0.80802  0.36787  0.01925  1.0000 0.1469333809
H   H35       1.0  0.11787  0.59862  0.05985  1.0000 0.1469333809
H   H36       1.0  0.34862  0.78877  0.98075  1.0000 0.1469333809
H   H37       1.0  0.21123  0.65138  0.01925  1.0000 0.1469333809
H   H38       1.0  0.40138  0.88213  0.94015  1.0000 0.1469333809
H   H39       1.0  0.63213  0.19198  0.98075  1.0000 0.1469333809
H   H40       1.0  0.94198  0.46123  0.05985  1.0000 0.1469333809
H   H41       1.0  0.43398  0.75192  0.68702  1.0000 0.136686616
H   H42       1.0  0.50192  0.31490  0.81794  1.0000 0.136686616
H   H43       1.0  0.06490  0.74696  0.31298  1.0000 0.136686616
H   H44       1.0  0.49696  0.68398  0.18206  1.0000 0.136686616
H   H45       1.0  0.31602  0.50304  0.81794  1.0000 0.136686616
H   H46       1.0  0.25304  0.93510  0.68702  1.0000 0.136686616
H   H47       1.0  0.68510  0.49808  0.18206  1.0000 0.136686616
H   H48       1.0  0.24808  0.56602  0.31298  1.0000 0.136686616
H   H49       1.0  0.36722  0.71891  0.50961  1.0000 0.1279704872
H   H50       1.0  0.46891  0.45930  0.85169  1.0000 0.1279704872
H   H51       1.0  0.20930  0.85761  0.49039  1.0000 0.1279704872
H   H52       1.0  0.60761  0.61722  0.14831  1.0000 0.1279704872
H   H53       1.0  0.38278  0.39239  0.85169  1.0000 0.1279704872
H   H54       1.0  0.14239  0.79070  0.50961  1.0000 0.1279704872
H   H55       1.0  0.54070  0.53109  0.14831  1.0000 0.1279704872
H   H56       1.0  0.28109  0.63278  0.49039  1.0000 0.1279704872
H   H57       1.0  0.48378  0.97749  0.75947  1.0000 0.1279704872
H   H58       1.0  0.72749  0.46802  0.99371  1.0000 0.1279704872
H   H59       1.0  0.21802  0.72431  0.24053  1.0000 0.1279704872
H   H60       1.0  0.47431  0.73378  0.00629  1.0000 0.1279704872
H   H61       1.0  0.26622  0.52569  0.99371  1.0000 0.1279704872
H   H62       1.0  0.27569  0.78198  0.75947  1.0000 0.1279704872
H   H63       1.0  0.53198  0.27251  0.00629  1.0000 0.1279704872
H   H64       1.0  0.02251  0.51622  0.24053  1.0000 0.1279704872
H   H65       1.0  0.69672  0.04321  0.19753  1.0000 0.1279704872
H   H66       1.0  0.79321  0.09568  0.84649  1.0000 0.1279704872
H   H67       1.0  0.84568  0.49919  0.80247  1.0000 0.1279704872
H   H68       1.0  0.24919  0.94672  0.15351  1.0000 0.1279704872
H   H69       1.0  0.05328  0.75081  0.84649  1.0000 0.1279704872
H   H70       1.0  0.50081  0.15432  0.19753  1.0000 0.1279704872
H   H71       1.0  0.90432  0.20679  0.15351  1.0000 0.1279704872
H   H72       1.0  0.95679  0.30328  0.80247  1.0000 0.1279704872
H   H73       1.0  0.71899  0.25442  0.30661  1.0000 0.3457634565
H   H74       1.0  0.00442  0.19781  0.03543  1.0000 0.3457634565
H   H75       1.0  0.94781  0.41238  0.69339  1.0000 0.3457634565
H   H76       1.0  0.16238  0.96899  0.96457  1.0000 0.3457634565
H   H77       1.0  0.03101  0.83762  0.03543  1.0000 0.3457634565
H   H78       1.0  0.58762  0.05219  0.30661  1.0000 0.3457634565
H   H79       1.0  0.80219  0.99558  0.96457  1.0000 0.3457634565
H   H80       1.0  0.74558  0.28101  0.69339  1.0000 0.3457634565
C   C1        1.0  0.61260  0.78390  0.00990  1.0000 0.1212100753
C   C2        1.0  0.53390  0.02400  0.67130  1.0000 0.1212100753
C   C3        1.0  0.77400  0.60270  0.99010  1.0000 0.1212100753
C   C4        1.0  0.35270  0.86260  0.32870  1.0000 0.1212100753
C   C5        1.0  0.13740  0.64730  0.67130  1.0000 0.1212100753
C   C6        1.0  0.39730  0.22600  0.00990  1.0000 0.1212100753
C   C7        1.0  0.97600  0.46610  0.32870  1.0000 0.1212100753
C   C8        1.0  0.21610  0.38740  0.99010  1.0000 0.1212100753
C   C9        1.0  0.73130  0.81660  0.16790  1.0000 0.0094310437
C   C10       1.0  0.56660  0.89870  0.58530  1.0000 0.0094310437
C   C11       1.0  0.64870  0.56340  0.83210  1.0000 0.0094310437
C   C12       1.0  0.31340  0.98130  0.41470  1.0000 0.0094310437
C   C13       1.0  0.01870  0.68660  0.58530  1.0000 0.0094310437
C   C14       1.0  0.43660  0.35130  0.16790  1.0000 0.0094310437
C   C15       1.0  0.10130  0.43340  0.41470  1.0000 0.0094310437
C   C16       1.0  0.18340  0.26870  0.83210  1.0000 0.0094310437
C   C17       1.0  0.73470  0.88680  0.17650  1.0000 -0.1121388428
C   C18       1.0  0.63680  0.96030  0.65210  1.0000 -0.1121388428
C   C19       1.0  0.71030  0.55820  0.82350  1.0000 -0.1121388428
C   C20       1.0  0.30820  0.98470  0.34790  1.0000 -0.1121388428
C   C21       1.0  0.01530  0.69180  0.65210  1.0000 -0.1121388428
C   C22       1.0  0.44180  0.28970  0.17650  1.0000 -0.1121388428
C   C23       1.0  0.03970  0.36320  0.34790  1.0000 -0.1121388428
C   C24       1.0  0.11320  0.26530  0.82350  1.0000 -0.1121388428
C   C25       1.0  0.62680  0.91980  0.03580  1.0000 0.1928574004
C   C26       1.0  0.66980  0.13400  0.79300  1.0000 0.1928574004
C   C27       1.0  0.88400  0.59100  0.96420  1.0000 0.1928574004
C   C28       1.0  0.34100  0.87680  0.20700  1.0000 0.1928574004
C   C29       1.0  0.12320  0.65900  0.79300  1.0000 0.1928574004
C   C30       1.0  0.40900  0.11600  0.03580  1.0000 0.1928574004
C   C31       1.0  0.86600  0.33020  0.20700  1.0000 0.1928574004
C   C32       1.0  0.08020  0.37320  0.96420  1.0000 0.1928574004
C   C33       1.0  0.57170  0.87770  0.92460  1.0000 -0.2358629327
C   C34       1.0  0.62770  0.20310  0.80600  1.0000 -0.2358629327
C   C35       1.0  0.95310  0.64710  0.07540  1.0000 -0.2358629327
C   C36       1.0  0.39710  0.82170  0.19400  1.0000 -0.2334003877
C   C37       1.0  0.17830  0.60290  0.80600  1.0000 -0.2358629327
C   C38       1.0  0.35290  0.04690  0.92460  1.0000 -0.2358629327
C   C39       1.0  0.79690  0.37230  0.19400  1.0000 -0.2358629327
C   C40       1.0  0.12230  0.42830  0.07540  1.0000 -0.2334003877
C   C41       1.0  0.53790  0.92810  0.88580  1.0000 0.1928574004
C   C42       1.0  0.67810  0.29230  0.89020  1.0000 0.1928574004
C   C43       1.0  0.04230  0.65210  0.11420  1.0000 0.1928574004
C   C44       1.0  0.40210  0.78790  0.10980  1.0000 0.1928574004
C   C45       1.0  0.21210  0.59790  0.89020  1.0000 0.1928574004
C   C46       1.0  0.34790  0.95770  0.88580  1.0000 0.1928574004
C   C47       1.0  0.70770  0.32190  0.10980  1.0000 0.1950725842
C   C48       1.0  0.07190  0.46210  0.11420  1.0000 0.1928574004
C   C49       1.0  0.56170  0.02360  0.96490  1.0000 -0.1798958328
C   C50       1.0  0.77360  0.30870  0.96190  1.0000 -0.1798958328
C   C51       1.0  0.05870  0.59680  0.03510  1.0000 -0.1798958328
C   C52       1.0  0.34680  0.81170  0.03810  1.0000 -0.1798958328
C   C53       1.0  0.18830  0.65320  0.96190  1.0000 -0.1798958328
C   C54       1.0  0.40320  0.94130  0.96490  1.0000 -0.1798958328
C   C55       1.0  0.69130  0.22640  0.03810  1.0000 -0.1798958328
C   C56       1.0  0.97640  0.43830  0.03510  1.0000 -0.1798958328
C   C57       1.0  0.62010  0.06570  0.08040  1.0000 -0.0146508665
C   C58       1.0  0.81570  0.23530  0.94560  1.0000 -0.0146508665
C   C59       1.0  0.98530  0.53970  0.91960  1.0000 -0.0146508665
C   C60       1.0  0.28970  0.87010  0.05440  1.0000 -0.0146508665
C   C61       1.0  0.12990  0.71030  0.94560  1.0000 -0.0146508665
C   C62       1.0  0.46030  0.01470  0.08040  1.0000 -0.0146508665
C   C63       1.0  0.76470  0.18430  0.05440  1.0000 -0.0146508665
C   C64       1.0  0.93430  0.37990  0.91960  1.0000 -0.0146508665
C   C65       1.0  0.43710  0.79310  0.68020  1.0000 -0.0979986783
C   C66       1.0  0.54310  0.36290  0.85600  1.0000 -0.0979986783
C   C67       1.0  0.11290  0.75690  0.31980  1.0000 -0.0979986783
C   C68       1.0  0.50690  0.68710  0.14400  1.0000 -0.0979986783
C   C69       1.0  0.31290  0.49310  0.85600  1.0000 -0.0979986783
C   C70       1.0  0.24310  0.88710  0.68020  1.0000 -0.0979986783
C   C71       1.0  0.63710  0.45690  0.14400  1.0000 -0.0979986783
C   C72       1.0  0.20690  0.56290  0.31980  1.0000 -0.0979986783
C   C73       1.0  0.39910  0.77550  0.58200  1.0000 -0.0156590646
C   C74       1.0  0.52550  0.44350  0.87640  1.0000 -0.0146508665
C   C75       1.0  0.19350  0.81710  0.41800  1.0000 -0.0156590646
C   C76       1.0  0.56710  0.64910  0.12360  1.0000 -0.0156590646
C   C77       1.0  0.35090  0.43290  0.87640  1.0000 -0.0156590646
C   C78       1.0  0.18290  0.80650  0.58200  1.0000 -0.0156590646
C   C79       1.0  0.55650  0.47450  0.12360  1.0000 -0.0156590646
C   C80       1.0  0.22450  0.60090  0.41800  1.0000 -0.0156590646
C   C81       1.0  0.46380  0.91660  0.71900  1.0000 0.1279704872
C   C82       1.0  0.66667  0.44760  0.95280  1.0000 0.1279704872
C   C83       1.0  0.19760  0.74480  0.28100  1.0000 0.1279704872
C   C84       1.0  0.49480  0.71380  0.04720  1.0000 0.1279704872
C   C85       1.0  0.28620  0.50520  0.95280  1.0000 0.1279704872
C   C86       1.0  0.25520  0.80240  0.71900  1.0000 0.1279704872
C   C87       1.0  0.55240  0.33340  0.04720  1.0000 0.1279704872
C   C88       1.0  0.08340  0.53620  0.28100  1.0000 0.1279704872
C   C89       1.0  0.65130  0.16520  0.16670  1.0000 0.5316766877
C   C90       1.0  0.91520  0.24850  0.01390  1.0000 0.5316766877
C   C91       1.0  0.99850  0.48460  0.83330  1.0000 0.5316766877
C   C92       1.0  0.23460  0.90130  0.98610  1.0000 0.5316766877
C   C93       1.0  0.09870  0.76540  0.01390  1.0000 0.5316766877
C   C94       1.0  0.51540  0.00150  0.16670  1.0000 0.5316766877
C   C95       1.0  0.75150  0.08480  0.98610  1.0000 0.5316766877
C   C96       1.0  0.83480  0.34870  0.83330  1.0000 0.5316766877
C   C97       1.0  0.65600  0.01520  0.12000  1.0000 -0.2334003877
C   C98       1.0  0.76520  0.14520  0.85920  1.0000 -0.2334003877
C   C99       1.0  0.89520  0.53600  0.88000  1.0000 -0.2334003877
C   C100      1.0  0.28600  0.90600  0.14080  1.0000 -0.2334003877
C   C101      1.0  0.09400  0.71400  0.85920  1.0000 -0.2334003877
C   C102      1.0  0.46400  0.10480  0.12000  1.0000 -0.2334003877
C   C103      1.0  0.85480  0.23480  0.14080  1.0000 -0.2334003877
C   C104      1.0  0.98480  0.34400  0.88000  1.0000 -0.2334003877
N   N1        1.0  0.65690  0.75320  0.06910  1.0000 -0.24567306
N   N2        1.0  0.50320  0.93410  0.59630  1.0000 -0.24567306
N   N3        1.0  0.68410  0.58780  0.93090  1.0000 -0.24567306
N   N4        1.0  0.33780  0.90690  0.40370  1.0000 -0.24567306
N   N5        1.0  0.09310  0.66220  0.59630  1.0000 -0.24567306
N   N6        1.0  0.41220  0.31590  0.06910  1.0000 -0.24567306
N   N7        1.0  0.06590  0.49680  0.40370  1.0000 -0.24567306
N   N8        1.0  0.24680  0.34310  0.93090  1.0000 -0.24567306
N   N9        1.0  0.65790  0.86720  0.07410  1.0000 0.0094310437
N   N10       1.0  0.61720  0.04310  0.70930  1.0000 0.0094310437
N   N11       1.0  0.79310  0.58380  0.92590  1.0000 0.0094310437
N   N12       1.0  0.33380  0.90790  0.29070  1.0000 0.0094310437
N   N13       1.0  0.09210  0.66620  0.70930  1.0000 0.0094310437
N   N14       1.0  0.41620  0.20690  0.07410  1.0000 0.0094310437
N   N15       1.0  0.95690  0.38280  0.29070  1.0000 0.0094310437
N   N16       1.0  0.13280  0.34210  0.92590  1.0000 0.0094310437
N   N17       1.0  0.48100  0.88270  0.76730  1.0000 0.0094310437
N   N18       1.0  0.63270  0.36540  0.90170  1.0000 0.0094310437
N   N19       1.0  0.11540  0.71370  0.23270  1.0000 0.0094310437
N   N20       1.0  0.46370  0.73100  0.09830  1.0000 0.0094310437
N   N21       1.0  0.26900  0.53630  0.90170  1.0000 0.0094310437
N   N22       1.0  0.28630  0.88460  0.76730  1.0000 0.0094310437
N   N23       1.0  0.63460  0.36730  0.09830  1.0000 0.0094310437
N   N24       1.0  0.11730  0.51900  0.23270  1.0000 0.0094310437
N   N25       1.0  0.41490  0.85420  0.60630  1.0000 -0.2644460123
N   N26       1.0  0.60420  0.49790  0.93930  1.0000 -0.2644460123
N   N27       1.0  0.24790  0.80860  0.39370  1.0000 -0.2644460123
N   N28       1.0  0.55860  0.66490  0.06070  1.0000 -0.2644460123
N   N29       1.0  0.33510  0.44140  0.93930  1.0000 -0.2644460123
N   N30       1.0  0.19140  0.75210  0.60630  1.0000 -0.2644460123
N   N31       1.0  0.50210  0.39580  0.06070  1.0000 -0.2644460123
N   N32       1.0  0.14580  0.58510  0.39370  1.0000 -0.2644460123
O   O1        1.0  0.70680  0.19890  0.26710  1.0000 -0.4079686772
O   O2        1.0  0.94890  0.18180  0.99210  1.0000 -0.4079686772
O   O3        1.0  0.93180  0.43970  0.73290  1.0000 -0.4079686772
O   O4        1.0  0.18970  0.95680  0.00790  1.0000 -0.4079686772
O   O5        1.0  0.04320  0.81030  0.99210  1.0000 -0.4079686772
O   O6        1.0  0.56030  0.06820  0.26710  1.0000 -0.4079686772
O   O7        1.0  0.81820  0.05110  0.00790  1.0000 -0.4079686772
O   O8        1.0  0.80110  0.29320  0.73290  1.0000 -0.4079686772
O   O9        1.0  0.61530  0.21200  0.13390  1.0000 -0.5314112377
O   O10       1.0  0.96200  0.32810  0.09670  1.0000 -0.5314112377
O   O11       1.0  0.07810  0.48140  0.86610  1.0000 -0.5314112377
O   O12       1.0  0.23140  0.86530  0.90330  1.0000 -0.5314112377
O   O13       1.0  0.13470  0.76860  0.09670  1.0000 -0.5314112377
O   O14       1.0  0.51860  0.92190  0.13390  1.0000 -0.5314112377
O   O15       1.0  0.67190  0.03800  0.90330  1.0000 -0.5314112377
O   O16       1.0  0.78800  0.38470  0.86610  1.0000 -0.5314112377
F   F1        1.0  0.43633  0.65463  0.72510  1.0000 -0.6270019841
F   F2        1.0  0.40463  0.17953  0.71830  1.0000 -0.6270019841
F   F3        1.0  0.92953  0.71123  0.27490  1.0000 -0.6270019841
F   F4        1.0  0.46123  0.68633  0.28170  1.0000 -0.6270019841
F   F5        1.0  0.31367  0.53877  0.71830  1.0000 -0.6270019841
F   F6        1.0  0.28877  0.07047  0.72510  1.0000 -0.6270019841
F   F7        1.0  0.82047  0.59537  0.28170  1.0000 -0.6270019841
F   F8        1.0  0.34537  0.56367  0.27490  1.0000 -0.6270019841
F   F9        1.0  0.48500  0.59300  0.83120  1.0000 -0.6270019841
F   F10       1.0  0.34300  0.01180  0.60800  1.0000 -0.6270019841
F   F11       1.0  0.76180  0.65380  0.16880  1.0000 -0.6270019841
F   F12       1.0  0.40380  0.73500  0.39200  1.0000 -0.6270019841
F   F13       1.0  0.26500  0.59620  0.60800  1.0000 -0.6270019841
F   F14       1.0  0.34620  0.23820  0.83120  1.0000 -0.6270019841
F   F15       1.0  0.98820  0.65700  0.39200  1.0000 -0.6270019841
F   F16       1.0  0.40700  0.51500  0.16880  1.0000 -0.6270019841
F   F17       1.0  0.37500  0.48400  0.60900  1.0000 -0.6270019841
F   F18       1.0  0.23400  0.12500  0.60900  1.0000 -0.6270019841
F   F19       1.0  0.87500  0.76600  0.39100  1.0000 -0.6270019841
F   F20       1.0  0.51600  0.62500  0.39100  1.0000 -0.6270019841
F   F21       1.0  0.37500  0.70780  0.83280  1.0000 -0.6187466901
F   F22       1.0  0.45780  0.12500  0.83280  1.0000 -0.6187466901
F   F23       1.0  0.87500  0.54220  0.16720  1.0000 -0.6187466901
F   F24       1.0  0.29220  0.62500  0.16720  1.0000 -0.6187466901
