# DDEC6 charges by PACMAN v1.1 (https://github.com/mtap-research/PACMAN-charge/)
data_2023[Cu][cds]3[FSR]1
_chemical_formula_sum              "Cu4 H56 C80 N16 O16"
_cell_length_a       7.1903
_cell_length_b       17.9091
_cell_length_c       16.9156
_cell_angle_alpha    90
_cell_angle_beta     101.218
_cell_angle_gamma    90

_symmetry_space_group_name_H-M    "P 1"
_symmetry_Int_Tables_number       1

loop_
  _symmetry_equiv_pos_as_xyz
  'x, y, z'

loop_
  _atom_site_type_symbol
  _atom_site_label
  _atom_site_symmetry_multiplicity
  _atom_site_fract_x
  _atom_site_fract_y
  _atom_site_fract_z
  _atom_site_occupancy
  _atom_site_charge
Cu  Cu1       1.0  0.21699  0.08953  0.99282  1.0000 0.7129080117
Cu  Cu2       1.0  0.78237  0.57096  0.50700  1.0000 0.7594910384
Cu  Cu3       1.0  0.78301  0.58953  0.00718  1.0000 0.7129080117
Cu  Cu4       1.0  0.21763  0.07096  0.49300  1.0000 0.7594910384
H   H1        1.0  0.03940  0.98880  0.76360  1.0000 0.1129144337
H   H2        1.0  0.92350  0.91400  0.65470  1.0000 0.1129144337
H   H3        1.0  0.11100  0.73260  0.78450  1.0000 0.1129144337
H   H4        1.0  0.23920  0.80780  0.89230  1.0000 0.1129144337
H   H5        1.0  0.96770  0.65780  0.67130  1.0000 0.1293912649
H   H6        1.0  0.73790  0.73900  0.45970  1.0000 0.1173190741
H   H7        1.0  0.27700  0.36660  0.11360  1.0000 0.1173190741
H   H8        1.0  0.41670  0.43070  0.22750  1.0000 0.1129144337
H   H9        1.0  0.55980  0.23730  0.34110  1.0000 0.1173190741
H   H10       1.0  0.42310  0.17330  0.22630  1.0000 0.1173190741
H   H11       1.0  0.58150  0.49390  0.34310  1.0000 0.1293912649
H   H12       1.0  0.80840  0.39810  0.54650  1.0000 0.1173190741
H   H13       1.0  0.25520  0.56090  0.62990  1.0000 0.1293912649
H   H14       1.0  0.09830  0.55510  0.73590  1.0000 0.1129144337
H   H15       1.0  0.57750  0.48870  0.88200  1.0000 0.1173190741
H   H16       1.0  0.73210  0.49320  0.77450  1.0000 0.1173190741
H   H17       1.0  0.97710  0.58840  0.85140  1.0000 0.1293912649
H   H18       1.0  0.16130  0.49710  0.06240  1.0000 0.1173190741
H   H19       1.0  0.83180  0.67450  0.24000  1.0000 0.1173190741
H   H20       1.0  0.00150  0.68910  0.13750  1.0000 0.1173190741
H   H21       1.0  0.45780  0.60000  0.27970  1.0000 0.1173190741
H   H22       1.0  0.28590  0.58240  0.37970  1.0000 0.1293912649
H   H23       1.0  0.57970  0.57630  0.15950  1.0000 0.1293912649
H   H24       1.0  0.43430  0.70050  0.96810  1.0000 0.1173190741
H   H25       1.0  0.82550  0.84030  0.55230  1.0000 0.2899736733
H   H26       1.0  0.67950  0.30310  0.45160  1.0000 0.2899736733
H   H27       1.0  0.38570  0.47160  0.97780  1.0000 0.3033365429
H   H28       1.0  0.21540  0.72130  0.05330  1.0000 0.3159861982
H   H29       1.0  0.96060  0.48880  0.23640  1.0000 0.1129144337
H   H30       1.0  0.07650  0.41400  0.34530  1.0000 0.1129144337
H   H31       1.0  0.88900  0.23260  0.21550  1.0000 0.1129144337
H   H32       1.0  0.76080  0.30780  0.10770  1.0000 0.1129144337
H   H33       1.0  0.03230  0.15780  0.32870  1.0000 0.1293912649
H   H34       1.0  0.26210  0.23900  0.54030  1.0000 0.1173190741
H   H35       1.0  0.72300  0.86660  0.88640  1.0000 0.1129144337
H   H36       1.0  0.58330  0.93070  0.77250  1.0000 0.1129144337
H   H37       1.0  0.44020  0.73730  0.65890  1.0000 0.1173190741
H   H38       1.0  0.57690  0.67330  0.77370  1.0000 0.1173190741
H   H39       1.0  0.41850  0.99390  0.65690  1.0000 0.1293912649
H   H40       1.0  0.19160  0.89810  0.45350  1.0000 0.1173190741
H   H41       1.0  0.74480  0.06090  0.37010  1.0000 0.1293912649
H   H42       1.0  0.90170  0.05510  0.26410  1.0000 0.1129144337
H   H43       1.0  0.42250  0.98870  0.11800  1.0000 0.1173190741
H   H44       1.0  0.26790  0.99320  0.22550  1.0000 0.1173190741
H   H45       1.0  0.02290  0.08840  0.14860  1.0000 0.1293912649
H   H46       1.0  0.83870  0.99710  0.93760  1.0000 0.1173190741
H   H47       1.0  0.16820  0.17450  0.76000  1.0000 0.1173190741
H   H48       1.0  0.99850  0.18910  0.86250  1.0000 0.1173190741
H   H49       1.0  0.54220  0.10000  0.72030  1.0000 0.1173190741
H   H50       1.0  0.71410  0.08240  0.62030  1.0000 0.1293912649
H   H51       1.0  0.42030  0.07630  0.84050  1.0000 0.1293912649
H   H52       1.0  0.56570  0.20050  0.03190  1.0000 0.1173190741
H   H53       1.0  0.17450  0.34030  0.44770  1.0000 0.2899736733
H   H54       1.0  0.32050  0.80310  0.54840  1.0000 0.2899736733
H   H55       1.0  0.61430  0.97160  0.02220  1.0000 0.3033365429
H   H56       1.0  0.78460  0.22130  0.94670  1.0000 0.3159861982
C   C1        1.0  0.05540  0.93730  0.76770  1.0000 -0.0978067052
C   C2        1.0  0.98490  0.89230  0.70266  1.0000 -0.1607623279
C   C3        1.0  0.00380  0.81524  0.70737  1.0000 0.0485353078
C   C4        1.0  0.09830  0.78416  0.77980  1.0000 -0.1374646249
C   C5        1.0  0.17340  0.82920  0.84492  1.0000 -0.092633491
C   C6        1.0  0.15070  0.90580  0.83967  1.0000 -0.0198145782
C   C7        1.0  0.22810  0.95590  0.91039  1.0000 0.5383856615
C   C8        1.0  0.92730  0.76676  0.63853  1.0000 0.0976433799
C   C9        1.0  0.92080  0.69160  0.63055  1.0000 -0.092633491
C   C10       1.0  0.79330  0.73510  0.51400  1.0000 0.1419745803
C   C11       1.0  0.33410  0.34030  0.15940  1.0000 -0.092633491
C   C12       1.0  0.41780  0.37880  0.22780  1.0000 -0.1374646249
C   C13       1.0  0.50330  0.34128  0.29700  1.0000 0.0485353078
C   C14       1.0  0.50340  0.26370  0.29530  1.0000 -0.1607623279
C   C15       1.0  0.42050  0.22517  0.22642  1.0000 -0.0978067052
C   C16       1.0  0.33440  0.26290  0.15815  1.0000 -0.026875931
C   C17       1.0  0.24560  0.22000  0.08410  1.0000 0.5383856615
C   C18       1.0  0.59340  0.38275  0.36952  1.0000 0.0976433799
C   C19       1.0  0.62150  0.45730  0.38160  1.0000 -0.092633491
C   C20       1.0  0.74680  0.40560  0.49350  1.0000 0.1419745803
C   C21       1.0  0.32090  0.54740  0.68076  1.0000 -0.0978067052
C   C22       1.0  0.22710  0.54410  0.74452  1.0000 -0.1374646249
C   C23       1.0  0.32230  0.52465  0.82150  1.0000 0.0485353078
C   C24       1.0  0.51250  0.50430  0.83169  1.0000 -0.1374646249
C   C25       1.0  0.60530  0.50730  0.76710  1.0000 -0.0978067052
C   C26       1.0  0.51240  0.53068  0.69209  1.0000 -0.0198145782
C   C27       1.0  0.62090  0.53990  0.62540  1.0000 0.5383856615
C   C28       1.0  0.22010  0.52780  0.88830  1.0000 0.1173190741
C   C29       1.0  0.05170  0.56160  0.89292  1.0000 -0.0978067052
C   C30       1.0  0.15120  0.51180  0.00900  1.0000 0.1534441829
C   C31       1.0  0.95670  0.65810  0.24750  1.0000 -0.092633491
C   C32       1.0  0.05910  0.66720  0.18600  1.0000 -0.1472284674
C   C33       1.0  0.24590  0.64400  0.19670  1.0000 0.0485353078
C   C34       1.0  0.33070  0.61360  0.27070  1.0000 -0.1274319618
C   C35       1.0  0.22800  0.60360  0.33090  1.0000 -0.0978067052
C   C36       1.0  0.03980  0.62490  0.31920  1.0000 -0.0198145782
C   C37       1.0  0.92090  0.61150  0.38230  1.0000 0.5279606999
C   C38       1.0  0.35620  0.64780  0.13260  1.0000 0.1129144337
C   C39       1.0  0.51440  0.61020  0.12270  1.0000 -0.0978067052
C   C40       1.0  0.43650  0.67790  0.01780  1.0000 0.1688383714
C   C41       1.0  0.94460  0.43730  0.23230  1.0000 -0.0978067052
C   C42       1.0  0.01510  0.39230  0.29734  1.0000 -0.1607623279
C   C43       1.0  0.99620  0.31524  0.29263  1.0000 0.0485353078
C   C44       1.0  0.90170  0.28416  0.22020  1.0000 -0.1374646249
C   C45       1.0  0.82660  0.32920  0.15508  1.0000 -0.092633491
C   C46       1.0  0.84930  0.40580  0.16033  1.0000 -0.0198145782
C   C47       1.0  0.77190  0.45590  0.08961  1.0000 0.5383856615
C   C48       1.0  0.07270  0.26676  0.36147  1.0000 0.0976433799
C   C49       1.0  0.07920  0.19160  0.36945  1.0000 -0.092633491
C   C50       1.0  0.20670  0.23510  0.48600  1.0000 0.1419745803
C   C51       1.0  0.66590  0.84030  0.84060  1.0000 -0.092633491
C   C52       1.0  0.58220  0.87880  0.77220  1.0000 -0.1374646249
C   C53       1.0  0.49670  0.84128  0.70300  1.0000 0.0485353078
C   C54       1.0  0.49660  0.76370  0.70470  1.0000 -0.1607623279
C   C55       1.0  0.57950  0.72517  0.77358  1.0000 -0.0978067052
C   C56       1.0  0.66560  0.76290  0.84185  1.0000 -0.026875931
C   C57       1.0  0.75440  0.72000  0.91590  1.0000 0.5383856615
C   C58       1.0  0.40660  0.88275  0.63048  1.0000 0.0976433799
C   C59       1.0  0.37850  0.95730  0.61840  1.0000 -0.092633491
C   C60       1.0  0.25320  0.90560  0.50650  1.0000 0.1419745803
C   C61       1.0  0.67910  0.04740  0.31924  1.0000 -0.0978067052
C   C62       1.0  0.77290  0.04410  0.25548  1.0000 -0.1374646249
C   C63       1.0  0.67770  0.02465  0.17850  1.0000 0.0485353078
C   C64       1.0  0.48750  0.00430  0.16831  1.0000 -0.1374646249
C   C65       1.0  0.39470  0.00730  0.23290  1.0000 -0.0978067052
C   C66       1.0  0.48760  0.03068  0.30791  1.0000 -0.0198145782
C   C67       1.0  0.37910  0.03990  0.37460  1.0000 0.5383856615
C   C68       1.0  0.77990  0.02780  0.11170  1.0000 0.1173190741
C   C69       1.0  0.94830  0.06160  0.10708  1.0000 -0.0978067052
C   C70       1.0  0.84880  0.01180  0.99100  1.0000 0.1534441829
C   C71       1.0  0.04330  0.15810  0.75250  1.0000 -0.092633491
C   C72       1.0  0.94090  0.16720  0.81400  1.0000 -0.1472284674
C   C73       1.0  0.75410  0.14400  0.80330  1.0000 0.0485353078
C   C74       1.0  0.66930  0.11360  0.72930  1.0000 -0.1274319618
C   C75       1.0  0.77200  0.10360  0.66910  1.0000 -0.0978067052
C   C76       1.0  0.96020  0.12490  0.68080  1.0000 -0.0198145782
C   C77       1.0  0.07910  0.11150  0.61770  1.0000 0.5279606999
C   C78       1.0  0.64380  0.14780  0.86740  1.0000 0.1129144337
C   C79       1.0  0.48560  0.11020  0.87730  1.0000 -0.0978067052
C   C80       1.0  0.56350  0.17790  0.98220  1.0000 0.1688383714
N   N1        1.0  0.83430  0.67230  0.55294  1.0000 -0.2732937812
N   N2        1.0  0.84350  0.79396  0.56467  1.0000 -0.2501309096
N   N3        1.0  0.71750  0.47080  0.45888  1.0000 -0.2764609336
N   N4        1.0  0.67480  0.35018  0.44134  1.0000 -0.2501309096
N   N5        1.0  0.00840  0.55030  0.96799  1.0000 -0.2960813671
N   N6        1.0  0.28250  0.49644  0.96288  1.0000 -0.2348968118
N   N7        1.0  0.56490  0.62912  0.05083  1.0000 -0.2948794245
N   N8        1.0  0.30990  0.69100  0.06420  1.0000 -0.2241570383
N   N9        1.0  0.16570  0.17230  0.44706  1.0000 -0.2732937812
N   N10       1.0  0.15650  0.29396  0.43533  1.0000 -0.2501309096
N   N11       1.0  0.28250  0.97080  0.54112  1.0000 -0.2764609336
N   N12       1.0  0.32520  0.85018  0.55866  1.0000 -0.2501309096
N   N13       1.0  0.99160  0.05030  0.03201  1.0000 -0.2960813671
N   N14       1.0  0.71750  0.99644  0.03712  1.0000 -0.2355791807
N   N15       1.0  0.43510  0.12912  0.94917  1.0000 -0.2948794245
N   N16       1.0  0.69010  0.19100  0.93580  1.0000 -0.2241570383
O   O1        1.0  0.15980  0.02174  0.90352  1.0000 -0.5392644286
O   O2        1.0  0.34250  0.93283  0.96902  1.0000 -0.5624650895
O   O3        1.0  0.28290  0.15097  0.08635  1.0000 -0.5317208051
O   O4        1.0  0.14720  0.25120  0.02596  1.0000 -0.5624650895
O   O5        1.0  0.53610  0.56708  0.55952  1.0000 -0.5392644286
O   O6        1.0  0.79230  0.52224  0.63614  1.0000 -0.5801719308
O   O7        1.0  0.00410  0.58301  0.44859  1.0000 -0.5317208051
O   O8        1.0  0.75080  0.62756  0.36831  1.0000 -0.5725182175
O   O9        1.0  0.84020  0.52174  0.09648  1.0000 -0.5392644286
O   O10       1.0  0.65750  0.43283  0.03098  1.0000 -0.5624650895
O   O11       1.0  0.71710  0.65097  0.91365  1.0000 -0.5317208051
O   O12       1.0  0.85280  0.75120  0.97404  1.0000 -0.5624650895
O   O13       1.0  0.46390  0.06708  0.44048  1.0000 -0.5392644286
O   O14       1.0  0.20770  0.02224  0.36386  1.0000 -0.5801719308
O   O15       1.0  0.99590  0.08301  0.55141  1.0000 -0.5317208051
O   O16       1.0  0.24920  0.12756  0.63169  1.0000 -0.5725182175
