# DDEC6 charges by PACMAN v1.1 (https://github.com/mtap-research/PACMAN-charge/)
data_2023[Tb][nan]2[FSR]1
_chemical_formula_sum              "Tb4 H134 C144 N10 O30"
_cell_length_a       9.7182
_cell_length_b       16.5962
_cell_length_c       23.4571
_cell_angle_alpha    72.855
_cell_angle_beta     87.174
_cell_angle_gamma    88.984

_symmetry_space_group_name_H-M    "P 1"
_symmetry_Int_Tables_number       1

loop_
  _symmetry_equiv_pos_as_xyz
  'x, y, z'

loop_
  _atom_site_type_symbol
  _atom_site_label
  _atom_site_symmetry_multiplicity
  _atom_site_fract_x
  _atom_site_fract_y
  _atom_site_fract_z
  _atom_site_occupancy
  _atom_site_charge
Tb  Tb1       1.0  0.05102  0.42134  0.17897  1.0000 2.1103315685
Tb  Tb2       1.0  0.94898  0.57866  0.82103  1.0000 2.1103315685
Tb  Tb3       1.0  0.56992  0.42838  0.18022  1.0000 2.1161704395
Tb  Tb4       1.0  0.43008  0.57162  0.81978  1.0000 2.1161704395
H   H1        1.0  0.03096  0.18210  0.18463  1.0000 0.1115435299
H   H2        1.0  0.96904  0.81790  0.81537  1.0000 0.1115435299
H   H3        1.0  0.63533  0.03035  0.26015  1.0000 0.1115435299
H   H4        1.0  0.36467  0.96965  0.73985  1.0000 0.1115435299
H   H5        1.0  0.13297  0.75944  0.00686  1.0000 0.129214685
H   H6        1.0  0.86703  0.24056  0.99314  1.0000 0.129214685
H   H7        1.0  0.07063  0.73637  0.95332  1.0000 0.1402829642
H   H8        1.0  0.92937  0.26363  0.04668  1.0000 0.1402829642
H   H9        1.0  0.19645  0.68528  0.98538  1.0000 0.1402829642
H   H10       1.0  0.80355  0.31472  0.01462  1.0000 0.1402829642
H   H11       1.0  0.04831  0.78859  0.16865  1.0000 0.1115435299
H   H12       1.0  0.95169  0.21141  0.83135  1.0000 0.1115435299
H   H13       1.0  0.13879  0.25179  0.10217  1.0000 0.1183061399
H   H14       1.0  0.86121  0.74821  0.89783  1.0000 0.1183061399
H   H15       1.0  0.97916  0.73492  0.65563  1.0000 0.1183061399
H   H16       1.0  0.02084  0.26508  0.34437  1.0000 0.1183061399
H   H17       1.0  0.38435  0.72951  0.61816  1.0000 0.1115435299
H   H18       1.0  0.61565  0.27049  0.38184  1.0000 0.1115435299
H   H19       1.0  0.46401  0.02133  0.06374  1.0000 0.1115435299
H   H20       1.0  0.53599  0.97867  0.93626  1.0000 0.1115435299
H   H21       1.0  0.40208  0.98971  0.12923  1.0000 0.1183061399
H   H22       1.0  0.59792  0.01029  0.87077  1.0000 0.1183061399
H   H23       1.0  0.66695  0.46853  0.05701  1.0000 0.3304219577
H   H24       1.0  0.33305  0.53147  0.94299  1.0000 0.3304219577
H   H25       1.0  0.76643  0.49914  0.08284  1.0000 0.3381808731
H   H26       1.0  0.23357  0.50086  0.91716  1.0000 0.3381808731
H   H27       1.0  0.43003  0.92984  0.40558  1.0000 0.1115435299
H   H28       1.0  0.56997  0.07016  0.59442  1.0000 0.1115435299
H   H29       1.0  0.37007  0.96452  0.45687  1.0000 0.1183061399
H   H30       1.0  0.62993  0.03548  0.54313  1.0000 0.1183061399
H   H31       1.0  0.09055  0.93404  0.10158  1.0000 0.1115435299
H   H32       1.0  0.90945  0.06596  0.89842  1.0000 0.1115435299
H   H33       1.0  0.19130  0.93768  0.15065  1.0000 0.1183061399
H   H34       1.0  0.80870  0.06232  0.84935  1.0000 0.1183061399
H   H35       1.0  0.46276  0.70741  0.09389  1.0000 0.1183061399
H   H36       1.0  0.53724  0.29259  0.90611  1.0000 0.1183061399
H   H37       1.0  0.51544  0.20997  0.30777  1.0000 0.1183061399
H   H38       1.0  0.48456  0.79003  0.69223  1.0000 0.1183061399
H   H39       1.0  0.53152  0.07763  0.37531  1.0000 0.1183061399
H   H40       1.0  0.46848  0.92237  0.62469  1.0000 0.1183061399
H   H41       1.0  0.40956  0.84992  0.07683  1.0000 0.1115435299
H   H42       1.0  0.59044  0.15008  0.92317  1.0000 0.1115435299
H   H43       1.0  0.56911  0.13772  0.08870  1.0000 0.1183061399
H   H44       1.0  0.43089  0.86228  0.91130  1.0000 0.1183061399
H   H45       1.0  0.86868  0.74629  0.30725  1.0000 0.1115435299
H   H46       1.0  0.13132  0.25371  0.69275  1.0000 0.1115435299
H   H47       1.0  0.12926  0.55680  0.04081  1.0000 0.1007108875
H   H48       1.0  0.87074  0.44320  0.95919  1.0000 0.1007108875
H   H49       1.0  0.13360  0.03744  0.35878  1.0000 0.1183061399
H   H50       1.0  0.86640  0.96256  0.64122  1.0000 0.1183061399
H   H51       1.0  0.94345  0.63169  0.27986  1.0000 0.1183061399
H   H52       1.0  0.05655  0.36831  0.72014  1.0000 0.1183061399
H   H53       1.0  0.54881  0.27367  0.09080  1.0000 0.1183061399
H   H54       1.0  0.45119  0.72633  0.90920  1.0000 0.1183061399
H   H55       1.0  0.34282  0.91667  0.32163  1.0000 0.1183061399
H   H56       1.0  0.65718  0.08333  0.67837  1.0000 0.1183061399
H   H57       1.0  0.16138  0.11918  0.09424  1.0000 0.1183061399
H   H58       1.0  0.83862  0.88082  0.90576  1.0000 0.1183061399
H   H59       1.0  0.09966  0.64702  0.18234  1.0000 0.1183061399
H   H60       1.0  0.90034  0.35298  0.81766  1.0000 0.1183061399
H   H61       1.0  0.11937  0.16914  0.29210  1.0000 0.1183061399
H   H62       1.0  0.88063  0.83086  0.70790  1.0000 0.1183061399
H   H63       1.0  0.53017  0.75309  0.21808  1.0000 0.1183061399
H   H64       1.0  0.46983  0.24691  0.78192  1.0000 0.1183061399
H   H65       1.0  0.55460  0.73755  0.48917  1.0000 0.1115435299
H   H66       1.0  0.44540  0.26245  0.51083  1.0000 0.1115435299
H   H67       1.0  0.88965  0.89851  0.25245  1.0000 0.1115435299
H   H68       1.0  0.11035  0.10149  0.74755  1.0000 0.1115435299
H   H69       1.0  0.92641  0.91701  0.31145  1.0000 0.1115435299
H   H70       1.0  0.07359  0.08299  0.68855  1.0000 0.1115435299
H   H71       1.0  0.04469  0.04094  0.23369  1.0000 0.1183061399
H   H72       1.0  0.95531  0.95906  0.76631  1.0000 0.1183061399
H   H73       1.0  0.62068  0.17474  0.21213  1.0000 0.1183061399
H   H74       1.0  0.37932  0.82526  0.78787  1.0000 0.1183061399
H   H75       1.0  0.59460  0.63690  0.19304  1.0000 0.129214685
H   H76       1.0  0.40540  0.36310  0.80696  1.0000 0.129214685
H   H77       1.0  0.59683  0.75773  0.38700  1.0000 0.1183061399
H   H78       1.0  0.40317  0.24227  0.61300  1.0000 0.1183061399
H   H79       1.0  0.90559  0.74181  0.05962  1.0000 0.129214685
H   H80       1.0  0.09441  0.25819  0.94038  1.0000 0.129214685
H   H81       1.0  0.85804  0.64941  0.09284  1.0000 0.1402829642
H   H82       1.0  0.14196  0.35059  0.90716  1.0000 0.1402829642
H   H83       1.0  0.81835  0.69215  0.02672  1.0000 0.1402829642
H   H84       1.0  0.18165  0.30785  0.97328  1.0000 0.1402829642
H   H85       1.0  0.35542  0.82131  0.52419  1.0000 0.1115435299
H   H86       1.0  0.64458  0.17869  0.47581  1.0000 0.1115435299
H   H87       1.0  0.80960  0.96596  0.38227  1.0000 0.1183061399
H   H88       1.0  0.19040  0.03404  0.61773  1.0000 0.1183061399
H   H89       1.0  0.64555  0.82156  0.53780  1.0000 0.1115435299
H   H90       1.0  0.35445  0.17844  0.46220  1.0000 0.1115435299
H   H91       1.0  0.12622  0.90347  0.01611  1.0000 0.1115435299
H   H92       1.0  0.87378  0.09653  0.98389  1.0000 0.1115435299
H   H93       1.0  0.09104  0.93130  0.91501  1.0000 0.1115435299
H   H94       1.0  0.90896  0.06870  0.08499  1.0000 0.1115435299
H   H95       1.0  0.18834  0.04991  0.84694  1.0000 0.1007108875
H   H96       1.0  0.81166  0.95009  0.15306  1.0000 0.1007108875
H   H97       1.0  0.32081  0.14068  0.87996  1.0000 0.1115435299
H   H98       1.0  0.67919  0.85932  0.12004  1.0000 0.1115435299
H   H99       1.0  0.35600  0.11285  0.98106  1.0000 0.1115435299
H   H100      1.0  0.64400  0.88715  0.01894  1.0000 0.1115435299
H   H101      1.0  0.17206  0.72135  0.28713  1.0000 0.1115435299
H   H102      1.0  0.82794  0.27865  0.71287  1.0000 0.1115435299
H   H103      1.0  0.07877  0.76884  0.44241  1.0000 0.1183061399
H   H104      1.0  0.92123  0.23116  0.55759  1.0000 0.1183061399
H   H105      1.0  0.63554  0.89069  0.23810  1.0000 0.1183061399
H   H106      1.0  0.36446  0.10931  0.76190  1.0000 0.1183061399
H   H107      1.0  0.55446  0.83818  0.29598  1.0000 0.1115435299
H   H108      1.0  0.44554  0.16182  0.70402  1.0000 0.1115435299
H   H109      1.0  0.95436  0.82795  0.56226  1.0000 0.1183061399
H   H110      1.0  0.04564  0.17205  0.43774  1.0000 0.1183061399
H   H111      1.0  0.76917  0.93607  0.48401  1.0000 0.1007108875
H   H112      1.0  0.23083  0.06393  0.51599  1.0000 0.1007108875
H   H113      1.0  0.04047  0.89377  0.46038  1.0000 0.1115435299
H   H114      1.0  0.95953  0.10623  0.53962  1.0000 0.1115435299
H   H115      1.0  0.13028  0.95796  0.47938  1.0000 0.1183061399
H   H116      1.0  0.86972  0.04204  0.52062  1.0000 0.1183061399
H   H117      1.0  0.30514  0.83878  0.25750  1.0000 0.1115435299
H   H118      1.0  0.69486  0.16122  0.74250  1.0000 0.1115435299
H   H119      1.0  0.05736  0.68511  0.37984  1.0000 0.1183061399
H   H120      1.0  0.94264  0.31489  0.62016  1.0000 0.1183061399
H   H121      1.0  0.44332  0.37835  0.32095  1.0000 0.1115435299
H   H122      1.0  0.55668  0.62165  0.67905  1.0000 0.1115435299
H   H123      1.0  0.25547  0.55037  0.27857  1.0000 0.1402829642
H   H124      1.0  0.74453  0.44963  0.72143  1.0000 0.1402829642
H   H125      1.0  0.30004  0.57392  0.33496  1.0000 0.129214685
H   H126      1.0  0.69996  0.42608  0.66504  1.0000 0.129214685
H   H127      1.0  0.15861  0.52919  0.33645  1.0000 0.1402829642
H   H128      1.0  0.84139  0.47081  0.66355  1.0000 0.1402829642
H   H129      1.0  0.21273  0.33167  0.37042  1.0000 0.1402829642
H   H130      1.0  0.78727  0.66833  0.62958  1.0000 0.1402829642
H   H131      1.0  0.17548  0.38367  0.41508  1.0000 0.1510985527
H   H132      1.0  0.82452  0.61633  0.58492  1.0000 0.1510985527
H   H133      1.0  0.31851  0.33794  0.41727  1.0000 0.129214685
H   H134      1.0  0.68149  0.66206  0.58273  1.0000 0.129214685
C   C1        1.0  0.95060  0.15230  0.20000  1.0000 -0.0990329286
C   C2        1.0  0.04940  0.84770  0.80000  1.0000 -0.0990329286
C   C3        1.0  0.31520  0.20290  0.29200  1.0000 -0.0369048644
C   C4        1.0  0.68480  0.79710  0.70800  1.0000 -0.0369048644
C   C5        1.0  0.71540  0.06070  0.24520  1.0000 -0.170775363
C   C6        1.0  0.28460  0.93930  0.75480  1.0000 -0.170775363
C   C7        1.0  0.11270  0.71410  0.99100  1.0000 -0.3470357623
C   C8        1.0  0.88730  0.28590  0.00900  1.0000 -0.3470357623
C   C9        1.0  0.13130  0.77350  0.15310  1.0000 -0.1887502637
C   C10       1.0  0.86870  0.22650  0.84690  1.0000 -0.1960805373
C   C11       1.0  0.22640  0.22990  0.09850  1.0000 -0.0990329286
C   C12       1.0  0.77360  0.77010  0.90150  1.0000 -0.0990329286
C   C13       1.0  0.05610  0.75330  0.63020  1.0000 -0.0990329286
C   C14       1.0  0.94390  0.24670  0.36980  1.0000 -0.0990329286
C   C15       1.0  0.71100  0.86570  0.37220  1.0000 0.1863202486
C   C16       1.0  0.28900  0.13430  0.62780  1.0000 0.1863202486
C   C17       1.0  0.29680  0.75030  0.60750  1.0000 -0.0990329286
C   C18       1.0  0.70320  0.24970  0.39250  1.0000 -0.0990329286
C   C19       1.0  0.38360  0.02450  0.08920  1.0000 -0.1807745414
C   C20       1.0  0.61640  0.97550  0.91080  1.0000 -0.1807745414
C   C21       1.0  0.82460  0.19470  0.19320  1.0000 -0.0369048644
C   C22       1.0  0.17540  0.80530  0.80680  1.0000 -0.0369048644
C   C23       1.0  0.28470  0.66320  0.14080  1.0000 -0.0455553126
C   C24       1.0  0.71530  0.33680  0.85920  1.0000 -0.0455553126
C   C25       1.0  0.32580  0.36560  0.10300  1.0000 0.6383698914
C   C26       1.0  0.67420  0.63440  0.89700  1.0000 0.6383698914
C   C27       1.0  0.84010  0.01950  0.25190  1.0000 0.1007108875
C   C28       1.0  0.15990  0.98050  0.74810  1.0000 0.1007108875
C   C29       1.0  0.35050  0.95710  0.41860  1.0000 -0.1807745414
C   C30       1.0  0.64950  0.04290  0.58140  1.0000 -0.1807745414
C   C31       1.0  0.18580  0.92620  0.11260  1.0000 -0.1887502637
C   C32       1.0  0.81420  0.07380  0.88740  1.0000 -0.1887502637
C   C33       1.0  0.77950  0.62200  0.23240  1.0000 -0.0369048644
C   C34       1.0  0.22050  0.37800  0.76760  1.0000 -0.0369048644
C   C35       1.0  0.22330  0.83580  0.12130  1.0000 0.1007108875
C   C36       1.0  0.77670  0.16420  0.87870  1.0000 0.1007108875
C   C37       1.0  0.37950  0.72360  0.10860  1.0000 -0.1092258035
C   C38       1.0  0.62050  0.27640  0.89140  1.0000 -0.1092258035
C   C39       1.0  0.43840  0.17530  0.31770  1.0000 -0.1092258035
C   C40       1.0  0.56160  0.82470  0.68230  1.0000 -0.1092258035
C   C41       1.0  0.44760  0.09580  0.35840  1.0000 -0.170775363
C   C42       1.0  0.55240  0.90420  0.64160  1.0000 -0.170775363
C   C43       1.0  0.34710  0.80940  0.09880  1.0000 -0.1807745414
C   C44       1.0  0.65290  0.19060  0.90120  1.0000 -0.1807745414
C   C45       1.0  0.48180  0.16110  0.09030  1.0000 -0.161838476
C   C46       1.0  0.51820  0.83890  0.90970  1.0000 -0.161838476
C   C47       1.0  0.34160  0.27940  0.09740  1.0000 -0.0369048644
C   C48       1.0  0.65840  0.72060  0.90260  1.0000 -0.0369048644
C   C49       1.0  0.33360  0.04210  0.37470  1.0000 0.1007108875
C   C50       1.0  0.66640  0.95790  0.62530  1.0000 0.1007108875
C   C51       1.0  0.81540  0.72550  0.28290  1.0000 -0.161838476
C   C52       1.0  0.18460  0.27450  0.71710  1.0000 -0.161838476
C   C53       1.0  0.04640  0.57500  0.05450  1.0000 0.3052711818
C   C54       1.0  0.95360  0.42500  0.94550  1.0000 0.3052711818
C   C55       1.0  0.21150  0.07140  0.34890  1.0000 -0.161838476
C   C56       1.0  0.78850  0.92860  0.65110  1.0000 -0.161838476
C   C57       1.0  0.85930  0.65640  0.26720  1.0000 -0.0909165352
C   C58       1.0  0.14070  0.34360  0.73280  1.0000 -0.0909165352
C   C59       1.0  0.81800  0.28800  0.16450  1.0000 0.6292880062
C   C60       1.0  0.18200  0.71200  0.83550  1.0000 0.6292880062
C   C61       1.0  0.46950  0.24230  0.09260  1.0000 -0.0909165352
C   C62       1.0  0.53050  0.75770  0.90740  1.0000 -0.0909165352
C   C63       1.0  0.28350  0.87070  0.33350  1.0000 -0.2124816614
C   C64       1.0  0.71650  0.12930  0.66650  1.0000 -0.2124816614
C   C65       1.0  0.24030  0.15000  0.09440  1.0000 -0.161838476
C   C66       1.0  0.75970  0.85000  0.90560  1.0000 -0.161838476
C   C67       1.0  0.15030  0.83650  0.53470  1.0000 0.1115435299
C   C68       1.0  0.84970  0.16350  0.46530  1.0000 0.1115435299
C   C69       1.0  0.69280  0.76570  0.26320  1.0000 0.1007108875
C   C70       1.0  0.30720  0.23430  0.73680  1.0000 0.1007108875
C   C71       1.0  0.16320  0.68780  0.16180  1.0000 -0.0990329286
C   C72       1.0  0.83680  0.31220  0.83820  1.0000 -0.0909165352
C   C73       1.0  0.20350  0.15060  0.30860  1.0000 -0.0990329286
C   C74       1.0  0.79650  0.84940  0.69140  1.0000 -0.0990329286
C   C75       1.0  0.61460  0.72850  0.23030  1.0000 -0.170775363
C   C76       1.0  0.38540  0.27150  0.76970  1.0000 -0.170775363
C   C77       1.0  0.31820  0.57120  0.15400  1.0000 0.6383698914
C   C78       1.0  0.68180  0.42880  0.84600  1.0000 0.6383698914
C   C79       1.0  0.60880  0.78290  0.46750  1.0000 -0.0990329286
C   C80       1.0  0.39120  0.21710  0.53250  1.0000 -0.0990329286
C   C81       1.0  0.85600  0.92470  0.28240  1.0000 -0.170775363
C   C82       1.0  0.14400  0.07530  0.71760  1.0000 -0.170775363
C   C83       1.0  0.18730  0.72560  0.64820  1.0000 -0.0329484534
C   C84       1.0  0.81270  0.27440  0.35180  1.0000 -0.0329484534
C   C85       1.0  0.95890  0.06720  0.22910  1.0000 -0.1807745414
C   C86       1.0  0.04110  0.93280  0.77090  1.0000 -0.1807745414
C   C87       1.0  0.70630  0.14820  0.21600  1.0000 -0.0909165352
C   C88       1.0  0.29370  0.85180  0.78400  1.0000 -0.0909165352
C   C89       1.0  0.65200  0.65950  0.21490  1.0000 -0.0783787206
C   C90       1.0  0.34800  0.34050  0.78510  1.0000 -0.0783787206
C   C91       1.0  0.63220  0.79500  0.40530  1.0000 -0.2124816614
C   C92       1.0  0.36780  0.20500  0.59470  1.0000 -0.2124816614
C   C93       1.0  0.36740  0.11310  0.09040  1.0000 0.1007108875
C   C94       1.0  0.63260  0.88690  0.90960  1.0000 0.1007108875
C   C95       1.0  0.20470  0.66850  0.70980  1.0000 0.6383698914
C   C96       1.0  0.79530  0.33150  0.29020  1.0000 0.6383698914
C   C97       1.0  0.82920  0.54970  0.21170  1.0000 0.6292880062
C   C98       1.0  0.17080  0.45030  0.78830  1.0000 0.6292880062
C   C99       1.0  0.88840  0.68730  0.05500  1.0000 -0.3326059398
C   C100      1.0  0.11160  0.31270  0.94500  1.0000 -0.3326059398
C   C101      1.0  0.28000  0.80540  0.55100  1.0000 -0.170775363
C   C102      1.0  0.72000  0.19460  0.44900  1.0000 -0.170775363
C   C103      1.0  0.75940  0.91820  0.40290  1.0000 -0.2339796838
C   C104      1.0  0.24060  0.08180  0.59710  1.0000 -0.2352663544
C   C105      1.0  0.66030  0.83290  0.49670  1.0000 -0.1358702746
C   C106      1.0  0.33970  0.16710  0.50330  1.0000 -0.1358702746
C   C107      1.0  0.16520  0.95100  0.98880  1.0000 -0.2124816614
C   C108      1.0  0.83480  0.04900  0.01120  1.0000 -0.2124816614
C   C109      1.0  0.14410  0.96770  0.92820  1.0000 -0.0909165352
C   C110      1.0  0.85590  0.03230  0.07180  1.0000 -0.0909165352
C   C111      1.0  0.20240  0.03880  0.88750  1.0000 -0.1531687644
C   C112      1.0  0.79760  0.96120  0.11250  1.0000 -0.1531687644
C   C113      1.0  0.28180  0.09310  0.90720  1.0000 -0.0909165352
C   C114      1.0  0.71820  0.90690  0.09280  1.0000 -0.0909165352
C   C115      1.0  0.30290  0.07650  0.96780  1.0000 -0.2159712878
C   C116      1.0  0.69710  0.92350  0.03220  1.0000 -0.2124816614
C   C117      1.0  0.24460  0.00540  0.00860  1.0000 0.1799576837
C   C118      1.0  0.75540  0.99460  0.99140  1.0000 0.1799576837
C   C119      1.0  0.18180  0.75430  0.31260  1.0000 -0.134829041
C   C120      1.0  0.81820  0.24570  0.68740  1.0000 -0.134829041
C   C121      1.0  0.21640  0.85030  0.38920  1.0000 0.1799576837
C   C122      1.0  0.78360  0.14970  0.61080  1.0000 0.1799576837
C   C123      1.0  0.12800  0.78180  0.40590  1.0000 -0.1960805373
C   C124      1.0  0.87200  0.21820  0.59410  1.0000 -0.1960805373
C   C125      1.0  0.64510  0.84760  0.27600  1.0000 -0.1807745414
C   C126      1.0  0.35490  0.15240  0.72400  1.0000 -0.1807745414
C   C127      1.0  0.04210  0.80880  0.57380  1.0000 -0.170775363
C   C128      1.0  0.95790  0.19120  0.42620  1.0000 -0.170775363
C   C129      1.0  0.30500  0.28900  0.24870  1.0000 0.6383698914
C   C130      1.0  0.69500  0.71100  0.75130  1.0000 0.6383698914
C   C131      1.0  0.73390  0.90020  0.46450  1.0000 -0.1092258035
C   C132      1.0  0.26610  0.09980  0.53550  1.0000 -0.1092258035
C   C133      1.0  0.13040  0.90230  0.47380  1.0000 -0.1807745414
C   C134      1.0  0.86960  0.09770  0.52620  1.0000 -0.1807745414
C   C135      1.0  0.26270  0.82310  0.29550  1.0000 -0.0990329286
C   C136      1.0  0.73730  0.17690  0.70450  1.0000 -0.0990329286
C   C137      1.0  0.11330  0.73260  0.36800  1.0000 -0.0909165352
C   C138      1.0  0.88670  0.26740  0.63200  1.0000 -0.0909165352
C   C139      1.0  0.41400  0.43420  0.30810  1.0000 0.2861137125
C   C140      1.0  0.58600  0.56580  0.69190  1.0000 0.2861137125
C   C141      1.0  0.25300  0.53300  0.32140  1.0000 -0.2957799402
C   C142      1.0  0.74700  0.46700  0.67860  1.0000 -0.2948955264
C   C143      1.0  0.24900  0.36800  0.39160  1.0000 -0.4197681812
C   C144      1.0  0.75100  0.63200  0.60840  1.0000 -0.4197681812
N   N1        1.0  0.01700  0.65430  0.03320  1.0000 0.0428685877
N   N2        1.0  0.98300  0.34570  0.96680  1.0000 0.0428685877
N   N3        1.0  0.23280  0.90070  0.42730  1.0000 -0.1092258035
N   N4        1.0  0.76720  0.09930  0.57270  1.0000 -0.1092258035
N   N5        1.0  0.26790  0.98810  0.06860  1.0000 -0.0990329286
N   N6        1.0  0.73210  0.01190  0.93140  1.0000 -0.0990329286
N   N7        1.0  0.73480  0.87990  0.31220  1.0000 -0.0783787206
N   N8        1.0  0.26520  0.12010  0.68780  1.0000 -0.0783787206
N   N9        1.0  0.31700  0.45440  0.34230  1.0000 0.0478214506
N   N10       1.0  0.68300  0.54560  0.65770  1.0000 0.0478214506
O   O1        1.0  0.32410  0.64790  0.72690  1.0000 -0.6599954433
O   O2        1.0  0.67590  0.35210  0.27310  1.0000 -0.6599954433
O   O3        1.0  0.47040  0.47590  0.26340  1.0000 -0.4635104802
O   O4        1.0  0.52960  0.52410  0.73660  1.0000 -0.4635104802
O   O5        1.0  0.74670  0.51500  0.18690  1.0000 -0.6897187697
O   O6        1.0  0.25330  0.48500  0.81310  1.0000 -0.6897187697
O   O7        1.0  0.97500  0.52070  0.09130  1.0000 -0.5672571924
O   O8        1.0  0.02500  0.47930  0.90870  1.0000 -0.5672571924
O   O9        1.0  0.43570  0.40650  0.10160  1.0000 -0.6599954433
O   O10       1.0  0.56430  0.59350  0.89840  1.0000 -0.6599954433
O   O11       1.0  0.44350  0.55260  0.14500  1.0000 -0.6685309278
O   O12       1.0  0.55650  0.44740  0.85500  1.0000 -0.6685309278
O   O13       1.0  0.22440  0.51790  0.17280  1.0000 -0.6897187697
O   O14       1.0  0.77560  0.48210  0.82720  1.0000 -0.6897187697
O   O15       1.0  0.95410  0.52710  0.21960  1.0000 -0.6599954433
O   O16       1.0  0.04590  0.47290  0.78040  1.0000 -0.6599954433
O   O17       1.0  0.70140  0.32130  0.15990  1.0000 -0.6685309278
O   O18       1.0  0.29860  0.67870  0.84010  1.0000 -0.6685309278
O   O19       1.0  0.67920  0.49830  0.08040  1.0000 -0.7185901072
O   O20       1.0  0.32080  0.50170  0.91960  1.0000 -0.7185901072
O   O21       1.0  0.09640  0.64570  0.74200  1.0000 -0.681539264
O   O22       1.0  0.90360  0.35430  0.25800  1.0000 -0.681539264
O   O23       1.0  0.20670  0.39460  0.10640  1.0000 -0.6685309278
O   O24       1.0  0.79330  0.60540  0.89360  1.0000 -0.6685309278
O   O25       1.0  0.18470  0.31920  0.23810  1.0000 -0.6897187697
O   O26       1.0  0.81530  0.68080  0.76190  1.0000 -0.6897187697
O   O27       1.0  0.92870  0.32570  0.14660  1.0000 -0.6524361041
O   O28       1.0  0.07130  0.67430  0.85340  1.0000 -0.6524361041
O   O29       1.0  0.41130  0.32610  0.22660  1.0000 -0.6439156201
O   O30       1.0  0.58870  0.67390  0.77340  1.0000 -0.6439156201
