# DDEC6 charges by PACMAN v1.1 (https://github.com/mtap-research/PACMAN-charge/)
data_2023[Co][sql]2[FSR]6
_chemical_formula_sum              "Co2 H76 C36 N12 O12"
_cell_length_a       13.1648
_cell_length_b       13.1648
_cell_length_c       12.1557
_cell_angle_alpha    89.549
_cell_angle_beta     90.451
_cell_angle_gamma    55.1122

_symmetry_space_group_name_H-M    "P 1"
_symmetry_Int_Tables_number       1

loop_
  _symmetry_equiv_pos_as_xyz
  'x, y, z'

loop_
  _atom_site_type_symbol
  _atom_site_label
  _atom_site_symmetry_multiplicity
  _atom_site_fract_x
  _atom_site_fract_y
  _atom_site_fract_z
  _atom_site_occupancy
  _atom_site_charge
Co  Co1       1.0  0.50000  0.00000  0.50000  1.0000 0.8364281969
Co  Co2       1.0  0.00000  0.50000  0.00000  1.0000 0.8364281969
H   H1        1.0  0.35691  0.07803  0.13732  1.0000 0.1197265274
H   H2        1.0  0.07803  0.35691  0.36268  1.0000 0.1197265274
H   H3        1.0  0.64309  0.92197  0.86268  1.0000 0.1197265274
H   H4        1.0  0.92197  0.64309  0.63732  1.0000 0.1197265274
H   H5        1.0  0.30001  0.00923  0.18733  1.0000 0.1116073228
H   H6        1.0  0.00923  0.30001  0.31267  1.0000 0.1116073228
H   H7        1.0  0.69999  0.99077  0.81267  1.0000 0.1116073228
H   H8        1.0  0.99077  0.69999  0.68733  1.0000 0.1116073228
H   H9        1.0  0.31485  0.25997  0.36250  1.0000 0.1197265274
H   H10       1.0  0.25997  0.31485  0.13750  1.0000 0.1197265274
H   H11       1.0  0.68515  0.74003  0.63750  1.0000 0.1197265274
H   H12       1.0  0.74003  0.68515  0.86250  1.0000 0.1197265274
H   H13       1.0  0.40629  0.19299  0.26265  1.0000 0.1197265274
H   H14       1.0  0.19299  0.40629  0.23735  1.0000 0.1197265274
H   H15       1.0  0.59371  0.80701  0.73735  1.0000 0.1197265274
H   H16       1.0  0.80701  0.59371  0.76265  1.0000 0.1197265274
H   H17       1.0  0.16907  0.10531  0.35022  1.0000 0.1116073228
H   H18       1.0  0.10531  0.16907  0.14978  1.0000 0.1116073228
H   H19       1.0  0.83093  0.89469  0.64978  1.0000 0.1116073228
H   H20       1.0  0.89469  0.83093  0.85022  1.0000 0.1116073228
H   H21       1.0  0.20505  0.16839  0.43869  1.0000 0.1197265274
H   H22       1.0  0.16839  0.20505  0.06131  1.0000 0.1197265274
H   H23       1.0  0.79495  0.83161  0.56131  1.0000 0.1197265274
H   H24       1.0  0.83161  0.79495  0.93869  1.0000 0.1197265274
H   H25       1.0  0.13441  0.36345  0.60599  1.0000 0.1197265274
H   H26       1.0  0.36345  0.13441  0.89401  1.0000 0.1197265274
H   H27       1.0  0.86559  0.63655  0.39401  1.0000 0.1197265274
H   H28       1.0  0.63655  0.86559  0.10599  1.0000 0.1197265274
H   H29       1.0  0.12337  0.24943  0.60725  1.0000 0.1197265274
H   H30       1.0  0.24943  0.12337  0.89275  1.0000 0.1197265274
H   H31       1.0  0.87663  0.75057  0.39275  1.0000 0.1197265274
H   H32       1.0  0.75057  0.87663  0.10725  1.0000 0.1197265274
H   H33       1.0  0.43246  0.21092  0.72256  1.0000 0.1116073228
H   H34       1.0  0.21092  0.43246  0.77744  1.0000 0.1116073228
H   H35       1.0  0.56754  0.78908  0.27744  1.0000 0.1197265274
H   H36       1.0  0.78908  0.56754  0.22256  1.0000 0.1116073228
H   H37       1.0  0.34096  0.32460  0.64293  1.0000 0.1197265274
H   H38       1.0  0.32460  0.34096  0.85707  1.0000 0.1197265274
H   H39       1.0  0.65904  0.67540  0.35707  1.0000 0.1197265274
H   H40       1.0  0.67540  0.65904  0.14293  1.0000 0.1197265274
H   H41       1.0  0.27792  0.06642  0.71810  1.0000 0.1197265274
H   H42       1.0  0.06643  0.27792  0.78190  1.0000 0.1197265274
H   H43       1.0  0.72209  0.93358  0.28190  1.0000 0.1197265274
H   H44       1.0  0.93358  0.72208  0.21810  1.0000 0.1197265274
H   H45       1.0  0.41304  0.03454  0.73597  1.0000 0.1197265274
H   H46       1.0  0.03454  0.41304  0.76403  1.0000 0.1197265274
H   H47       1.0  0.58696  0.96546  0.26403  1.0000 0.1197265274
H   H48       1.0  0.96546  0.58696  0.23597  1.0000 0.1197265274
H   H49       1.0  0.40433  0.86063  0.42322  1.0000 0.0865815894
H   H50       1.0  0.86063  0.40433  0.07678  1.0000 0.0865815894
H   H51       1.0  0.59567  0.13937  0.57678  1.0000 0.0865815894
H   H52       1.0  0.13937  0.59567  0.92322  1.0000 0.0865815894
H   H53       1.0  0.31632  0.68248  0.44494  1.0000 0.129468398
H   H54       1.0  0.68248  0.31632  0.05506  1.0000 0.129468398
H   H55       1.0  0.68368  0.31752  0.55506  1.0000 0.129468398
H   H56       1.0  0.31752  0.68368  0.94494  1.0000 0.129468398
H   H57       1.0  0.38658  0.71512  0.36239  1.0000 0.1116073228
H   H58       1.0  0.71512  0.38658  0.13761  1.0000 0.1116073228
H   H59       1.0  0.61342  0.28488  0.63761  1.0000 0.1116073228
H   H60       1.0  0.28488  0.61342  0.86239  1.0000 0.1116073228
H   H61       1.0  0.46179  0.59063  0.43290  1.0000 0.1197265274
H   H62       1.0  0.59063  0.46179  0.06710  1.0000 0.1197265274
H   H63       1.0  0.53821  0.40937  0.56710  1.0000 0.1197265274
H   H64       1.0  0.40937  0.53821  0.93290  1.0000 0.1197265274
H   H65       1.0  0.37756  0.66595  0.64635  1.0000 0.1197265274
H   H66       1.0  0.66595  0.37756  0.85365  1.0000 0.1197265274
H   H67       1.0  0.62244  0.33405  0.35365  1.0000 0.1197265274
H   H68       1.0  0.33405  0.62243  0.14635  1.0000 0.1197265274
H   H69       1.0  0.51843  0.61725  0.63653  1.0000 0.1197265274
H   H70       1.0  0.61725  0.51843  0.86347  1.0000 0.1197265274
H   H71       1.0  0.48157  0.38275  0.36347  1.0000 0.1197265274
H   H72       1.0  0.38275  0.48157  0.13653  1.0000 0.1197265274
H   H73       1.0  0.42089  0.75081  0.68337  1.0000 0.1374481337
H   H74       1.0  0.75081  0.42089  0.81663  1.0000 0.1374481337
H   H75       1.0  0.57911  0.24919  0.31663  1.0000 0.1374481337
H   H76       1.0  0.24919  0.57911  0.18337  1.0000 0.1374481337
C   C1        1.0  0.29238  0.08778  0.18520  1.0000 -0.1807938361
C   C2        1.0  0.08778  0.29238  0.31480  1.0000 -0.1749041958
C   C3        1.0  0.70762  0.91222  0.81480  1.0000 -0.1749041958
C   C4        1.0  0.91222  0.70762  0.68520  1.0000 -0.1749041958
C   C5        1.0  0.32359  0.22419  0.28990  1.0000 -0.1896934731
C   C6        1.0  0.22419  0.32359  0.21010  1.0000 -0.1896934731
C   C7        1.0  0.67641  0.77581  0.71010  1.0000 -0.1896934731
C   C8        1.0  0.77581  0.67641  0.78990  1.0000 -0.1896934731
C   C9        1.0  0.19179  0.16379  0.36000  1.0000 -0.1807938361
C   C10       1.0  0.16379  0.19179  0.14000  1.0000 -0.1807938361
C   C11       1.0  0.80821  0.83621  0.64000  1.0000 -0.1807938361
C   C12       1.0  0.83621  0.80821  0.86000  1.0000 -0.1807938361
C   C13       1.0  0.15659  0.28899  0.64730  1.0000 -0.1807938361
C   C14       1.0  0.28899  0.15659  0.85270  1.0000 -0.1749041958
C   C15       1.0  0.84341  0.71101  0.35270  1.0000 -0.1807938361
C   C16       1.0  0.71101  0.84341  0.14730  1.0000 -0.1749041958
C   C17       1.0  0.34540  0.26960  0.70050  1.0000 -0.1896934731
C   C18       1.0  0.26960  0.34540  0.79950  1.0000 -0.1807938361
C   C19       1.0  0.65460  0.73040  0.29950  1.0000 -0.1807938361
C   C20       1.0  0.73040  0.65460  0.20050  1.0000 -0.1807938361
C   C21       1.0  0.32440  0.10120  0.73760  1.0000 -0.1807938361
C   C22       1.0  0.10120  0.32440  0.76240  1.0000 -0.1807938361
C   C23       1.0  0.67560  0.89880  0.26240  1.0000 -0.1807938361
C   C24       1.0  0.89880  0.67560  0.23760  1.0000 -0.1807938361
C   C25       1.0  0.41850  0.83310  0.49690  1.0000 0.1923460194
C   C26       1.0  0.83310  0.41850  0.00310  1.0000 0.1923460194
C   C27       1.0  0.58150  0.16690  0.50310  1.0000 0.1923460194
C   C28       1.0  0.16690  0.58150  0.99690  1.0000 0.1923460194
C   C29       1.0  0.39200  0.67700  0.43280  1.0000 -0.3725098653
C   C30       1.0  0.67700  0.39200  0.06720  1.0000 -0.3725098653
C   C31       1.0  0.60800  0.32300  0.56720  1.0000 -0.3725098653
C   C32       1.0  0.32300  0.60800  0.93280  1.0000 -0.3725098653
C   C33       1.0  0.43360  0.68960  0.63080  1.0000 -0.3474944217
C   C34       1.0  0.68960  0.43360  0.86920  1.0000 -0.3474944217
C   C35       1.0  0.56640  0.31040  0.36920  1.0000 -0.3474944217
C   C36       1.0  0.31040  0.56640  0.13080  1.0000 -0.3474944217
N   N1        1.0  0.30765  0.12087  0.29838  1.0000 0.2913290279
N   N2        1.0  0.12087  0.30765  0.20162  1.0000 0.2913290279
N   N3        1.0  0.69235  0.87913  0.70162  1.0000 0.2913290279
N   N4        1.0  0.87913  0.69235  0.79838  1.0000 0.2913290279
N   N5        1.0  0.29497  0.20131  0.65771  1.0000 0.283431405
N   N6        1.0  0.20131  0.29497  0.84229  1.0000 0.283431405
N   N7        1.0  0.70503  0.79869  0.34229  1.0000 0.283431405
N   N8        1.0  0.79869  0.70503  0.15771  1.0000 0.283431405
N   N9        1.0  0.40952  0.74152  0.52090  1.0000 0.0212913884
N   N10       1.0  0.74152  0.40952  0.97910  1.0000 0.0212913884
N   N11       1.0  0.59048  0.25848  0.47910  1.0000 0.0212913884
N   N12       1.0  0.25848  0.59048  0.02090  1.0000 0.0212913884
O   O1        1.0  0.40995  0.01603  0.34859  1.0000 -0.5889382048
O   O2        1.0  0.01603  0.40995  0.15141  1.0000 -0.5889382048
O   O3        1.0  0.59005  0.98397  0.65141  1.0000 -0.5889382048
O   O4        1.0  0.98397  0.59005  0.84859  1.0000 -0.5889382048
O   O5        1.0  0.34121  0.15709  0.55319  1.0000 -0.581637366
O   O6        1.0  0.15709  0.34121  0.94681  1.0000 -0.581637366
O   O7        1.0  0.65879  0.84291  0.44681  1.0000 -0.581637366
O   O8        1.0  0.84291  0.65879  0.05319  1.0000 -0.581637366
O   O9        1.0  0.44364  0.88576  0.56208  1.0000 -0.466182111
O   O10       1.0  0.88576  0.44364  0.93792  1.0000 -0.466182111
O   O11       1.0  0.55636  0.11424  0.43792  1.0000 -0.466182111
O   O12       1.0  0.11424  0.55636  0.06208  1.0000 -0.466182111
