# DDEC6 charges by PACMAN v1.1 (https://github.com/mtap-research/PACMAN-charge/)
data_2023[Zn][nan]3[FSR]5
_chemical_formula_sum              "Zn4 H80 C116 N4 O16"
_cell_length_a       14.0958
_cell_length_b       14.0958
_cell_length_c       28.9706
_cell_angle_alpha    87.559
_cell_angle_beta     92.441
_cell_angle_gamma    146.389

_symmetry_space_group_name_H-M    "P 1"
_symmetry_Int_Tables_number       1

loop_
  _symmetry_equiv_pos_as_xyz
  'x, y, z'

loop_
  _atom_site_type_symbol
  _atom_site_label
  _atom_site_symmetry_multiplicity
  _atom_site_fract_x
  _atom_site_fract_y
  _atom_site_fract_z
  _atom_site_occupancy
  _atom_site_charge
Zn  Zn1       1.0  0.09787  0.16827  0.49223  1.0000 0.8191189637
Zn  Zn2       1.0  0.16827  0.09787  0.00777  1.0000 0.8191189637
Zn  Zn3       1.0  0.90213  0.83173  0.50777  1.0000 0.8191189637
Zn  Zn4       1.0  0.83173  0.90213  0.99223  1.0000 0.8191189637
H   H1        1.0  0.48850  0.55648  0.40961  1.0000 0.1186032882
H   H2        1.0  0.55648  0.48850  0.09039  1.0000 0.1186032882
H   H3        1.0  0.51150  0.44352  0.59039  1.0000 0.1186032882
H   H4        1.0  0.44352  0.51150  0.90961  1.0000 0.1186032882
H   H5        1.0  0.29946  0.45032  0.35206  1.0000 0.1186032882
H   H6        1.0  0.45032  0.29946  0.14794  1.0000 0.1186032882
H   H7        1.0  0.70054  0.54968  0.64794  1.0000 0.1186032882
H   H8        1.0  0.54968  0.70054  0.85206  1.0000 0.1186032882
H   H9        1.0  0.51608  0.88712  0.34958  1.0000 0.1186032882
H   H10       1.0  0.88712  0.51608  0.15042  1.0000 0.1186032882
H   H11       1.0  0.48392  0.11288  0.65042  1.0000 0.1186032882
H   H12       1.0  0.11288  0.48392  0.84958  1.0000 0.1186032882
H   H13       1.0  0.71255  0.99939  0.40418  1.0000 0.1186032882
H   H14       1.0  0.99939  0.71255  0.09582  1.0000 0.1186032882
H   H15       1.0  0.28745  0.00061  0.59582  1.0000 0.1186032882
H   H16       1.0  0.00061  0.28745  0.90418  1.0000 0.1186032882
H   H17       1.0  0.20746  0.66580  0.32835  1.0000 0.1186032882
H   H18       1.0  0.66580  0.20746  0.17165  1.0000 0.1186032882
H   H19       1.0  0.79254  0.33420  0.67165  1.0000 0.1186032882
H   H20       1.0  0.33420  0.79254  0.82835  1.0000 0.1186032882
H   H21       1.0  0.01483  0.46233  0.20290  1.0000 0.1186032882
H   H22       1.0  0.46233  0.01483  0.29710  1.0000 0.1186032882
H   H23       1.0  0.98517  0.53767  0.79710  1.0000 0.1186032882
H   H24       1.0  0.53767  0.98517  0.70290  1.0000 0.1186032882
H   H25       1.0  0.30268  0.50088  0.26767  1.0000 0.1141903397
H   H26       1.0  0.50088  0.30268  0.23233  1.0000 0.1141903397
H   H27       1.0  0.69732  0.49912  0.73233  1.0000 0.1141903397
H   H28       1.0  0.49912  0.69732  0.76767  1.0000 0.1141903397
H   H29       1.0  0.08773  0.70129  0.24595  1.0000 0.140838789
H   H30       1.0  0.70129  0.08773  0.25405  1.0000 0.140838789
H   H31       1.0  0.91227  0.29871  0.75405  1.0000 0.140838789
H   H32       1.0  0.29871  0.91227  0.74595  1.0000 0.140838789
H   H33       1.0  0.90636  0.50264  0.24867  1.0000 0.129410783
H   H34       1.0  0.50264  0.90636  0.25133  1.0000 0.129410783
H   H35       1.0  0.09364  0.49736  0.75133  1.0000 0.129410783
H   H36       1.0  0.49736  0.09364  0.74867  1.0000 0.129410783
H   H37       1.0  0.00489  0.60915  0.29414  1.0000 0.140838789
H   H38       1.0  0.60915  0.00489  0.20586  1.0000 0.140838789
H   H39       1.0  0.99511  0.39085  0.70586  1.0000 0.140838789
H   H40       1.0  0.39085  0.99511  0.79414  1.0000 0.140838789
H   H41       1.0  0.86835  0.11805  0.10538  1.0000 0.129410783
H   H42       1.0  0.11805  0.86835  0.39462  1.0000 0.129410783
H   H43       1.0  0.13165  0.88195  0.89462  1.0000 0.129410783
H   H44       1.0  0.88195  0.13165  0.60538  1.0000 0.129410783
H   H45       1.0  0.90252  0.24342  0.16650  1.0000 0.1141903397
H   H46       1.0  0.24342  0.90252  0.33350  1.0000 0.1141903397
H   H47       1.0  0.09748  0.75658  0.83350  1.0000 0.1141903397
H   H48       1.0  0.75658  0.09748  0.66650  1.0000 0.1141903397
H   H49       1.0  0.36456  0.51480  0.19281  1.0000 0.1186032882
H   H50       1.0  0.51480  0.36456  0.30719  1.0000 0.1186032882
H   H51       1.0  0.63544  0.48520  0.80719  1.0000 0.1186032882
H   H52       1.0  0.48520  0.63544  0.69281  1.0000 0.1186032882
H   H53       1.0  0.32930  0.38950  0.13113  1.0000 0.1186032882
H   H54       1.0  0.38950  0.32930  0.36887  1.0000 0.1186032882
H   H55       1.0  0.67070  0.61050  0.86887  1.0000 0.1186032882
H   H56       1.0  0.61050  0.67070  0.63113  1.0000 0.1186032882
H   H57       1.0  0.05587  0.32345  0.44627  1.0000 0.1141903397
H   H58       1.0  0.32345  0.05587  0.05373  1.0000 0.1141903397
H   H59       1.0  0.94413  0.67655  0.55373  1.0000 0.1141903397
H   H60       1.0  0.67655  0.94413  0.94627  1.0000 0.1141903397
H   H61       1.0  0.17465  0.57157  0.44638  1.0000 0.129410783
H   H62       1.0  0.57157  0.17465  0.05362  1.0000 0.129410783
H   H63       1.0  0.82535  0.42843  0.55362  1.0000 0.129410783
H   H64       1.0  0.42843  0.82535  0.94638  1.0000 0.129410783
H   H65       1.0  0.52260  0.76390  0.53783  1.0000 0.129410783
H   H66       1.0  0.76390  0.52260  0.96217  1.0000 0.129410783
H   H67       1.0  0.47740  0.23610  0.46217  1.0000 0.129410783
H   H68       1.0  0.23610  0.47740  0.03783  1.0000 0.129410783
H   H69       1.0  0.40056  0.51392  0.53429  1.0000 0.1186032882
H   H70       1.0  0.51392  0.40056  0.96571  1.0000 0.1186032882
H   H71       1.0  0.59944  0.48608  0.46571  1.0000 0.1186032882
H   H72       1.0  0.48608  0.59944  0.03429  1.0000 0.1186032882
H   H73       1.0  0.21358  0.74230  0.48340  1.0000 0.1186032882
H   H74       1.0  0.74230  0.21358  0.01660  1.0000 0.1186032882
H   H75       1.0  0.78642  0.25770  0.51660  1.0000 0.1186032882
H   H76       1.0  0.25770  0.78642  0.98340  1.0000 0.1186032882
H   H77       1.0  0.67650  0.01565  0.50939  1.0000 0.129410783
H   H78       1.0  0.01566  0.67649  0.99061  1.0000 0.129410783
H   H79       1.0  0.32351  0.98435  0.49061  1.0000 0.129410783
H   H80       1.0  0.98435  0.32350  0.00939  1.0000 0.129410783
C   C1        1.0  0.75967  0.86873  0.44579  1.0000 0.5704144706
C   C2        1.0  0.86873  0.75967  0.05421  1.0000 0.5704144706
C   C3        1.0  0.24033  0.13127  0.55421  1.0000 0.5704144706
C   C4        1.0  0.13127  0.24033  0.94579  1.0000 0.5704144706
C   C5        1.0  0.62528  0.79152  0.41170  1.0000 -0.0359421092
C   C6        1.0  0.79152  0.62528  0.08830  1.0000 -0.0359421092
C   C7        1.0  0.37472  0.20848  0.58830  1.0000 -0.0359421092
C   C8        1.0  0.20848  0.37472  0.91170  1.0000 -0.0359421092
C   C9        1.0  0.49739  0.62521  0.39671  1.0000 -0.10118266
C   C10       1.0  0.62521  0.49739  0.10329  1.0000 -0.10118266
C   C11       1.0  0.50261  0.37479  0.60329  1.0000 -0.10118266
C   C12       1.0  0.37479  0.50261  0.89671  1.0000 -0.10118266
C   C13       1.0  0.38269  0.56111  0.36250  1.0000 -0.1507128373
C   C14       1.0  0.56111  0.38269  0.13750  1.0000 -0.1507128373
C   C15       1.0  0.61731  0.43889  0.63750  1.0000 -0.1507128373
C   C16       1.0  0.43889  0.61731  0.86250  1.0000 -0.1507128373
C   C17       1.0  0.38916  0.65844  0.34346  1.0000 0.066929903
C   C18       1.0  0.65844  0.38916  0.15654  1.0000 0.066929903
C   C19       1.0  0.61084  0.34156  0.65654  1.0000 0.066929903
C   C20       1.0  0.34156  0.61084  0.84346  1.0000 0.066929903
C   C21       1.0  0.51271  0.82149  0.36074  1.0000 -0.1507128373
C   C22       1.0  0.82149  0.51271  0.13926  1.0000 -0.1507128373
C   C23       1.0  0.48729  0.17851  0.63926  1.0000 -0.1507128373
C   C24       1.0  0.17851  0.48729  0.86074  1.0000 -0.1507128373
C   C25       1.0  0.62984  0.88876  0.39372  1.0000 -0.1091740275
C   C26       1.0  0.88876  0.62984  0.10628  1.0000 -0.10118266
C   C27       1.0  0.37016  0.11124  0.60628  1.0000 -0.1091740275
C   C28       1.0  0.11124  0.37016  0.89372  1.0000 -0.10118266
C   C29       1.0  0.27664  0.59676  0.30406  1.0000 0.0780214936
C   C30       1.0  0.59676  0.27664  0.19594  1.0000 0.0780214936
C   C31       1.0  0.72336  0.40324  0.69594  1.0000 0.0780214936
C   C32       1.0  0.40324  0.72336  0.80406  1.0000 0.0780214936
C   C33       1.0  0.19620  0.61840  0.30300  1.0000 -0.2295617739
C   C34       1.0  0.61840  0.19620  0.19700  1.0000 -0.2295617739
C   C35       1.0  0.80380  0.38160  0.69700  1.0000 -0.2295617739
C   C36       1.0  0.38160  0.80380  0.80300  1.0000 -0.2295617739
C   C37       1.0  0.09970  0.57050  0.26490  1.0000 0.1730733236
C   C38       1.0  0.57050  0.09970  0.23510  1.0000 0.1730733236
C   C39       1.0  0.90030  0.42950  0.73510  1.0000 0.1730733236
C   C40       1.0  0.42950  0.90030  0.76490  1.0000 0.1730733236
C   C41       1.0  0.08040  0.49580  0.22830  1.0000 -0.2171900811
C   C42       1.0  0.49580  0.08040  0.27170  1.0000 -0.2171900811
C   C43       1.0  0.91960  0.50420  0.77170  1.0000 -0.2171900811
C   C44       1.0  0.50420  0.91960  0.72830  1.0000 -0.2171900811
C   C45       1.0  0.15539  0.46821  0.22789  1.0000 0.0780214936
C   C46       1.0  0.46821  0.15539  0.27211  1.0000 0.0780214936
C   C47       1.0  0.84461  0.53179  0.77211  1.0000 0.0780214936
C   C48       1.0  0.53179  0.84461  0.72789  1.0000 0.0780214936
C   C49       1.0  0.25274  0.51926  0.26679  1.0000 -0.2097426633
C   C50       1.0  0.51926  0.25274  0.23321  1.0000 -0.2097426633
C   C51       1.0  0.74726  0.48074  0.73321  1.0000 -0.2097426633
C   C52       1.0  0.48074  0.74726  0.76679  1.0000 -0.2097426633
C   C53       1.0  0.01720  0.59840  0.26330  1.0000 -0.4652090426
C   C54       1.0  0.59840  0.01720  0.23670  1.0000 -0.4652090426
C   C55       1.0  0.98280  0.40160  0.73670  1.0000 -0.4652090426
C   C56       1.0  0.40160  0.98280  0.76330  1.0000 -0.4652090426
C   C57       1.0  0.07041  0.15739  0.07131  1.0000 0.5704144706
C   C58       1.0  0.15739  0.07041  0.42869  1.0000 0.5704144706
C   C59       1.0  0.92959  0.84261  0.92869  1.0000 0.5704144706
C   C60       1.0  0.84261  0.92959  0.57131  1.0000 0.5704144706
C   C61       1.0  0.09467  0.23973  0.11186  1.0000 -0.0346493724
C   C62       1.0  0.23973  0.09467  0.38814  1.0000 -0.0346493724
C   C63       1.0  0.90533  0.76027  0.88814  1.0000 -0.0346493724
C   C64       1.0  0.76027  0.90533  0.61186  1.0000 -0.0346493724
C   C65       1.0  0.96870  0.19790  0.12300  1.0000 -0.1091740275
C   C66       1.0  0.19790  0.96870  0.37700  1.0000 -0.1091740275
C   C67       1.0  0.03130  0.80210  0.87700  1.0000 -0.1091740275
C   C68       1.0  0.80210  0.03130  0.62300  1.0000 -0.1091740275
C   C69       1.0  0.98900  0.27280  0.16000  1.0000 -0.1507128373
C   C70       1.0  0.27280  0.98900  0.34000  1.0000 -0.1507128373
C   C71       1.0  0.01100  0.72720  0.84000  1.0000 -0.1507128373
C   C72       1.0  0.72720  0.01100  0.66000  1.0000 -0.1507128373
C   C73       1.0  0.13494  0.39026  0.18766  1.0000 0.0780214936
C   C74       1.0  0.39026  0.13494  0.31234  1.0000 0.0780214936
C   C75       1.0  0.86506  0.60974  0.81234  1.0000 0.0780214936
C   C76       1.0  0.60974  0.86506  0.68766  1.0000 0.0780214936
C   C77       1.0  0.26330  0.43390  0.17550  1.0000 -0.1507128373
C   C78       1.0  0.43390  0.26330  0.32450  1.0000 -0.1507128373
C   C79       1.0  0.73670  0.56610  0.82450  1.0000 -0.1507128373
C   C80       1.0  0.56610  0.73670  0.67550  1.0000 -0.1507128373
C   C81       1.0  0.24230  0.35890  0.13830  1.0000 -0.1091740275
C   C82       1.0  0.35890  0.24230  0.36170  1.0000 -0.1091740275
C   C83       1.0  0.75770  0.64110  0.86170  1.0000 -0.1091740275
C   C84       1.0  0.64110  0.75770  0.63830  1.0000 -0.1091740275
C   C85       1.0  0.15122  0.41298  0.46500  1.0000 0.0868823977
C   C86       1.0  0.41298  0.15122  0.03500  1.0000 0.0868823977
C   C87       1.0  0.84878  0.58702  0.53500  1.0000 0.0868823977
C   C88       1.0  0.58702  0.84878  0.96500  1.0000 0.0868823977
C   C89       1.0  0.22148  0.56192  0.46520  1.0000 -0.1992705333
C   C90       1.0  0.56192  0.22148  0.03480  1.0000 -0.1992705333
C   C91       1.0  0.77852  0.43808  0.53480  1.0000 -0.1992705333
C   C92       1.0  0.43808  0.77852  0.96520  1.0000 -0.1992705333
C   C93       1.0  0.36007  0.69513  0.49319  1.0000 0.1141903397
C   C94       1.0  0.69513  0.36007  0.00681  1.0000 0.1141903397
C   C95       1.0  0.63993  0.30487  0.50681  1.0000 0.1141903397
C   C96       1.0  0.30487  0.63993  0.99319  1.0000 0.1141903397
C   C97       1.0  0.42711  0.67569  0.51890  1.0000 -0.1878952811
C   C98       1.0  0.67569  0.42711  0.98110  1.0000 -0.1878952811
C   C99       1.0  0.57289  0.32431  0.48110  1.0000 -0.1878952811
C   C100      1.0  0.32431  0.57289  0.01890  1.0000 -0.1878952811
C   C101      1.0  0.35246  0.52414  0.51680  1.0000 0.1017204431
C   C102      1.0  0.52414  0.35246  0.98320  1.0000 0.1017204431
C   C103      1.0  0.64754  0.47586  0.48320  1.0000 0.1017204431
C   C104      1.0  0.47586  0.64754  0.01680  1.0000 0.1017204431
C   C105      1.0  0.32940  0.84640  0.49030  1.0000 -0.1388474776
C   C106      1.0  0.84640  0.32940  0.00970  1.0000 -0.1388474776
C   C107      1.0  0.67060  0.15360  0.50970  1.0000 -0.1388474776
C   C108      1.0  0.15360  0.67060  0.99030  1.0000 -0.1388474776
C   C109      1.0  0.43425  0.85395  0.49640  1.0000 0.066929903
C   C110      1.0  0.85395  0.43425  0.00360  1.0000 0.066929903
C   C111      1.0  0.56575  0.14605  0.50360  1.0000 0.066929903
C   C112      1.0  0.14605  0.56575  0.99640  1.0000 0.066929903
C   C113      1.0  0.60470  0.00830  0.50570  1.0000 -0.1388474776
C   C114      1.0  0.00830  0.60470  0.99430  1.0000 -0.1388474776
C   C115      1.0  0.39530  0.99170  0.49430  1.0000 -0.1388474776
C   C116      1.0  0.99170  0.39530  0.00570  1.0000 -0.1388474776
N   N1        1.0  0.21454  0.39286  0.49056  1.0000 -0.2171900811
N   N2        1.0  0.39286  0.21454  0.00944  1.0000 -0.2171900811
N   N3        1.0  0.78546  0.60714  0.50944  1.0000 -0.2171900811
N   N4        1.0  0.60714  0.78546  0.99056  1.0000 -0.2171900811
O   O1        1.0  0.88646  0.02594  0.45328  1.0000 -0.5412805806
O   O2        1.0  0.02594  0.88646  0.04672  1.0000 -0.5412805806
O   O3        1.0  0.11354  0.97406  0.54672  1.0000 -0.5412805806
O   O4        1.0  0.97406  0.11354  0.95328  1.0000 -0.5412805806
O   O5        1.0  0.73954  0.76986  0.46458  1.0000 -0.5510324965
O   O6        1.0  0.76986  0.73954  0.03542  1.0000 -0.5510324965
O   O7        1.0  0.26046  0.23014  0.53542  1.0000 -0.5510324965
O   O8        1.0  0.23014  0.26046  0.96458  1.0000 -0.5510324965
O   O9        1.0  0.18919  0.20061  0.06241  1.0000 -0.5255741308
O   O10       1.0  0.20061  0.18919  0.43759  1.0000 -0.5255741308
O   O11       1.0  0.81081  0.79939  0.93759  1.0000 -0.5255741308
O   O12       1.0  0.79939  0.81081  0.56241  1.0000 -0.5255741308
O   O13       1.0  0.93359  0.05221  0.04884  1.0000 -0.5412805806
O   O14       1.0  0.05221  0.93359  0.45116  1.0000 -0.5412805806
O   O15       1.0  0.06641  0.94779  0.95116  1.0000 -0.5412805806
O   O16       1.0  0.94779  0.06641  0.54884  1.0000 -0.5412805806
