# DDEC6 charges by PACMAN v1.1 (https://github.com/mtap-research/PACMAN-charge/)
data_2023[Co][nan]3[FSR]13
_chemical_formula_sum              "Co4 H80 C104 N20 O20"
_cell_length_a       9.1314
_cell_length_b       16.8119
_cell_length_c       18.7586
_cell_angle_alpha    90
_cell_angle_beta     105.803
_cell_angle_gamma    90

_symmetry_space_group_name_H-M    "P 1"
_symmetry_Int_Tables_number       1

loop_
  _symmetry_equiv_pos_as_xyz
  'x, y, z'

loop_
  _atom_site_type_symbol
  _atom_site_label
  _atom_site_symmetry_multiplicity
  _atom_site_fract_x
  _atom_site_fract_y
  _atom_site_fract_z
  _atom_site_occupancy
  _atom_site_charge
Co  Co1       1.0  0.55895  0.70945  0.69992  1.0000 0.8084567673
Co  Co2       1.0  0.44105  0.20945  0.80008  1.0000 0.8084567673
Co  Co3       1.0  0.44105  0.29055  0.30008  1.0000 0.8084567673
Co  Co4       1.0  0.55895  0.79055  0.19992  1.0000 0.8084567673
H   H1        1.0  0.14949  0.89384  0.93610  1.0000 0.2825528569
H   H2        1.0  0.85051  0.39384  0.56390  1.0000 0.2825528569
H   H3        1.0  0.85051  0.10616  0.06390  1.0000 0.2825528569
H   H4        1.0  0.14949  0.60616  0.43610  1.0000 0.2825528569
H   H5        1.0  0.54733  0.98531  0.88513  1.0000 0.1129833
H   H6        1.0  0.45267  0.48531  0.61487  1.0000 0.1129833
H   H7        1.0  0.45267  0.01469  0.11487  1.0000 0.1129833
H   H8        1.0  0.54733  0.51469  0.38513  1.0000 0.1129833
H   H9        1.0  0.32363  0.93646  0.90515  1.0000 0.1129833
H   H10       1.0  0.67637  0.43646  0.59485  1.0000 0.1129833
H   H11       1.0  0.67637  0.06354  0.09485  1.0000 0.1129833
H   H12       1.0  0.32363  0.56354  0.40515  1.0000 0.1129833
H   H13       1.0  0.91231  0.85013  0.86689  1.0000 0.1294124192
H   H14       1.0  0.08769  0.35013  0.63311  1.0000 0.1294124192
H   H15       1.0  0.08769  0.14987  0.13311  1.0000 0.1294124192
H   H16       1.0  0.91231  0.64987  0.36689  1.0000 0.1294124192
H   H17       1.0  0.60156  0.78002  0.96994  1.0000 0.120459968
H   H18       1.0  0.39844  0.28002  0.53006  1.0000 0.120459968
H   H19       1.0  0.39844  0.21998  0.03006  1.0000 0.120459968
H   H20       1.0  0.60156  0.71998  0.46994  1.0000 0.120459968
H   H21       1.0  0.99466  0.87935  0.08635  1.0000 0.1294124192
H   H22       1.0  0.00534  0.37935  0.41365  1.0000 0.1294124192
H   H23       1.0  0.00534  0.12065  0.91365  1.0000 0.1294124192
H   H24       1.0  0.99466  0.62065  0.58635  1.0000 0.1294124192
H   H25       1.0  0.18838  0.08786  0.54885  1.0000 0.1294124192
H   H26       1.0  0.81162  0.58786  0.95115  1.0000 0.1294124192
H   H27       1.0  0.81162  0.91214  0.45115  1.0000 0.1294124192
H   H28       1.0  0.18838  0.41214  0.04885  1.0000 0.1294124192
H   H29       1.0  0.23634  0.95425  0.55126  1.0000 0.1129833
H   H30       1.0  0.76366  0.45425  0.94874  1.0000 0.1129833
H   H31       1.0  0.76366  0.04575  0.44874  1.0000 0.1129833
H   H32       1.0  0.23634  0.54575  0.05126  1.0000 0.1129833
H   H33       1.0  0.11425  0.82031  0.45928  1.0000 0.1294124192
H   H34       1.0  0.88575  0.32031  0.04072  1.0000 0.1294124192
H   H35       1.0  0.88575  0.17969  0.54072  1.0000 0.1294124192
H   H36       1.0  0.11425  0.67969  0.95928  1.0000 0.1294124192
H   H37       1.0  0.96530  0.80243  0.48274  1.0000 0.120459968
H   H38       1.0  0.03470  0.30243  0.01726  1.0000 0.120459968
H   H39       1.0  0.03470  0.19757  0.51726  1.0000 0.120459968
H   H40       1.0  0.96530  0.69757  0.98274  1.0000 0.120459968
H   H41       1.0  0.02547  0.82394  0.63972  1.0000 0.137759573
H   H42       1.0  0.97453  0.32394  0.86028  1.0000 0.137759573
H   H43       1.0  0.97453  0.17606  0.36028  1.0000 0.137759573
H   H44       1.0  0.02547  0.67606  0.13972  1.0000 0.137759573
H   H45       1.0  0.24242  0.77154  0.73593  1.0000 0.137759573
H   H46       1.0  0.75758  0.27154  0.76407  1.0000 0.137759573
H   H47       1.0  0.75758  0.22846  0.26407  1.0000 0.137759573
H   H48       1.0  0.24242  0.72846  0.23593  1.0000 0.137759573
H   H49       1.0  0.34380  0.76211  0.54575  1.0000 0.120459968
H   H50       1.0  0.65620  0.26211  0.95425  1.0000 0.120459968
H   H51       1.0  0.65620  0.23789  0.45425  1.0000 0.120459968
H   H52       1.0  0.34380  0.73789  0.04575  1.0000 0.120459968
H   H53       1.0  0.33485  0.61009  0.76024  1.0000 0.120459968
H   H54       1.0  0.66515  0.11009  0.73976  1.0000 0.120459968
H   H55       1.0  0.66515  0.38991  0.23976  1.0000 0.120459968
H   H56       1.0  0.33485  0.88991  0.26024  1.0000 0.120459968
H   H57       1.0  0.72774  0.53444  0.74396  1.0000 0.137759573
H   H58       1.0  0.27226  0.03444  0.75604  1.0000 0.137759573
H   H59       1.0  0.27226  0.46556  0.25604  1.0000 0.137759573
H   H60       1.0  0.72774  0.96556  0.24396  1.0000 0.137759573
H   H61       1.0  0.61840  0.43069  0.80368  1.0000 0.1294124192
H   H62       1.0  0.38160  0.93069  0.69632  1.0000 0.1294124192
H   H63       1.0  0.38160  0.56931  0.19632  1.0000 0.1294124192
H   H64       1.0  0.61840  0.06931  0.30368  1.0000 0.1294124192
H   H65       1.0  0.24743  0.49594  0.82804  1.0000 0.137759573
H   H66       1.0  0.75257  0.99594  0.67196  1.0000 0.137759573
H   H67       1.0  0.75257  0.50406  0.17196  1.0000 0.137759573
H   H68       1.0  0.24743  0.00406  0.32804  1.0000 0.137759573
H   H69       1.0  0.33608  0.41535  0.83135  1.0000 0.137759573
H   H70       1.0  0.66392  0.91535  0.66865  1.0000 0.137759573
H   H71       1.0  0.66392  0.58465  0.16865  1.0000 0.137759573
H   H72       1.0  0.33608  0.08465  0.33135  1.0000 0.137759573
H   H73       1.0  0.42269  0.37218  0.95858  1.0000 0.1294124192
H   H74       1.0  0.57731  0.87218  0.54142  1.0000 0.1294124192
H   H75       1.0  0.57731  0.62782  0.04142  1.0000 0.1294124192
H   H76       1.0  0.42269  0.12782  0.45858  1.0000 0.1294124192
H   H77       1.0  0.45731  0.60481  0.91812  1.0000 0.120459968
H   H78       1.0  0.54269  0.10481  0.58188  1.0000 0.120459968
H   H79       1.0  0.54269  0.39519  0.08188  1.0000 0.1294124192
H   H80       1.0  0.45731  0.89519  0.41812  1.0000 0.1294124192
C   C1        1.0  0.52950  0.99140  0.93130  1.0000 -0.0815879554
C   C2        1.0  0.47050  0.49140  0.56870  1.0000 -0.0815879554
C   C3        1.0  0.47050  0.00860  0.06870  1.0000 -0.0815879554
C   C4        1.0  0.52950  0.50860  0.43130  1.0000 -0.0815879554
C   C5        1.0  0.39410  0.96210  0.94350  1.0000 -0.1242946312
C   C6        1.0  0.60590  0.46210  0.55650  1.0000 -0.1242946312
C   C7        1.0  0.60590  0.03790  0.05650  1.0000 -0.1242946312
C   C8        1.0  0.39410  0.53790  0.44350  1.0000 -0.1242946312
C   C9        1.0  0.36350  0.97070  0.01230  1.0000 -0.0306794441
C   C10       1.0  0.63650  0.47070  0.48770  1.0000 -0.0306794441
C   C11       1.0  0.63650  0.02930  0.98770  1.0000 -0.0306794441
C   C12       1.0  0.36350  0.52930  0.51230  1.0000 -0.0306794441
C   C13       1.0  0.22120  0.94250  0.02880  1.0000 0.4557529874
C   C14       1.0  0.77880  0.44250  0.47120  1.0000 0.4557529874
C   C15       1.0  0.77880  0.05750  0.97120  1.0000 0.4557529874
C   C16       1.0  0.22120  0.55750  0.52880  1.0000 0.4557529874
C   C17       1.0  0.97950  0.87020  0.97650  1.0000 0.2211033441
C   C18       1.0  0.02050  0.37020  0.52350  1.0000 0.2211033441
C   C19       1.0  0.02050  0.12980  0.02350  1.0000 0.2211033441
C   C20       1.0  0.97950  0.62980  0.47650  1.0000 0.2211033441
C   C21       1.0  0.88270  0.84420  0.91030  1.0000 -0.2213979661
C   C22       1.0  0.11730  0.34420  0.58970  1.0000 -0.2213979661
C   C23       1.0  0.11730  0.15580  0.08970  1.0000 -0.2213979661
C   C24       1.0  0.88270  0.65580  0.41030  1.0000 -0.2213979661
C   C25       1.0  0.74110  0.80910  0.90640  1.0000 -0.0052622278
C   C26       1.0  0.25890  0.30910  0.59360  1.0000 -0.0052622278
C   C27       1.0  0.25890  0.19090  0.09360  1.0000 -0.0052622278
C   C28       1.0  0.74110  0.69090  0.40640  1.0000 -0.0052622278
C   C29       1.0  0.69550  0.80240  0.97140  1.0000 -0.1486669518
C   C30       1.0  0.30450  0.30240  0.52860  1.0000 -0.1486669518
C   C31       1.0  0.30450  0.19760  0.02860  1.0000 -0.1486669518
C   C32       1.0  0.69550  0.69760  0.47140  1.0000 -0.1486669518
C   C33       1.0  0.79040  0.82920  0.03830  1.0000 -0.0172087676
C   C34       1.0  0.20960  0.32920  0.46170  1.0000 -0.0172087676
C   C35       1.0  0.20960  0.17080  0.96170  1.0000 -0.0172087676
C   C36       1.0  0.79040  0.67080  0.53830  1.0000 -0.0172087676
C   C37       1.0  0.93150  0.86230  0.04120  1.0000 -0.1957176291
C   C38       1.0  0.06850  0.36230  0.45880  1.0000 -0.1957176291
C   C39       1.0  0.06850  0.13770  0.95880  1.0000 -0.1957176291
C   C40       1.0  0.93150  0.63770  0.54120  1.0000 -0.1957176291
C   C41       1.0  0.64100  0.77740  0.83440  1.0000 0.5410108454
C   C42       1.0  0.35900  0.27740  0.66560  1.0000 0.5410108454
C   C43       1.0  0.35900  0.22260  0.16560  1.0000 0.5410108454
C   C44       1.0  0.64100  0.72260  0.33440  1.0000 0.5410108454
C   C45       1.0  0.74200  0.82440  0.10940  1.0000 0.5536536463
C   C46       1.0  0.25800  0.32440  0.39060  1.0000 0.5536536463
C   C47       1.0  0.25800  0.17560  0.89060  1.0000 0.5536536463
C   C48       1.0  0.74200  0.67560  0.60940  1.0000 0.5536536463
C   C49       1.0  0.10880  0.05280  0.52930  1.0000 -0.1486669518
C   C50       1.0  0.89120  0.55280  0.97070  1.0000 -0.1486669518
C   C51       1.0  0.89120  0.94720  0.47070  1.0000 -0.1486669518
C   C52       1.0  0.10880  0.44720  0.02930  1.0000 -0.1486669518
C   C53       1.0  0.13830  0.97240  0.52900  1.0000 -0.167131763
C   C54       1.0  0.86170  0.47240  0.97100  1.0000 -0.167131763
C   C55       1.0  0.86170  0.02760  0.47100  1.0000 -0.167131763
C   C56       1.0  0.13830  0.52760  0.02900  1.0000 -0.167131763
C   C57       1.0  0.02930  0.91920  0.49750  1.0000 0.0938234981
C   C58       1.0  0.97070  0.41920  0.00250  1.0000 0.0938234981
C   C59       1.0  0.97070  0.08080  0.50250  1.0000 0.0938234981
C   C60       1.0  0.02930  0.58080  0.99750  1.0000 0.0938234981
C   C61       1.0  0.06110  0.83110  0.49650  1.0000 -0.1762922071
C   C62       1.0  0.93890  0.33110  0.00350  1.0000 -0.1762922071
C   C63       1.0  0.93890  0.16890  0.50350  1.0000 -0.1762922071
C   C64       1.0  0.06110  0.66890  0.99650  1.0000 -0.1762922071
C   C65       1.0  0.11660  0.80550  0.63280  1.0000 -0.0815879554
C   C66       1.0  0.88340  0.30550  0.86720  1.0000 -0.0815879554
C   C67       1.0  0.88340  0.19450  0.36720  1.0000 -0.0815879554
C   C68       1.0  0.11660  0.69450  0.13280  1.0000 -0.0815879554
C   C69       1.0  0.23750  0.77670  0.68600  1.0000 -0.0372073949
C   C70       1.0  0.76250  0.27670  0.81400  1.0000 -0.0372073949
C   C71       1.0  0.76250  0.22330  0.31400  1.0000 -0.0372073949
C   C72       1.0  0.23750  0.72330  0.18600  1.0000 -0.0372073949
C   C73       1.0  0.29340  0.77160  0.58180  1.0000 0.0779663138
C   C74       1.0  0.70660  0.27160  0.91820  1.0000 0.0779663138
C   C75       1.0  0.70660  0.22840  0.41820  1.0000 0.0779663138
C   C76       1.0  0.29340  0.72840  0.08180  1.0000 0.0779663138
C   C77       1.0  0.42040  0.57860  0.76410  1.0000 0.120459968
C   C78       1.0  0.57960  0.07860  0.73590  1.0000 0.120459968
C   C79       1.0  0.57960  0.42140  0.23590  1.0000 0.120459968
C   C80       1.0  0.42040  0.92140  0.26410  1.0000 0.120459968
C   C81       1.0  0.63430  0.53680  0.75480  1.0000 -0.0306794441
C   C82       1.0  0.36570  0.03680  0.74520  1.0000 -0.0306794441
C   C83       1.0  0.36570  0.46320  0.24520  1.0000 -0.0306794441
C   C84       1.0  0.63430  0.96320  0.25480  1.0000 -0.0306794441
C   C85       1.0  0.57490  0.48000  0.78830  1.0000 -0.1064469647
C   C86       1.0  0.42510  0.98000  0.71170  1.0000 -0.1064469647
C   C87       1.0  0.42510  0.52000  0.21170  1.0000 -0.1064469647
C   C88       1.0  0.57490  0.02000  0.28830  1.0000 -0.1064469647
C   C89       1.0  0.34790  0.47200  0.84110  1.0000 -0.1762922071
C   C90       1.0  0.65210  0.97200  0.65890  1.0000 -0.1762922071
C   C91       1.0  0.65210  0.52800  0.15890  1.0000 -0.1762922071
C   C92       1.0  0.34790  0.02800  0.34110  1.0000 -0.1762922071
C   C93       1.0  0.42580  0.48590  0.92430  1.0000 0.0938234981
C   C94       1.0  0.57420  0.98590  0.57570  1.0000 0.0938234981
C   C95       1.0  0.57420  0.51410  0.07570  1.0000 0.0938234981
C   C96       1.0  0.42580  0.01410  0.42430  1.0000 0.0938234981
C   C97       1.0  0.45310  0.42350  0.97460  1.0000 -0.1616323367
C   C98       1.0  0.54690  0.92350  0.52540  1.0000 -0.1616323367
C   C99       1.0  0.54690  0.57650  0.02540  1.0000 -0.1616323367
C   C100      1.0  0.45310  0.07650  0.47460  1.0000 -0.1616323367
C   C101      1.0  0.47430  0.56240  0.95110  1.0000 -0.1616323367
C   C102      1.0  0.52570  0.06240  0.54890  1.0000 -0.1616323367
C   C103      1.0  0.52570  0.43760  0.04890  1.0000 -0.1616323367
C   C104      1.0  0.47430  0.93760  0.45110  1.0000 -0.1616323367
N   N1        1.0  0.35060  0.75650  0.65420  1.0000 -0.3064986505
N   N2        1.0  0.64940  0.25650  0.84580  1.0000 -0.3064986505
N   N3        1.0  0.64940  0.24350  0.34580  1.0000 -0.3064986505
N   N4        1.0  0.35060  0.74350  0.15420  1.0000 -0.3064986505
N   N5        1.0  0.15320  0.80220  0.56880  1.0000 0.0456619821
N   N6        1.0  0.84680  0.30220  0.93120  1.0000 0.0456619821
N   N7        1.0  0.84680  0.19780  0.43120  1.0000 0.0456619821
N   N8        1.0  0.15320  0.69780  0.06880  1.0000 0.0456619821
N   N9        1.0  0.53370  0.59950  0.73910  1.0000 -0.2951612212
N   N10       1.0  0.46630  0.09950  0.76090  1.0000 -0.2951612212
N   N11       1.0  0.46630  0.40050  0.26090  1.0000 -0.2951612212
N   N12       1.0  0.53370  0.90050  0.23910  1.0000 -0.2951612212
N   N13       1.0  0.43940  0.50700  0.79580  1.0000 0.0456619821
N   N14       1.0  0.56060  0.00700  0.70420  1.0000 0.0456619821
N   N15       1.0  0.56060  0.49300  0.20420  1.0000 0.0456619821
N   N16       1.0  0.43940  0.99300  0.29580  1.0000 0.0456619821
N   N17       1.0  0.12250  0.90190  0.97600  1.0000 -0.3560430818
N   N18       1.0  0.87750  0.40190  0.52400  1.0000 -0.3560430818
N   N19       1.0  0.87750  0.09810  0.02400  1.0000 -0.3560430818
N   N20       1.0  0.12250  0.59810  0.47600  1.0000 -0.3560430818
O   O1        1.0  0.69970  0.77300  0.77920  1.0000 -0.5608503335
O   O2        1.0  0.30030  0.27300  0.72080  1.0000 -0.5608503335
O   O3        1.0  0.30030  0.22700  0.22080  1.0000 -0.5608503335
O   O4        1.0  0.69970  0.72700  0.27920  1.0000 -0.5608503335
O   O5        1.0  0.51080  0.75460  0.83010  1.0000 -0.5608503335
O   O6        1.0  0.48920  0.25460  0.66990  1.0000 -0.5608503335
O   O7        1.0  0.48920  0.24540  0.16990  1.0000 -0.5608503335
O   O8        1.0  0.51080  0.74540  0.33010  1.0000 -0.5608503335
O   O9        1.0  0.62060  0.78450  0.10680  1.0000 -0.5819612854
O   O10       1.0  0.37940  0.28450  0.39320  1.0000 -0.5819612854
O   O11       1.0  0.37940  0.21550  0.89320  1.0000 -0.5819612854
O   O12       1.0  0.62060  0.71550  0.60680  1.0000 -0.5819612854
O   O13       1.0  0.81975  0.85820  0.16655  1.0000 -0.5608503335
O   O14       1.0  0.18025  0.35820  0.33345  1.0000 -0.5608503335
O   O15       1.0  0.18025  0.14180  0.83345  1.0000 -0.5608503335
O   O16       1.0  0.81975  0.64180  0.66655  1.0000 -0.5608503335
O   O17       1.0  0.19980  0.95690  0.08890  1.0000 -0.4563256614
O   O18       1.0  0.80020  0.45690  0.41110  1.0000 -0.4563256614
O   O19       1.0  0.80020  0.04310  0.91110  1.0000 -0.4563256614
O   O20       1.0  0.19980  0.54310  0.58890  1.0000 -0.4563256614
