# DDEC6 charges by PACMAN v1.1 (https://github.com/mtap-research/PACMAN-charge/)
data_2023[Zn][nan]2[FSR]2
_chemical_formula_sum              "Zn4 H28 C46 N2 O22"
_cell_length_a       9.1799
_cell_length_b       11.1764
_cell_length_c       15.5505
_cell_angle_alpha    103.004
_cell_angle_beta     105.815
_cell_angle_gamma    109.788

_symmetry_space_group_name_H-M    "P 1"
_symmetry_Int_Tables_number       1

loop_
  _symmetry_equiv_pos_as_xyz
  'x, y, z'

loop_
  _atom_site_type_symbol
  _atom_site_label
  _atom_site_symmetry_multiplicity
  _atom_site_fract_x
  _atom_site_fract_y
  _atom_site_fract_z
  _atom_site_occupancy
  _atom_site_charge
Zn  Zn1       1.0  0.61335  0.93733  0.15941  1.0000 0.9606818888
Zn  Zn2       1.0  0.38665  0.06267  0.84059  1.0000 0.9606818888
Zn  Zn3       1.0  0.44243  0.76714  0.82004  1.0000 0.9547704193
Zn  Zn4       1.0  0.55757  0.23286  0.17996  1.0000 0.9547704193
H   H1        1.0  0.51629  0.72227  0.20340  1.0000 0.3413488749
H   H2        1.0  0.48371  0.27773  0.79660  1.0000 0.3413488749
H   H3        1.0  0.01700  0.92635  0.09977  1.0000 0.1317114962
H   H4        1.0  0.98300  0.07365  0.90023  1.0000 0.1317114962
H   H5        1.0  0.33599  0.49302  0.89858  1.0000 0.1317114962
H   H6        1.0  0.66401  0.50698  0.10142  1.0000 0.1317114962
H   H7        1.0  0.88063  0.63364  0.79996  1.0000 0.1195995177
H   H8        1.0  0.11937  0.36636  0.20004  1.0000 0.1195995177
H   H9        1.0  0.27174  0.58201  0.02345  1.0000 0.1477431688
H   H10       1.0  0.72826  0.41799  0.97655  1.0000 0.1477431688
H   H11       1.0  0.78840  0.33857  0.86805  1.0000 0.1317114962
H   H12       1.0  0.21160  0.66143  0.13195  1.0000 0.1317114962
H   H13       1.0  0.86072  0.25703  0.74481  1.0000 0.1195995177
H   H14       1.0  0.13928  0.74297  0.25519  1.0000 0.1195995177
H   H15       1.0  0.85248  0.40080  0.49157  1.0000 0.1317114962
H   H16       1.0  0.14752  0.59920  0.50843  1.0000 0.1317114962
H   H17       1.0  0.98438  0.07934  0.59205  1.0000 0.1317114962
H   H18       1.0  0.01562  0.92066  0.40795  1.0000 0.1317114962
H   H19       1.0  0.02854  0.46002  0.64765  1.0000 0.1443016264
H   H20       1.0  0.97146  0.53998  0.35235  1.0000 0.1443016264
H   H21       1.0  0.16658  0.23221  0.73919  1.0000 0.1317114962
H   H22       1.0  0.83342  0.76779  0.26081  1.0000 0.1317114962
H   H23       1.0  0.26096  0.37932  0.74119  1.0000 0.1477431688
H   H24       1.0  0.73904  0.62068  0.25881  1.0000 0.1477431688
H   H25       1.0  0.82588  0.02584  0.43417  1.0000 0.1195995177
H   H26       1.0  0.17412  0.97416  0.56583  1.0000 0.1195995177
H   H27       1.0  0.51900  0.81800  0.27600  1.0000 0.3216757509
H   H28       1.0  0.48100  0.18200  0.72400  1.0000 0.3216757509
C   C1        1.0  0.69230  0.79120  0.02250  1.0000 0.5756466124
C   C2        1.0  0.30770  0.20880  0.97750  1.0000 0.5756466124
C   C3        1.0  0.29330  0.94540  0.07790  1.0000 0.6224791738
C   C4        1.0  0.70670  0.05460  0.92210  1.0000 0.6224791738
C   C5        1.0  0.11570  0.86640  0.00850  1.0000 -0.0286058428
C   C6        1.0  0.88430  0.13360  0.99150  1.0000 -0.0286058428
C   C7        1.0  0.07560  0.78030  0.91600  1.0000 -0.0721506816
C   C8        1.0  0.92440  0.21970  0.08400  1.0000 -0.0721506816
C   C9        1.0  0.60460  0.58320  0.82930  1.0000 0.5715169046
C   C10       1.0  0.39540  0.41680  0.17070  1.0000 0.5715169046
C   C11       1.0  0.20390  0.78730  0.87860  1.0000 0.5715169046
C   C12       1.0  0.79610  0.21270  0.12140  1.0000 0.5715169046
C   C13       1.0  0.82100  0.78100  0.98340  1.0000 -0.0504557681
C   C14       1.0  0.17900  0.21900  0.01660  1.0000 -0.0504557681
C   C15       1.0  0.98960  0.86690  0.03940  1.0000 -0.1279989485
C   C16       1.0  0.01040  0.13310  0.96060  1.0000 -0.1279989485
C   C17       1.0  0.78120  0.69150  0.89330  1.0000 -0.0286058428
C   C18       1.0  0.21880  0.30850  0.10670  1.0000 -0.0286058428
C   C19       1.0  0.02310  0.47190  0.96040  1.0000 0.1195995177
C   C20       1.0  0.97690  0.52810  0.03960  1.0000 0.1195995177
C   C21       1.0  0.73070  0.17240  0.34150  1.0000 0.5960385534
C   C22       1.0  0.26930  0.82760  0.65850  1.0000 0.5960385534
C   C23       1.0  0.22490  0.46300  0.89280  1.0000 0.0794044691
C   C24       1.0  0.77510  0.53700  0.10720  1.0000 0.0794044691
C   C25       1.0  0.90810  0.69280  0.86050  1.0000 -0.1279989485
C   C26       1.0  0.09190  0.30720  0.13950  1.0000 -0.1279989485
C   C27       1.0  0.18650  0.51580  0.96750  1.0000 -0.1440645721
C   C28       1.0  0.81350  0.48420  0.03250  1.0000 -0.1440645721
C   C29       1.0  0.82580  0.20840  0.44590  1.0000 -0.0286058428
C   C30       1.0  0.17420  0.79160  0.55410  1.0000 -0.0286058428
C   C31       1.0  0.02920  0.27700  0.63480  1.0000 0.11068901
C   C32       1.0  0.97080  0.72300  0.36520  1.0000 0.11068901
C   C33       1.0  0.90010  0.37190  0.87510  1.0000 -0.1769303199
C   C34       1.0  0.09990  0.62810  0.12490  1.0000 -0.1769303199
C   C35       1.0  0.94340  0.32280  0.80190  1.0000 0.032183941
C   C36       1.0  0.05660  0.67720  0.19810  1.0000 0.032183941
C   C37       1.0  0.88350  0.33710  0.51090  1.0000 -0.0897869882
C   C38       1.0  0.11650  0.66290  0.48910  1.0000 -0.0897869882
C   C39       1.0  0.96310  0.14580  0.57130  1.0000 -0.1550494102
C   C40       1.0  0.03690  0.85420  0.42870  1.0000 -0.1550494102
C   C41       1.0  0.98730  0.37230  0.60490  1.0000 -0.148633298
C   C42       1.0  0.01270  0.62770  0.39510  1.0000 -0.148633298
C   C43       1.0  0.15330  0.31290  0.73340  1.0000 -0.1910626334
C   C44       1.0  0.84670  0.68710  0.26660  1.0000 -0.1910626334
C   C45       1.0  0.86540  0.11320  0.47710  1.0000 -0.0950250891
C   C46       1.0  0.13460  0.88680  0.52290  1.0000 -0.0950250891
N   N1        1.0  0.10380  0.36860  0.81180  1.0000 0.1195995177
N   N2        1.0  0.89620  0.63140  0.18820  1.0000 0.1195995177
O   O1        1.0  0.37611  0.87751  0.08951  1.0000 -0.5566839841
O   O2        1.0  0.62389  0.12249  0.91049  1.0000 -0.5566839841
O   O3        1.0  0.50032  0.61422  0.77892  1.0000 -0.539570227
O   O4        1.0  0.49968  0.38578  0.22108  1.0000 -0.539570227
O   O5        1.0  0.74657  0.85907  0.11057  1.0000 -0.567977455
O   O6        1.0  0.25343  0.14093  0.88943  1.0000 -0.567977455
O   O7        1.0  0.34010  0.06870  0.12280  1.0000 -0.5480791834
O   O8        1.0  0.65990  0.93130  0.87720  1.0000 -0.539570227
O   O9        1.0  0.65219  0.23789  0.31629  1.0000 -0.5132712391
O   O10       1.0  0.34781  0.76211  0.68371  1.0000 -0.5132712391
O   O11       1.0  0.20060  0.68000  0.82390  1.0000 -0.5480791834
O   O12       1.0  0.79940  0.32000  0.17610  1.0000 -0.5480791834
O   O13       1.0  0.54150  0.73720  0.96880  1.0000 -0.539570227
O   O14       1.0  0.45850  0.26280  0.03120  1.0000 -0.539570227
O   O15       1.0  0.32890  0.89840  0.90050  1.0000 -0.5480791834
O   O16       1.0  0.67110  0.10160  0.09950  1.0000 -0.5480791834
O   O17       1.0  0.55890  0.80680  0.24000  1.0000 -0.6100590792
O   O18       1.0  0.44110  0.19320  0.76000  1.0000 -0.6100590792
O   O19       1.0  0.74280  0.07670  0.28730  1.0000 -0.5772335794
O   O20       1.0  0.25720  0.92330  0.71270  1.0000 -0.5772335794
O   O21       1.0  0.57770  0.46740  0.82800  1.0000 -0.5566839841
O   O22       1.0  0.42230  0.53260  0.17200  1.0000 -0.5566839841
