# DDEC6 charges by PACMAN v1.1 (https://github.com/mtap-research/PACMAN-charge/)
data_2023[Zn][sql]2[FSR]15
_chemical_formula_sum              "Zn2 H36 C60 N8 O8"
_cell_length_a       6.8149
_cell_length_b       12.725
_cell_length_c       16.869
_cell_angle_alpha    107.643
_cell_angle_beta     97.621
_cell_angle_gamma    90.695

_symmetry_space_group_name_H-M    "P 1"
_symmetry_Int_Tables_number       1

loop_
  _symmetry_equiv_pos_as_xyz
  'x, y, z'

loop_
  _atom_site_type_symbol
  _atom_site_label
  _atom_site_symmetry_multiplicity
  _atom_site_fract_x
  _atom_site_fract_y
  _atom_site_fract_z
  _atom_site_occupancy
  _atom_site_charge
Zn  Zn1       1.0  0.20248  0.01310  0.19707  1.0000 0.7493382451
Zn  Zn2       1.0  0.79752  0.98690  0.80293  1.0000 0.7493382451
H   H1        1.0  0.24561  0.86133  0.95502  1.0000 0.1186710951
H   H2        1.0  0.75439  0.13867  0.04498  1.0000 0.1186710951
H   H3        1.0  0.62992  0.95718  0.20120  1.0000 0.1006985761
H   H4        1.0  0.37008  0.04282  0.79880  1.0000 0.1006985761
H   H5        1.0  0.82336  0.82372  0.23239  1.0000 0.1390600584
H   H6        1.0  0.17664  0.17628  0.76761  1.0000 0.1390600584
H   H7        1.0  0.34230  0.03164  0.51240  1.0000 0.1186710951
H   H8        1.0  0.65770  0.96836  0.48760  1.0000 0.1186710951
H   H9        1.0  0.55633  0.82636  0.01534  1.0000 0.1131211837
H   H10       1.0  0.44367  0.17364  0.98466  1.0000 0.1131211837
H   H11       1.0  0.21397  0.20316  0.13168  1.0000 0.1186710951
H   H12       1.0  0.78603  0.79684  0.86832  1.0000 0.1186710951
H   H13       1.0  0.98072  0.41863  0.32041  1.0000 0.1298278602
H   H14       1.0  0.01928  0.58137  0.67959  1.0000 0.1298278602
H   H15       1.0  0.20283  0.01237  0.62605  1.0000 0.1186710951
H   H16       1.0  0.79717  0.98763  0.37395  1.0000 0.1186710951
H   H17       1.0  0.39562  0.36515  0.15119  1.0000 0.1390600584
H   H18       1.0  0.60438  0.63485  0.84881  1.0000 0.1390600584
H   H19       1.0  0.14419  0.77082  0.16754  1.0000 0.1186710951
H   H20       1.0  0.85581  0.22918  0.83246  1.0000 0.1186710951
H   H21       1.0  0.59026  0.12972  0.30274  1.0000 0.1186710951
H   H22       1.0  0.40974  0.87028  0.69726  1.0000 0.1186710951
H   H23       1.0  0.78735  0.28557  0.32239  1.0000 0.1390600584
H   H24       1.0  0.21265  0.71443  0.67761  1.0000 0.1390600584
H   H25       1.0  0.31012  0.45907  0.33996  1.0000 0.1131211837
H   H26       1.0  0.68988  0.54093  0.66004  1.0000 0.1131211837
H   H27       1.0  0.95259  0.73321  0.31429  1.0000 0.1186710951
H   H28       1.0  0.04741  0.26679  0.68571  1.0000 0.1186710951
H   H29       1.0  0.61459  0.50342  0.42490  1.0000 0.1186710951
H   H30       1.0  0.38541  0.49658  0.57510  1.0000 0.1186710951
H   H31       1.0  0.32279  0.63180  0.19880  1.0000 0.1298278602
H   H32       1.0  0.67721  0.36820  0.80120  1.0000 0.1298278602
H   H33       1.0  0.14539  0.77055  0.44110  1.0000 0.1186710951
H   H34       1.0  0.85461  0.22945  0.55890  1.0000 0.1186710951
H   H35       1.0  0.45338  0.81645  0.52518  1.0000 0.1298278602
H   H36       1.0  0.54662  0.18355  0.47482  1.0000 0.1298278602
C   C1        1.0  0.08500  0.01040  0.43120  1.0000 -0.0260712075
C   C2        1.0  0.91500  0.98960  0.56880  1.0000 -0.0260712075
C   C3        1.0  0.68510  0.97960  0.03631  1.0000 -0.0237474906
C   C4        1.0  0.31490  0.02040  0.96369  1.0000 -0.0237474906
C   C5        1.0  0.88070  0.95710  0.07940  1.0000 0.5519366023
C   C6        1.0  0.11930  0.04290  0.92060  1.0000 0.5519366023
C   C7        1.0  0.34890  0.91780  0.97320  1.0000 -0.1108686992
C   C8        1.0  0.65110  0.08220  0.02680  1.0000 -0.1108686992
C   C9        1.0  0.56650  0.89070  0.20210  1.0000 0.0927390885
C   C10       1.0  0.43350  0.10930  0.79790  1.0000 0.0927390885
C   C11       1.0  0.68330  0.81150  0.22080  1.0000 -0.1692082713
C   C12       1.0  0.31670  0.18850  0.77920  1.0000 -0.1692082713
C   C13       1.0  0.61310  0.34480  0.23960  1.0000 0.1006985761
C   C14       1.0  0.38690  0.65520  0.76040  1.0000 0.1006985761
C   C15       1.0  0.20300  0.01850  0.50720  1.0000 -0.1108686992
C   C16       1.0  0.79700  0.98150  0.49280  1.0000 -0.1108686992
C   C17       1.0  0.71220  0.63050  0.25040  1.0000 0.2092294601
C   C18       1.0  0.28780  0.36950  0.74960  1.0000 0.2092294601
C   C19       1.0  0.19720  0.61070  0.38080  1.0000 0.0832784829
C   C20       1.0  0.80280  0.38930  0.61920  1.0000 0.0832784829
C   C21       1.0  0.59510  0.71410  0.22260  1.0000 0.1006985761
C   C22       1.0  0.40490  0.28590  0.77740  1.0000 0.1006985761
C   C23       1.0  0.53340  0.89710  0.00920  1.0000 -0.1182440295
C   C24       1.0  0.46660  0.10290  0.99080  1.0000 -0.1182440295
C   C25       1.0  0.33050  0.22110  0.17190  1.0000 0.0927390885
C   C26       1.0  0.66950  0.77890  0.82810  1.0000 0.0927390885
C   C27       1.0  0.17720  0.01950  0.35770  1.0000 0.5550917146
C   C28       1.0  0.82280  0.98050  0.64230  1.0000 0.5550917146
C   C29       1.0  0.91320  0.47520  0.30390  1.0000 -0.227310848
C   C30       1.0  0.08680  0.52480  0.69610  1.0000 -0.227310848
C   C31       1.0  0.72500  0.45250  0.25690  1.0000 0.200266814
C   C32       1.0  0.27500  0.54750  0.74310  1.0000 0.200266814
C   C33       1.0  0.12000  0.00760  0.57500  1.0000 -0.1182440295
C   C34       1.0  0.88000  0.99240  0.42500  1.0000 -0.1182440295
C   C35       1.0  0.43940  0.31730  0.18280  1.0000 -0.1805094275
C   C36       1.0  0.56060  0.68270  0.81720  1.0000 -0.1805094275
C   C37       1.0  0.00150  0.58110  0.32670  1.0000 0.1186710951
C   C38       1.0  0.99850  0.41890  0.67330  1.0000 0.1186710951
C   C39       1.0  0.28390  0.78230  0.18270  1.0000 0.0832784829
C   C40       1.0  0.71610  0.21770  0.81730  1.0000 0.0832784829
C   C41       1.0  0.55090  0.17810  0.27100  1.0000 0.0832784829
C   C42       1.0  0.44910  0.82190  0.72900  1.0000 0.0832784829
C   C43       1.0  0.66830  0.27130  0.28360  1.0000 -0.1805094275
C   C44       1.0  0.33170  0.72870  0.71640  1.0000 -0.1805094275
C   C45       1.0  0.33890  0.53170  0.37750  1.0000 -0.1449537518
C   C46       1.0  0.66110  0.46830  0.62250  1.0000 -0.1449537518
C   C47       1.0  0.56170  0.66400  0.48330  1.0000 0.0484195036
C   C48       1.0  0.43830  0.33600  0.51670  1.0000 0.0484195036
C   C49       1.0  0.89770  0.65970  0.29950  1.0000 -0.224392997
C   C50       1.0  0.10230  0.34030  0.70050  1.0000 -0.224392997
C   C51       1.0  0.51910  0.55780  0.42790  1.0000 -0.1312252375
C   C52       1.0  0.48090  0.44220  0.57210  1.0000 -0.1312252375
C   C53       1.0  0.38920  0.69890  0.20090  1.0000 -0.1692082713
C   C54       1.0  0.61080  0.30110  0.79910  1.0000 -0.1692082713
C   C55       1.0  0.24160  0.71650  0.43730  1.0000 -0.1312252375
C   C56       1.0  0.75840  0.28350  0.56270  1.0000 -0.1312252375
C   C57       1.0  0.42350  0.74380  0.48780  1.0000 -0.1108686992
C   C58       1.0  0.57650  0.25620  0.51220  1.0000 -0.1108686992
C   C59       1.0  0.75120  0.68780  0.53720  1.0000 0.2643541453
C   C60       1.0  0.24880  0.31220  0.46280  1.0000 0.2643541453
N   N1        1.0  0.36950  0.87930  0.18528  1.0000 -0.227310848
N   N2        1.0  0.63050  0.12070  0.81472  1.0000 -0.227310848
N   N3        1.0  0.38260  0.15150  0.21602  1.0000 -0.227310848
N   N4        1.0  0.61740  0.84850  0.78398  1.0000 -0.227310848
N   N5        1.0  0.62580  0.52860  0.22962  1.0000 -0.3399366978
N   N6        1.0  0.37420  0.47140  0.77038  1.0000 -0.3399366978
N   N7        1.0  0.89740  0.70480  0.58020  1.0000 -0.3577650133
N   N8        1.0  0.10260  0.29520  0.41980  1.0000 -0.3577650133
O   O1        1.0  0.00190  0.04160  0.11428  1.0000 -0.5499266031
O   O2        1.0  0.99810  0.95840  0.88572  1.0000 -0.5499266031
O   O3        1.0  0.35850  0.03680  0.36510  1.0000 -0.5561033728
O   O4        1.0  0.64150  0.96320  0.63490  1.0000 -0.5561033728
O   O5        1.0  0.05840  0.00660  0.28901  1.0000 -0.5499266031
O   O6        1.0  0.94160  0.99340  0.71099  1.0000 -0.5499266031
O   O7        1.0  0.91540  0.86330  0.08241  1.0000 -0.5499266031
O   O8        1.0  0.08460  0.13670  0.91759  1.0000 -0.5499266031
