# DDEC6 charges by PACMAN v1.1 (https://github.com/mtap-research/PACMAN-charge/)
data_2023[Tb][bey]2[FSR]2
_chemical_formula_sum              "Tb4 H100 C128 O40"
_cell_length_a       9.6298
_cell_length_b       11.6484
_cell_length_c       35.049
_cell_angle_alpha    91.288
_cell_angle_beta     94.152
_cell_angle_gamma    93.793

_symmetry_space_group_name_H-M    "P 1"
_symmetry_Int_Tables_number       1

loop_
  _symmetry_equiv_pos_as_xyz
  'x, y, z'

loop_
  _atom_site_type_symbol
  _atom_site_label
  _atom_site_symmetry_multiplicity
  _atom_site_fract_x
  _atom_site_fract_y
  _atom_site_fract_z
  _atom_site_occupancy
  _atom_site_charge
Tb  Tb1       1.0  0.97369  0.51841  0.73859  1.0000 2.0688476235
Tb  Tb2       1.0  0.47489  0.48304  0.75471  1.0000 2.064368851
Tb  Tb3       1.0  0.02631  0.48159  0.26141  1.0000 2.0688476235
Tb  Tb4       1.0  0.52511  0.51696  0.24529  1.0000 2.0688476235
H   H1        1.0  0.75411  0.65555  0.70962  1.0000 0.3734086226
H   H2        1.0  0.82661  0.63376  0.67811  1.0000 0.3399489891
H   H3        1.0  0.17501  0.56910  0.67951  1.0000 0.3734086226
H   H4        1.0  0.04837  0.55313  0.65861  1.0000 0.3399489891
H   H5        1.0  0.39808  0.43707  0.82952  1.0000 0.3527039285
H   H6        1.0  0.27264  0.44220  0.80836  1.0000 0.3734086226
H   H7        1.0  0.57315  0.26447  0.77297  1.0000 0.3595166425
H   H8        1.0  0.68902  0.34011  0.78059  1.0000 0.3734086226
H   H9        1.0  0.77492  0.71196  0.01758  1.0000 0.3527039285
H   H10       1.0  0.80221  0.30744  0.47733  1.0000 0.3595166425
H   H11       1.0  0.15264  0.90464  0.76715  1.0000 0.119954408
H   H12       1.0  0.22617  0.07216  0.80228  1.0000 0.119954408
H   H13       1.0  0.50805  0.89765  0.86484  1.0000 0.1120201072
H   H14       1.0  0.43992  0.73139  0.82835  1.0000 0.119954408
H   H15       1.0  0.39548  0.17918  0.84664  1.0000 0.119954408
H   H16       1.0  0.48499  0.20534  0.90434  1.0000 0.119954408
H   H17       1.0  0.69294  0.11278  0.94100  1.0000 0.119954408
H   H18       1.0  0.75902  0.97187  0.98356  1.0000 0.1120201072
H   H19       1.0  0.37548  0.80735  0.96442  1.0000 0.119954408
H   H20       1.0  0.31273  0.94484  0.92073  1.0000 0.119954408
H   H21       1.0  0.33029  0.10560  0.72155  1.0000 0.119954408
H   H22       1.0  0.25624  0.93016  0.69083  1.0000 0.119954408
H   H23       1.0  0.91094  0.07106  0.64458  1.0000 0.1120201072
H   H24       1.0  0.97743  0.24302  0.67868  1.0000 0.119954408
H   H25       1.0  0.04492  0.80476  0.65679  1.0000 0.119954408
H   H26       1.0  0.96969  0.78336  0.59629  1.0000 0.119954408
H   H27       1.0  0.17854  0.03121  0.58929  1.0000 0.1120201072
H   H28       1.0  0.15473  0.17936  0.54663  1.0000 0.119954408
H   H29       1.0  0.76306  0.05180  0.51337  1.0000 0.1120201072
H   H30       1.0  0.79062  0.89832  0.55403  1.0000 0.119954408
H   H31       1.0  0.81209  0.33814  0.62283  1.0000 0.119954408
H   H32       1.0  0.72406  0.21592  0.57156  1.0000 0.1120201072
H   H33       1.0  0.39908  0.11020  0.63225  1.0000 0.1120201072
H   H34       1.0  0.47821  0.24189  0.68165  1.0000 0.119954408
H   H35       1.0  0.50027  0.09760  0.54033  1.0000 0.119954408
H   H36       1.0  0.42327  0.91994  0.54429  1.0000 0.119954408
H   H37       1.0  0.63484  0.95776  0.63251  1.0000 0.1120201072
H   H38       1.0  0.63344  0.83112  0.68299  1.0000 0.119954408
H   H39       1.0  0.29097  0.65569  0.63165  1.0000 0.1120201072
H   H40       1.0  0.29181  0.78218  0.58153  1.0000 0.1120201072
H   H41       1.0  0.97961  0.75082  0.81024  1.0000 0.119954408
H   H42       1.0  0.06395  0.88518  0.85811  1.0000 0.1120201072
H   H43       1.0  0.73945  0.79059  0.92050  1.0000 0.1120201072
H   H44       1.0  0.64711  0.66504  0.87109  1.0000 0.119954408
H   H45       1.0  0.97576  0.89948  0.95051  1.0000 0.119954408
H   H46       1.0  0.05715  0.07599  0.94713  1.0000 0.1120201072
H   H47       1.0  0.17459  0.22254  0.91033  1.0000 0.1120201072
H   H48       1.0  0.16298  0.35517  0.86180  1.0000 0.1120201072
H   H49       1.0  0.81331  0.18073  0.81401  1.0000 0.119954408
H   H50       1.0  0.82527  0.04800  0.86267  1.0000 0.1120201072
H   H51       1.0  0.24589  0.34445  0.29038  1.0000 0.3734086226
H   H52       1.0  0.17339  0.36624  0.32189  1.0000 0.3399489891
H   H53       1.0  0.82499  0.43090  0.32049  1.0000 0.3734086226
H   H54       1.0  0.95163  0.44687  0.34139  1.0000 0.3399489891
H   H55       1.0  0.60192  0.56293  0.17048  1.0000 0.3527039285
H   H56       1.0  0.72736  0.55780  0.19164  1.0000 0.3734086226
H   H57       1.0  0.42685  0.73553  0.22703  1.0000 0.3595166425
H   H58       1.0  0.31098  0.65989  0.21941  1.0000 0.3734086226
H   H59       1.0  0.22508  0.28804  0.98242  1.0000 0.3527039285
H   H60       1.0  0.19779  0.69256  0.52267  1.0000 0.3595166425
H   H61       1.0  0.84736  0.09536  0.23285  1.0000 0.119954408
H   H62       1.0  0.77383  0.92784  0.19772  1.0000 0.119954408
H   H63       1.0  0.49195  0.10235  0.13516  1.0000 0.1120201072
H   H64       1.0  0.56008  0.26861  0.17165  1.0000 0.119954408
H   H65       1.0  0.60452  0.82082  0.15336  1.0000 0.119954408
H   H66       1.0  0.51501  0.79466  0.09566  1.0000 0.119954408
H   H67       1.0  0.30706  0.88722  0.05900  1.0000 0.119954408
H   H68       1.0  0.24098  0.02813  0.01644  1.0000 0.1120201072
H   H69       1.0  0.62452  0.19265  0.03558  1.0000 0.119954408
H   H70       1.0  0.68727  0.05516  0.07927  1.0000 0.119954408
H   H71       1.0  0.66971  0.89440  0.27845  1.0000 0.119954408
H   H72       1.0  0.74376  0.06984  0.30917  1.0000 0.119954408
H   H73       1.0  0.08906  0.92894  0.35542  1.0000 0.1120201072
H   H74       1.0  0.02257  0.75698  0.32132  1.0000 0.119954408
H   H75       1.0  0.95508  0.19524  0.34321  1.0000 0.119954408
H   H76       1.0  0.03031  0.21664  0.40371  1.0000 0.119954408
H   H77       1.0  0.82146  0.96879  0.41071  1.0000 0.1120201072
H   H78       1.0  0.84527  0.82064  0.45337  1.0000 0.119954408
H   H79       1.0  0.23694  0.94820  0.48663  1.0000 0.1120201072
H   H80       1.0  0.20938  0.10168  0.44597  1.0000 0.119954408
H   H81       1.0  0.18791  0.66186  0.37717  1.0000 0.119954408
H   H82       1.0  0.27594  0.78408  0.42844  1.0000 0.1120201072
H   H83       1.0  0.60092  0.88980  0.36775  1.0000 0.1120201072
H   H84       1.0  0.52179  0.75811  0.31835  1.0000 0.119954408
H   H85       1.0  0.49973  0.90240  0.45967  1.0000 0.119954408
H   H86       1.0  0.57673  0.08006  0.45571  1.0000 0.119954408
H   H87       1.0  0.36516  0.04224  0.36749  1.0000 0.1120201072
H   H88       1.0  0.36656  0.16888  0.31701  1.0000 0.119954408
H   H89       1.0  0.70903  0.34431  0.36835  1.0000 0.1120201072
H   H90       1.0  0.70819  0.21782  0.41847  1.0000 0.1120201072
H   H91       1.0  0.02039  0.24918  0.18976  1.0000 0.119954408
H   H92       1.0  0.93605  0.11482  0.14189  1.0000 0.1120201072
H   H93       1.0  0.26055  0.20941  0.07950  1.0000 0.1120201072
H   H94       1.0  0.35289  0.33496  0.12891  1.0000 0.119954408
H   H95       1.0  0.02424  0.10052  0.04949  1.0000 0.119954408
H   H96       1.0  0.94285  0.92401  0.05287  1.0000 0.1120201072
H   H97       1.0  0.82541  0.77746  0.08967  1.0000 0.1120201072
H   H98       1.0  0.83702  0.64483  0.13820  1.0000 0.1120201072
H   H99       1.0  0.18669  0.81927  0.18599  1.0000 0.119954408
H   H100      1.0  0.17473  0.95200  0.13733  1.0000 0.1120201072
C   C1        1.0  0.23760  0.69194  0.77255  1.0000 0.6515802215
C   C2        1.0  0.28640  0.80061  0.79474  1.0000 -0.0361979012
C   C3        1.0  0.22480  0.90288  0.78707  1.0000 -0.099858517
C   C4        1.0  0.26780  0.00246  0.80829  1.0000 -0.1581416209
C   C5        1.0  0.37130  0.00203  0.83835  1.0000 0.119954408
C   C6        1.0  0.43530  0.89940  0.84511  1.0000 -0.141222616
C   C7        1.0  0.39430  0.80004  0.82352  1.0000 -0.0922151564
C   C8        1.0  0.41100  0.11100  0.86022  1.0000 -0.141222616
C   C9        1.0  0.46520  0.12740  0.89606  1.0000 -0.141222616
C   C10       1.0  0.49900  0.03980  0.92489  1.0000 0.119954408
C   C11       1.0  0.62960  0.04890  0.94495  1.0000 -0.141222616
C   C12       1.0  0.66850  0.96580  0.97064  1.0000 -0.1068660348
C   C13       1.0  0.57490  0.87360  0.97748  1.0000 -0.0488358303
C   C14       1.0  0.44140  0.86810  0.95906  1.0000 -0.099858517
C   C15       1.0  0.40410  0.94990  0.93312  1.0000 -0.1473989603
C   C16       1.0  0.61830  0.77700  0.00227  1.0000 0.5425247621
C   C17       1.0  0.21250  0.30672  0.72132  1.0000 0.6515802215
C   C18       1.0  0.16220  0.19219  0.70256  1.0000 -0.0361979012
C   C19       1.0  0.24460  0.09845  0.70617  1.0000 -0.1068660348
C   C20       1.0  0.20160  0.99458  0.68728  1.0000 -0.1581416209
C   C21       1.0  0.07930  0.98346  0.66320  1.0000 0.119954408
C   C22       1.0  0.99580  0.07762  0.66031  1.0000 -0.141222616
C   C23       1.0  0.03610  0.18059  0.68027  1.0000 -0.0922151564
C   C24       1.0  0.03920  0.87280  0.64245  1.0000 -0.141222616
C   C25       1.0  0.99580  0.85960  0.60549  1.0000 -0.1473989603
C   C26       1.0  0.98450  0.95210  0.57746  1.0000 0.119954408
C   C27       1.0  0.09340  0.03540  0.57407  1.0000 -0.141222616
C   C28       1.0  0.07900  0.12400  0.54888  1.0000 -0.099858517
C   C29       1.0  0.95440  0.13290  0.52674  1.0000 -0.0488358303
C   C30       1.0  0.84760  0.04800  0.52888  1.0000 -0.1068660348
C   C31       1.0  0.86330  0.95740  0.55350  1.0000 -0.141222616
C   C32       1.0  0.93750  0.23530  0.50250  1.0000 0.5475756894
C   C33       1.0  0.70950  0.38361  0.68903  1.0000 0.6515802215
C   C34       1.0  0.65340  0.30166  0.65694  1.0000 -0.0319298609
C   C35       1.0  0.72690  0.29312  0.62446  1.0000 -0.099858517
C   C36       1.0  0.67610  0.21875  0.59427  1.0000 -0.1473989603
C   C37       1.0  0.55480  0.14844  0.59734  1.0000 0.119954408
C   C38       1.0  0.48220  0.15750  0.63010  1.0000 -0.141222616
C   C39       1.0  0.52980  0.23482  0.65971  1.0000 -0.0922151564
C   C40       1.0  0.50310  0.06720  0.56528  1.0000 -0.1473989603
C   C41       1.0  0.46050  0.95670  0.56762  1.0000 -0.1473989603
C   C42       1.0  0.46300  0.88325  0.60146  1.0000 0.1120201072
C   C43       1.0  0.56470  0.89640  0.63222  1.0000 -0.1473989603
C   C44       1.0  0.56400  0.82066  0.66231  1.0000 -0.099858517
C   C45       1.0  0.46270  0.72951  0.66246  1.0000 -0.0319298609
C   C46       1.0  0.36130  0.71690  0.63194  1.0000 -0.099858517
C   C47       1.0  0.36190  0.79250  0.60206  1.0000 -0.1473989603
C   C48       1.0  0.46440  0.64383  0.69367  1.0000 0.5777369212
C   C49       1.0  0.74350  0.61601  0.80331  1.0000 0.6592322658
C   C50       1.0  0.80300  0.69611  0.83553  1.0000 -0.0319298609
C   C51       1.0  0.92890  0.76082  0.83221  1.0000 -0.0922151564
C   C52       1.0  0.98000  0.83965  0.86097  1.0000 -0.141222616
C   C53       1.0  0.90960  0.85276  0.89394  1.0000 0.119954408
C   C54       1.0  0.78660  0.78470  0.89771  1.0000 -0.1473989603
C   C55       1.0  0.73260  0.70876  0.86855  1.0000 -0.099858517
C   C56       1.0  0.96850  0.93176  0.92586  1.0000 -0.1473989603
C   C57       1.0  0.01260  0.04260  0.92407  1.0000 -0.1473989603
C   C58       1.0  0.00220  0.12126  0.89149  1.0000 0.1120201072
C   C59       1.0  0.10110  0.21360  0.89069  1.0000 -0.1473989603
C   C60       1.0  0.09430  0.29270  0.86180  1.0000 -0.099858517
C   C61       1.0  0.98700  0.28099  0.83266  1.0000 -0.0240774662
C   C62       1.0  0.88730  0.18932  0.83353  1.0000 -0.099858517
C   C63       1.0  0.89430  0.11010  0.86253  1.0000 -0.1473989603
C   C64       1.0  0.97870  0.36771  0.80169  1.0000 0.5777369212
C   C65       1.0  0.76240  0.30806  0.22745  1.0000 0.6515802215
C   C66       1.0  0.71360  0.19939  0.20526  1.0000 -0.0361979012
C   C67       1.0  0.77520  0.09712  0.21293  1.0000 -0.099858517
C   C68       1.0  0.73220  0.99754  0.19171  1.0000 -0.1581416209
C   C69       1.0  0.62870  0.99797  0.16165  1.0000 0.119954408
C   C70       1.0  0.56470  0.10060  0.15489  1.0000 -0.141222616
C   C71       1.0  0.60570  0.19996  0.17648  1.0000 -0.099858517
C   C72       1.0  0.58900  0.88900  0.13978  1.0000 -0.141222616
C   C73       1.0  0.53480  0.87260  0.10394  1.0000 -0.141222616
C   C74       1.0  0.50100  0.96020  0.07511  1.0000 0.119954408
C   C75       1.0  0.37040  0.95110  0.05505  1.0000 -0.141222616
C   C76       1.0  0.33150  0.03420  0.02936  1.0000 -0.1068660348
C   C77       1.0  0.42510  0.12640  0.02252  1.0000 -0.0488358303
C   C78       1.0  0.55860  0.13190  0.04094  1.0000 -0.099858517
C   C79       1.0  0.59590  0.05010  0.06688  1.0000 -0.1473989603
C   C80       1.0  0.38170  0.22300  0.99773  1.0000 0.5425247621
C   C81       1.0  0.78750  0.69328  0.27868  1.0000 0.6515802215
C   C82       1.0  0.83780  0.80781  0.29744  1.0000 -0.0361979012
C   C83       1.0  0.75540  0.90155  0.29383  1.0000 -0.1068660348
C   C84       1.0  0.79840  0.00542  0.31272  1.0000 -0.1581416209
C   C85       1.0  0.92070  0.01654  0.33680  1.0000 0.119954408
C   C86       1.0  0.00420  0.92238  0.33969  1.0000 -0.141222616
C   C87       1.0  0.96390  0.81941  0.31973  1.0000 -0.0922151564
C   C88       1.0  0.96080  0.12720  0.35755  1.0000 -0.141222616
C   C89       1.0  0.00420  0.14040  0.39451  1.0000 -0.1473989603
C   C90       1.0  0.01550  0.04790  0.42254  1.0000 0.119954408
C   C91       1.0  0.90660  0.96460  0.42593  1.0000 -0.141222616
C   C92       1.0  0.92100  0.87600  0.45112  1.0000 -0.099858517
C   C93       1.0  0.04560  0.86710  0.47326  1.0000 -0.0488358303
C   C94       1.0  0.15240  0.95200  0.47112  1.0000 -0.1068660348
C   C95       1.0  0.13670  0.04260  0.44650  1.0000 -0.141222616
C   C96       1.0  0.06250  0.76470  0.49750  1.0000 0.5475756894
C   C97       1.0  0.29050  0.61639  0.31097  1.0000 0.6515802215
C   C98       1.0  0.34660  0.69834  0.34306  1.0000 -0.0319298609
C   C99       1.0  0.27310  0.70688  0.37554  1.0000 -0.099858517
C   C100      1.0  0.32390  0.78125  0.40573  1.0000 -0.1473989603
C   C101      1.0  0.44520  0.85156  0.40266  1.0000 0.119954408
C   C102      1.0  0.51780  0.84250  0.36990  1.0000 -0.141222616
C   C103      1.0  0.47020  0.76518  0.34029  1.0000 -0.0922151564
C   C104      1.0  0.49690  0.93280  0.43472  1.0000 -0.1473989603
C   C105      1.0  0.53950  0.04330  0.43238  1.0000 -0.1473989603
C   C106      1.0  0.53700  0.11675  0.39854  1.0000 0.1120201072
C   C107      1.0  0.43530  0.10360  0.36778  1.0000 -0.1473989603
C   C108      1.0  0.43600  0.17934  0.33769  1.0000 -0.099858517
C   C109      1.0  0.53730  0.27049  0.33754  1.0000 -0.0319298609
C   C110      1.0  0.63870  0.28310  0.36806  1.0000 -0.099858517
C   C111      1.0  0.63810  0.20750  0.39794  1.0000 -0.1473989603
C   C112      1.0  0.53560  0.35617  0.30633  1.0000 0.5777369212
C   C113      1.0  0.25650  0.38399  0.19669  1.0000 0.6592322658
C   C114      1.0  0.19700  0.30389  0.16447  1.0000 -0.0319298609
C   C115      1.0  0.07110  0.23918  0.16779  1.0000 -0.0922151564
C   C116      1.0  0.02000  0.16035  0.13903  1.0000 -0.141222616
C   C117      1.0  0.09040  0.14724  0.10606  1.0000 0.119954408
C   C118      1.0  0.21340  0.21530  0.10229  1.0000 -0.1473989603
C   C119      1.0  0.26740  0.29124  0.13145  1.0000 -0.099858517
C   C120      1.0  0.03150  0.06824  0.07414  1.0000 -0.1473989603
C   C121      1.0  0.98740  0.95740  0.07593  1.0000 -0.1473989603
C   C122      1.0  0.99780  0.87874  0.10851  1.0000 0.1120201072
C   C123      1.0  0.89890  0.78640  0.10931  1.0000 -0.1473989603
C   C124      1.0  0.90570  0.70730  0.13820  1.0000 -0.099858517
C   C125      1.0  0.01300  0.71901  0.16734  1.0000 -0.0240774662
C   C126      1.0  0.11270  0.81068  0.16647  1.0000 -0.099858517
C   C127      1.0  0.10570  0.88990  0.13747  1.0000 -0.1473989603
C   C128      1.0  0.02130  0.63229  0.19831  1.0000 0.5777369212
O   O1        1.0  0.11410  0.68436  0.75744  1.0000 -0.6517589022
O   O2        1.0  0.32005  0.61348  0.77090  1.0000 -0.6901029278
O   O3        1.0  0.34049  0.32131  0.73107  1.0000 -0.6684077908
O   O4        1.0  0.12621  0.38198  0.72501  1.0000 -0.6820295011
O   O5        1.0  0.62661  0.42155  0.71146  1.0000 -0.6820295011
O   O6        1.0  0.83908  0.40939  0.69144  1.0000 -0.6820295011
O   O7        1.0  0.81906  0.59552  0.77658  1.0000 -0.6820295011
O   O8        1.0  0.61905  0.57533  0.80452  1.0000 -0.6684077908
O   O9        1.0  0.83820  0.65688  0.70199  1.0000 -0.7440208126
O   O10       1.0  0.08656  0.57854  0.68071  1.0000 -0.7583622862
O   O11       1.0  0.35291  0.41200  0.80823  1.0000 -0.7517628301
O   O12       1.0  0.60032  0.33040  0.78452  1.0000 -0.7583622862
O   O13       1.0  0.75520  0.77489  0.00804  1.0000 -0.4694570531
O   O14       1.0  0.53600  0.70666  0.01422  1.0000 -0.4814158012
O   O15       1.0  0.03360  0.30310  0.49651  1.0000 -0.4814158012
O   O16       1.0  0.80700  0.24608  0.48936  1.0000 -0.4694570531
O   O17       1.0  0.55869  0.65555  0.72094  1.0000 -0.6283899873
O   O18       1.0  0.37201  0.56076  0.69253  1.0000 -0.6203965176
O   O19       1.0  0.06743  0.45307  0.80227  1.0000 -0.6283899873
O   O20       1.0  0.88324  0.35341  0.77477  1.0000 -0.6283899873
O   O21       1.0  0.88590  0.31564  0.24256  1.0000 -0.6517589022
O   O22       1.0  0.67995  0.38652  0.22910  1.0000 -0.6901029278
O   O23       1.0  0.65951  0.67869  0.26893  1.0000 -0.6684077908
O   O24       1.0  0.87379  0.61802  0.27499  1.0000 -0.6820295011
O   O25       1.0  0.37339  0.57845  0.28854  1.0000 -0.6820295011
O   O26       1.0  0.16092  0.59061  0.30856  1.0000 -0.6820295011
O   O27       1.0  0.18094  0.40448  0.22342  1.0000 -0.6820295011
O   O28       1.0  0.38095  0.42467  0.19548  1.0000 -0.6684077908
O   O29       1.0  0.16180  0.34312  0.29801  1.0000 -0.7440208126
O   O30       1.0  0.91344  0.42146  0.31929  1.0000 -0.7583622862
O   O31       1.0  0.64709  0.58800  0.19177  1.0000 -0.7517628301
O   O32       1.0  0.39968  0.66960  0.21548  1.0000 -0.7583622862
O   O33       1.0  0.24480  0.22511  0.99196  1.0000 -0.4694570531
O   O34       1.0  0.46400  0.29334  0.98578  1.0000 -0.4814158012
O   O35       1.0  0.96640  0.69690  0.50349  1.0000 -0.4856488933
O   O36       1.0  0.19300  0.75392  0.51064  1.0000 -0.4694570531
O   O37       1.0  0.44131  0.34445  0.27906  1.0000 -0.6283899873
O   O38       1.0  0.62799  0.43924  0.30747  1.0000 -0.6203965176
O   O39       1.0  0.93257  0.54693  0.19773  1.0000 -0.6283899873
O   O40       1.0  0.11676  0.64659  0.22523  1.0000 -0.6283899873
