# DDEC6 charges by PACMAN v1.1 (https://github.com/mtap-research/PACMAN-charge/)
data_2023[Ho][bey]2[FSR]2
_chemical_formula_sum              "Ho4 H100 C128 O40"
_cell_length_a       9.6157
_cell_length_b       11.653
_cell_length_c       34.944
_cell_angle_alpha    91.143
_cell_angle_beta     94.27
_cell_angle_gamma    93.785

_symmetry_space_group_name_H-M    "P 1"
_symmetry_Int_Tables_number       1

loop_
  _symmetry_equiv_pos_as_xyz
  'x, y, z'

loop_
  _atom_site_type_symbol
  _atom_site_label
  _atom_site_symmetry_multiplicity
  _atom_site_fract_x
  _atom_site_fract_y
  _atom_site_fract_z
  _atom_site_occupancy
  _atom_site_charge
Ho  Ho1       1.0  0.97421  0.51783  0.73853  1.0000 2.0692974527
Ho  Ho2       1.0  0.47591  0.48268  0.75472  1.0000 2.0692974527
Ho  Ho3       1.0  0.02579  0.48217  0.26147  1.0000 2.0692974527
Ho  Ho4       1.0  0.52409  0.51732  0.24528  1.0000 2.0692974527
H   H1        1.0  0.75510  0.65262  0.70932  1.0000 0.3709758271
H   H2        1.0  0.83264  0.63612  0.67835  1.0000 0.3393842031
H   H3        1.0  0.17417  0.56634  0.68038  1.0000 0.3753767658
H   H4        1.0  0.04772  0.55365  0.65899  1.0000 0.3393842031
H   H5        1.0  0.57769  0.26687  0.77121  1.0000 0.3584329684
H   H6        1.0  0.68970  0.34427  0.78168  1.0000 0.3709758271
H   H7        1.0  0.40175  0.43580  0.82920  1.0000 0.3525764097
H   H8        1.0  0.27570  0.44314  0.80823  1.0000 0.3753767658
H   H9        1.0  0.79712  0.31084  0.47988  1.0000 0.3584329684
H   H10       1.0  0.77612  0.71387  0.01841  1.0000 0.3525764097
H   H11       1.0  0.81233  0.33981  0.62306  1.0000 0.1197119838
H   H12       1.0  0.33082  0.10770  0.72224  1.0000 0.1197119838
H   H13       1.0  0.44181  0.73042  0.82829  1.0000 0.1197119838
H   H14       1.0  0.64620  0.66364  0.87030  1.0000 0.1197119838
H   H15       1.0  0.47837  0.24389  0.68182  1.0000 0.1197119838
H   H16       1.0  0.97672  0.24384  0.67869  1.0000 0.1197119838
H   H17       1.0  0.14960  0.90060  0.76730  1.0000 0.1197119838
H   H18       1.0  0.98037  0.75006  0.80989  1.0000 0.1197119838
H   H19       1.0  0.72594  0.21611  0.57229  1.0000 0.1120693862
H   H20       1.0  0.25872  0.93290  0.69147  1.0000 0.1197119838
H   H21       1.0  0.50917  0.89696  0.86431  1.0000 0.1120693862
H   H22       1.0  0.73735  0.78929  0.91978  1.0000 0.1120693862
H   H23       1.0  0.39992  0.11018  0.63304  1.0000 0.1120693862
H   H24       1.0  0.91243  0.07224  0.64456  1.0000 0.1120693862
H   H25       1.0  0.22408  0.06927  0.80152  1.0000 0.1197119838
H   H26       1.0  0.06447  0.88357  0.85798  1.0000 0.1120693862
H   H27       1.0  0.50279  0.09801  0.54077  1.0000 0.1197119838
H   H28       1.0  0.04882  0.80668  0.65749  1.0000 0.1254487832
H   H29       1.0  0.39301  0.17735  0.84557  1.0000 0.1197119838
H   H30       1.0  0.97347  0.89857  0.95034  1.0000 0.1197119838
H   H31       1.0  0.42225  0.92103  0.54479  1.0000 0.1197119838
H   H32       1.0  0.96981  0.78408  0.59719  1.0000 0.1197119838
H   H33       1.0  0.48313  0.20402  0.90375  1.0000 0.1254487832
H   H34       1.0  0.05580  0.07428  0.94715  1.0000 0.1197119838
H   H35       1.0  0.63475  0.95816  0.63337  1.0000 0.1197119838
H   H36       1.0  0.17877  0.03215  0.58929  1.0000 0.1197119838
H   H37       1.0  0.31197  0.94387  0.92036  1.0000 0.1197119838
H   H38       1.0  0.17502  0.22191  0.91025  1.0000 0.1120693862
H   H39       1.0  0.29176  0.78188  0.58205  1.0000 0.1120693862
H   H40       1.0  0.78974  0.89905  0.55506  1.0000 0.1197119838
H   H41       1.0  0.69150  0.11235  0.94034  1.0000 0.1254487832
H   H42       1.0  0.82411  0.04777  0.86221  1.0000 0.1197119838
H   H43       1.0  0.63428  0.83081  0.68385  1.0000 0.1254487832
H   H44       1.0  0.15227  0.17929  0.54622  1.0000 0.1197119838
H   H45       1.0  0.37601  0.80742  0.96475  1.0000 0.1197119838
H   H46       1.0  0.16439  0.35402  0.86126  1.0000 0.1197119838
H   H47       1.0  0.29203  0.65484  0.63232  1.0000 0.1120693862
H   H48       1.0  0.76135  0.04998  0.51352  1.0000 0.1120693862
H   H49       1.0  0.75836  0.97336  0.98340  1.0000 0.1120693862
H   H50       1.0  0.81391  0.18038  0.81333  1.0000 0.1197119838
H   H51       1.0  0.24490  0.34738  0.29068  1.0000 0.3709758271
H   H52       1.0  0.16736  0.36388  0.32165  1.0000 0.3393842031
H   H53       1.0  0.82583  0.43366  0.31962  1.0000 0.3753767658
H   H54       1.0  0.95228  0.44635  0.34101  1.0000 0.3393842031
H   H55       1.0  0.42231  0.73313  0.22879  1.0000 0.3584329684
H   H56       1.0  0.31030  0.65573  0.21832  1.0000 0.3709758271
H   H57       1.0  0.59825  0.56420  0.17080  1.0000 0.3525764097
H   H58       1.0  0.72430  0.55686  0.19177  1.0000 0.3753767658
H   H59       1.0  0.20288  0.68916  0.52012  1.0000 0.3584329684
H   H60       1.0  0.22388  0.28613  0.98159  1.0000 0.3525764097
H   H61       1.0  0.18767  0.66019  0.37694  1.0000 0.1197119838
H   H62       1.0  0.66918  0.89230  0.27776  1.0000 0.1197119838
H   H63       1.0  0.55819  0.26958  0.17171  1.0000 0.1197119838
H   H64       1.0  0.35380  0.33636  0.12970  1.0000 0.1197119838
H   H65       1.0  0.52163  0.75611  0.31818  1.0000 0.1197119838
H   H66       1.0  0.02328  0.75616  0.32131  1.0000 0.1197119838
H   H67       1.0  0.85040  0.09940  0.23270  1.0000 0.1197119838
H   H68       1.0  0.01963  0.24994  0.19011  1.0000 0.1197119838
H   H69       1.0  0.27406  0.78389  0.42771  1.0000 0.1120693862
H   H70       1.0  0.74128  0.06710  0.30853  1.0000 0.1197119838
H   H71       1.0  0.49083  0.10304  0.13569  1.0000 0.1120693862
H   H72       1.0  0.26265  0.21071  0.08022  1.0000 0.1120693862
H   H73       1.0  0.60008  0.88982  0.36696  1.0000 0.1120693862
H   H74       1.0  0.08757  0.92776  0.35544  1.0000 0.1120693862
H   H75       1.0  0.77592  0.93073  0.19848  1.0000 0.1197119838
H   H76       1.0  0.93553  0.11643  0.14202  1.0000 0.1120693862
H   H77       1.0  0.49721  0.90199  0.45923  1.0000 0.1197119838
H   H78       1.0  0.95118  0.19332  0.34251  1.0000 0.1254487832
H   H79       1.0  0.60699  0.82265  0.15443  1.0000 0.1197119838
H   H80       1.0  0.02653  0.10143  0.04966  1.0000 0.1197119838
H   H81       1.0  0.57775  0.07897  0.45521  1.0000 0.1197119838
H   H82       1.0  0.03019  0.21592  0.40281  1.0000 0.1197119838
H   H83       1.0  0.51687  0.79598  0.09625  1.0000 0.1254487832
H   H84       1.0  0.94420  0.92572  0.05285  1.0000 0.1197119838
H   H85       1.0  0.36525  0.04184  0.36663  1.0000 0.1197119838
H   H86       1.0  0.82123  0.96785  0.41071  1.0000 0.1197119838
H   H87       1.0  0.68803  0.05613  0.07964  1.0000 0.1197119838
H   H88       1.0  0.82498  0.77809  0.08975  1.0000 0.1120693862
H   H89       1.0  0.70824  0.21812  0.41795  1.0000 0.1120693862
H   H90       1.0  0.21026  0.10095  0.44494  1.0000 0.1197119838
H   H91       1.0  0.30850  0.88765  0.05966  1.0000 0.1254487832
H   H92       1.0  0.17589  0.95223  0.13779  1.0000 0.1197119838
H   H93       1.0  0.36572  0.16919  0.31615  1.0000 0.1254487832
H   H94       1.0  0.84773  0.82071  0.45378  1.0000 0.1197119838
H   H95       1.0  0.62399  0.19258  0.03525  1.0000 0.1197119838
H   H96       1.0  0.83561  0.64598  0.13874  1.0000 0.1197119838
H   H97       1.0  0.70797  0.34516  0.36768  1.0000 0.1120693862
H   H98       1.0  0.23865  0.95002  0.48648  1.0000 0.1120693862
H   H99       1.0  0.24164  0.02664  0.01660  1.0000 0.1120693862
H   H100      1.0  0.18609  0.81962  0.18667  1.0000 0.1197119838
C   C1        1.0  0.70890  0.38500  0.68939  1.0000 0.6514060695
C   C2        1.0  0.21160  0.30890  0.72142  1.0000 0.6568759282
C   C3        1.0  0.23950  0.68910  0.77253  1.0000 0.6568759282
C   C4        1.0  0.74530  0.61380  0.80292  1.0000 0.6568759282
C   C5        1.0  0.65380  0.30290  0.65736  1.0000 -0.0385306919
C   C6        1.0  0.16250  0.19430  0.70291  1.0000 -0.0385306919
C   C7        1.0  0.28700  0.79760  0.79444  1.0000 -0.0385306919
C   C8        1.0  0.80360  0.69420  0.83508  1.0000 -0.0349538911
C   C9        1.0  0.72740  0.29430  0.62481  1.0000 -0.1003659004
C   C10       1.0  0.24520  0.10040  0.70669  1.0000 -0.1065611993
C   C11       1.0  0.39530  0.79860  0.82326  1.0000 -0.0926558859
C   C12       1.0  0.73200  0.70720  0.86792  1.0000 -0.1003659004
C   C13       1.0  0.53040  0.23610  0.65995  1.0000 -0.1003659004
C   C14       1.0  0.03610  0.18190  0.68043  1.0000 -0.0926558859
C   C15       1.0  0.22330  0.89970  0.78694  1.0000 -0.1003659004
C   C16       1.0  0.92950  0.75960  0.83189  1.0000 -0.0926558859
C   C17       1.0  0.67710  0.21940  0.59489  1.0000 -0.1494110153
C   C18       1.0  0.20330  0.99690  0.68794  1.0000 -0.1604329895
C   C19       1.0  0.43570  0.89810  0.84461  1.0000 -0.1422041606
C   C20       1.0  0.78530  0.78320  0.89709  1.0000 -0.1494110153
C   C21       1.0  0.48260  0.15790  0.63067  1.0000 -0.1422041606
C   C22       1.0  0.99700  0.07900  0.66058  1.0000 -0.1422041606
C   C23       1.0  0.26620  0.99990  0.80777  1.0000 -0.1604329895
C   C24       1.0  0.98020  0.83820  0.86071  1.0000 -0.1422041606
C   C25       1.0  0.55570  0.14900  0.59765  1.0000 0.1197119838
C   C26       1.0  0.08010  0.98540  0.66385  1.0000 0.1197119838
C   C27       1.0  0.37040  0.00030  0.83777  1.0000 0.1197119838
C   C28       1.0  0.90900  0.85140  0.89361  1.0000 0.1197119838
C   C29       1.0  0.50450  0.06790  0.56585  1.0000 -0.1494110153
C   C30       1.0  0.04110  0.87450  0.64306  1.0000 -0.1422041606
C   C31       1.0  0.40920  0.10940  0.85933  1.0000 -0.1422041606
C   C32       1.0  0.96720  0.93080  0.92556  1.0000 -0.1494110153
C   C33       1.0  0.46050  0.95740  0.56817  1.0000 -0.1494110153
C   C34       1.0  0.99640  0.86040  0.60617  1.0000 -0.1494110153
C   C35       1.0  0.46390  0.12600  0.89551  1.0000 -0.1422041606
C   C36       1.0  0.01170  0.04110  0.92393  1.0000 -0.1494110153
C   C37       1.0  0.46320  0.88370  0.60222  1.0000 0.1120693862
C   C38       1.0  0.98430  0.95250  0.57790  1.0000 0.1197119838
C   C39       1.0  0.49860  0.03910  0.92442  1.0000 0.1120693862
C   C40       1.0  0.00230  0.11970  0.89116  1.0000 0.1120693862
C   C41       1.0  0.56480  0.89660  0.63301  1.0000 -0.1494110153
C   C42       1.0  0.09300  0.03590  0.57416  1.0000 -0.1422041606
C   C43       1.0  0.40350  0.94920  0.93280  1.0000 -0.1494110153
C   C44       1.0  0.10170  0.21280  0.89044  1.0000 -0.1494110153
C   C45       1.0  0.36200  0.79220  0.60267  1.0000 -0.1494110153
C   C46       1.0  0.86270  0.95780  0.55411  1.0000 -0.1422041606
C   C47       1.0  0.62830  0.04840  0.94444  1.0000 -0.1422041606
C   C48       1.0  0.89380  0.10940  0.86209  1.0000 -0.1494110153
C   C49       1.0  0.56480  0.82060  0.66304  1.0000 -0.1065611993
C   C50       1.0  0.07690  0.12360  0.54870  1.0000 -0.1003659004
C   C51       1.0  0.44170  0.86800  0.95907  1.0000 -0.1003659004
C   C52       1.0  0.09520  0.29200  0.86137  1.0000 -0.1003659004
C   C53       1.0  0.36210  0.71630  0.63256  1.0000 -0.1003659004
C   C54       1.0  0.84620  0.04690  0.52912  1.0000 -0.1065611993
C   C55       1.0  0.66780  0.96640  0.97034  1.0000 -0.1065611993
C   C56       1.0  0.88760  0.18880  0.83307  1.0000 -0.1003659004
C   C57       1.0  0.46350  0.72930  0.66285  1.0000 -0.0233319194
C   C58       1.0  0.95200  0.13160  0.52663  1.0000 -0.0515603523
C   C59       1.0  0.57570  0.87410  0.97729  1.0000 -0.0515603523
C   C60       1.0  0.98760  0.28090  0.83238  1.0000 -0.0233319194
C   C61       1.0  0.46560  0.64310  0.69442  1.0000 0.5775222231
C   C62       1.0  0.93410  0.23350  0.50225  1.0000 0.5478384395
C   C63       1.0  0.61850  0.77790  0.00220  1.0000 0.543414851
C   C64       1.0  0.98040  0.36800  0.80113  1.0000 0.5775222231
C   C65       1.0  0.29110  0.61500  0.31061  1.0000 0.6514060695
C   C66       1.0  0.78840  0.69110  0.27858  1.0000 0.6568759282
C   C67       1.0  0.76050  0.31090  0.22747  1.0000 0.6568759282
C   C68       1.0  0.25470  0.38620  0.19708  1.0000 0.6568759282
C   C69       1.0  0.34620  0.69710  0.34264  1.0000 -0.0385306919
C   C70       1.0  0.83750  0.80570  0.29709  1.0000 -0.0385306919
C   C71       1.0  0.71300  0.20240  0.20556  1.0000 -0.0385306919
C   C72       1.0  0.19640  0.30580  0.16492  1.0000 -0.0349538911
C   C73       1.0  0.27260  0.70570  0.37519  1.0000 -0.1003659004
C   C74       1.0  0.75480  0.89960  0.29331  1.0000 -0.1065611993
C   C75       1.0  0.60470  0.20140  0.17674  1.0000 -0.0926558859
C   C76       1.0  0.26800  0.29280  0.13208  1.0000 -0.1003659004
C   C77       1.0  0.46960  0.76390  0.34005  1.0000 -0.1003659004
C   C78       1.0  0.96390  0.81810  0.31957  1.0000 -0.0926558859
C   C79       1.0  0.77670  0.10030  0.21306  1.0000 -0.1003659004
C   C80       1.0  0.07050  0.24040  0.16811  1.0000 -0.0926558859
C   C81       1.0  0.32290  0.78060  0.40511  1.0000 -0.1494110153
C   C82       1.0  0.79670  0.00310  0.31206  1.0000 -0.1604329895
C   C83       1.0  0.56430  0.10190  0.15539  1.0000 -0.1422041606
C   C84       1.0  0.21470  0.21680  0.10291  1.0000 -0.1494110153
C   C85       1.0  0.51740  0.84210  0.36933  1.0000 -0.1422041606
C   C86       1.0  0.00300  0.92100  0.33942  1.0000 -0.1422041606
C   C87       1.0  0.73380  0.00010  0.19223  1.0000 -0.1604329895
C   C88       1.0  0.01980  0.16180  0.13929  1.0000 -0.1422041606
C   C89       1.0  0.44430  0.85100  0.40235  1.0000 0.1197119838
C   C90       1.0  0.91990  0.01460  0.33615  1.0000 0.1197119838
C   C91       1.0  0.62960  0.99970  0.16223  1.0000 0.1197119838
C   C92       1.0  0.09100  0.14860  0.10639  1.0000 0.1197119838
C   C93       1.0  0.49550  0.93210  0.43415  1.0000 -0.1494110153
C   C94       1.0  0.95890  0.12550  0.35694  1.0000 -0.1422041606
C   C95       1.0  0.59080  0.89060  0.14067  1.0000 -0.1422041606
C   C96       1.0  0.03280  0.06920  0.07444  1.0000 -0.1494110153
C   C97       1.0  0.53950  0.04260  0.43183  1.0000 -0.1494110153
C   C98       1.0  0.00360  0.13960  0.39383  1.0000 -0.1494110153
C   C99       1.0  0.53610  0.87400  0.10449  1.0000 -0.1422041606
C   C100      1.0  0.98830  0.95890  0.07607  1.0000 -0.1494110153
C   C101      1.0  0.53680  0.11630  0.39778  1.0000 0.1120693862
C   C102      1.0  0.01570  0.04750  0.42210  1.0000 0.1197119838
C   C103      1.0  0.50140  0.96090  0.07558  1.0000 0.1120693862
C   C104      1.0  0.99770  0.88030  0.10884  1.0000 0.1197119838
C   C105      1.0  0.43520  0.10340  0.36699  1.0000 -0.1494110153
C   C106      1.0  0.90700  0.96410  0.42584  1.0000 -0.1422041606
C   C107      1.0  0.59650  0.05080  0.06720  1.0000 -0.1494110153
C   C108      1.0  0.89830  0.78720  0.10956  1.0000 -0.1494110153
C   C109      1.0  0.63800  0.20780  0.39733  1.0000 -0.1494110153
C   C110      1.0  0.13730  0.04220  0.44589  1.0000 -0.1422041606
C   C111      1.0  0.37170  0.95160  0.05556  1.0000 -0.1422041606
C   C112      1.0  0.10620  0.89060  0.13791  1.0000 -0.1494110153
C   C113      1.0  0.43520  0.17940  0.33696  1.0000 -0.1065611993
C   C114      1.0  0.92310  0.87640  0.45130  1.0000 -0.1003659004
C   C115      1.0  0.55830  0.13200  0.04093  1.0000 -0.0926558859
C   C116      1.0  0.90480  0.70800  0.13863  1.0000 -0.1003659004
C   C117      1.0  0.63790  0.28370  0.36744  1.0000 -0.1003659004
C   C118      1.0  0.15380  0.95310  0.47088  1.0000 -0.1065611993
C   C119      1.0  0.33220  0.03360  0.02966  1.0000 -0.1003659004
C   C120      1.0  0.11240  0.81120  0.16693  1.0000 -0.1003659004
C   C121      1.0  0.53650  0.27070  0.33715  1.0000 -0.0233319194
C   C122      1.0  0.04800  0.86840  0.47337  1.0000 -0.0515603523
C   C123      1.0  0.42430  0.12590  0.02271  1.0000 -0.0515603523
C   C124      1.0  0.01240  0.71910  0.16762  1.0000 -0.0233319194
C   C125      1.0  0.53440  0.35690  0.30558  1.0000 0.5775222231
C   C126      1.0  0.06590  0.76650  0.49775  1.0000 0.5478384395
C   C127      1.0  0.38150  0.22210  0.99780  1.0000 0.543414851
C   C128      1.0  0.01960  0.63200  0.19887  1.0000 0.5775222231
O   O1        1.0  0.62080  0.57340  0.80374  1.0000 -0.6709874
O   O2        1.0  0.62580  0.42249  0.71163  1.0000 -0.6709874
O   O3        1.0  0.82170  0.59360  0.77637  1.0000 -0.6822853785
O   O4        1.0  0.83890  0.41180  0.69208  1.0000 -0.6871206562
O   O5        1.0  0.84060  0.65650  0.70260  1.0000 -0.7506078284
O   O6        1.0  0.08610  0.57850  0.68122  1.0000 -0.7620260518
O   O7        1.0  0.60010  0.33160  0.78407  1.0000 -0.7620260518
O   O8        1.0  0.35540  0.41190  0.80785  1.0000 -0.7506078284
O   O9        1.0  0.32330  0.61190  0.77107  1.0000 -0.6871206562
O   O10       1.0  0.12630  0.38388  0.72501  1.0000 -0.6709874
O   O11       1.0  0.37300  0.56030  0.69337  1.0000 -0.6210316073
O   O12       1.0  0.80350  0.24540  0.48926  1.0000 -0.4692604344
O   O13       1.0  0.53760  0.70720  0.01476  1.0000 -0.4792259957
O   O14       1.0  0.88450  0.35420  0.77424  1.0000 -0.6302513729
O   O15       1.0  0.56070  0.65468  0.72163  1.0000 -0.6302513729
O   O16       1.0  0.02910  0.30110  0.49520  1.0000 -0.4792259957
O   O17       1.0  0.75630  0.77590  0.00814  1.0000 -0.4692604344
O   O18       1.0  0.06920  0.45248  0.80155  1.0000 -0.6210316073
O   O19       1.0  0.33990  0.32420  0.73129  1.0000 -0.6709874
O   O20       1.0  0.11510  0.67919  0.75735  1.0000 -0.6643601458
O   O21       1.0  0.37920  0.42660  0.19626  1.0000 -0.6709874
O   O22       1.0  0.37420  0.57751  0.28837  1.0000 -0.6709874
O   O23       1.0  0.17830  0.40640  0.22363  1.0000 -0.6822853785
O   O24       1.0  0.16110  0.58820  0.30792  1.0000 -0.6871206562
O   O25       1.0  0.15940  0.34350  0.29740  1.0000 -0.7506078284
O   O26       1.0  0.91390  0.42150  0.31878  1.0000 -0.7620260518
O   O27       1.0  0.39990  0.66840  0.21593  1.0000 -0.7620260518
O   O28       1.0  0.64460  0.58810  0.19215  1.0000 -0.7506078284
O   O29       1.0  0.67670  0.38810  0.22893  1.0000 -0.6871206562
O   O30       1.0  0.87370  0.61612  0.27499  1.0000 -0.6709874
O   O31       1.0  0.62700  0.43970  0.30663  1.0000 -0.6210316073
O   O32       1.0  0.19650  0.75460  0.51074  1.0000 -0.4692604344
O   O33       1.0  0.46240  0.29280  0.98524  1.0000 -0.4792259957
O   O34       1.0  0.11550  0.64580  0.22576  1.0000 -0.6302513729
O   O35       1.0  0.43930  0.34532  0.27837  1.0000 -0.6302513729
O   O36       1.0  0.97090  0.69890  0.50480  1.0000 -0.4792259957
O   O37       1.0  0.24370  0.22410  0.99186  1.0000 -0.4692604344
O   O38       1.0  0.93080  0.54752  0.19845  1.0000 -0.6210316073
O   O39       1.0  0.66010  0.67580  0.26871  1.0000 -0.6709874
O   O40       1.0  0.88490  0.32081  0.24265  1.0000 -0.6643601458
