# DDEC6 charges by PACMAN v1.1 (https://github.com/mtap-research/PACMAN-charge/)
data_2023[AlCu][scu]3[FSR]1
_chemical_formula_sum              "Al2 Cu4 H80 C104 N24 F12"
_cell_length_a       19.8086
_cell_length_b       19.8086
_cell_length_c       19.8086
_cell_angle_alpha    101.85
_cell_angle_beta     101.85
_cell_angle_gamma    126.108

_symmetry_space_group_name_H-M    "P 1"
_symmetry_Int_Tables_number       1

loop_
  _symmetry_equiv_pos_as_xyz
  'x, y, z'

loop_
  _atom_site_type_symbol
  _atom_site_label
  _atom_site_symmetry_multiplicity
  _atom_site_fract_x
  _atom_site_fract_y
  _atom_site_fract_z
  _atom_site_occupancy
  _atom_site_charge
Al  Al1       1.0  0.50000  0.00000  0.50000  1.0000 1.768607639
Al  Al2       1.0  0.00000  0.50000  0.50000  1.0000 1.768607639
Cu  Cu1       1.0  0.66947  0.00000  0.66947  1.0000 0.4970013725
Cu  Cu2       1.0  0.00000  0.66947  0.66947  1.0000 0.4869347292
Cu  Cu3       1.0  0.33053  0.00000  0.33053  1.0000 0.4869347292
Cu  Cu4       1.0  0.00000  0.33053  0.33053  1.0000 0.4970013725
H   H1        1.0  0.68785  0.03602  0.53577  1.0000 0.1301868486
H   H2        1.0  0.15208  0.68785  0.65183  1.0000 0.1301868486
H   H3        1.0  0.50025  0.15208  0.46423  1.0000 0.1301868486
H   H4        1.0  0.03602  0.50025  0.34817  1.0000 0.1301868486
H   H5        1.0  0.49975  0.96398  0.65183  1.0000 0.1301868486
H   H6        1.0  0.84792  0.49975  0.53577  1.0000 0.1301868486
H   H7        1.0  0.31215  0.84792  0.34817  1.0000 0.1301868486
H   H8        1.0  0.96398  0.31215  0.46423  1.0000 0.1301868486
H   H9        1.0  0.31215  0.96398  0.46423  1.0000 0.1301868486
H   H10       1.0  0.84792  0.31215  0.34817  1.0000 0.1301868486
H   H11       1.0  0.49975  0.84792  0.53577  1.0000 0.1301868486
H   H12       1.0  0.96398  0.49975  0.65183  1.0000 0.1301868486
H   H13       1.0  0.50025  0.03602  0.34817  1.0000 0.1301868486
H   H14       1.0  0.15208  0.50025  0.46423  1.0000 0.1301868486
H   H15       1.0  0.68785  0.15208  0.65183  1.0000 0.1301868486
H   H16       1.0  0.03602  0.68785  0.53577  1.0000 0.1301868486
H   H17       1.0  0.83142  0.01338  0.68058  1.0000 0.096230096
H   H18       1.0  0.15084  0.83142  0.81804  1.0000 0.096230096
H   H19       1.0  0.33280  0.15084  0.31942  1.0000 0.096230096
H   H20       1.0  0.01338  0.33280  0.18196  1.0000 0.096230096
H   H21       1.0  0.66720  0.98662  0.81804  1.0000 0.096230096
H   H22       1.0  0.84916  0.66720  0.68058  1.0000 0.096230096
H   H23       1.0  0.16858  0.84916  0.18196  1.0000 0.096230096
H   H24       1.0  0.98662  0.16858  0.31942  1.0000 0.096230096
H   H25       1.0  0.16858  0.98662  0.31942  1.0000 0.096230096
H   H26       1.0  0.84916  0.16858  0.18196  1.0000 0.096230096
H   H27       1.0  0.66720  0.84916  0.68058  1.0000 0.096230096
H   H28       1.0  0.98662  0.66720  0.81804  1.0000 0.096230096
H   H29       1.0  0.33280  0.01338  0.18196  1.0000 0.096230096
H   H30       1.0  0.15084  0.33280  0.31942  1.0000 0.096230096
H   H31       1.0  0.83142  0.15084  0.81804  1.0000 0.096230096
H   H32       1.0  0.01338  0.83142  0.68058  1.0000 0.096230096
H   H33       1.0  0.77657  0.06465  0.46924  1.0000 0.1485251917
H   H34       1.0  0.30733  0.77657  0.71191  1.0000 0.1485251917
H   H35       1.0  0.59541  0.30733  0.53075  1.0000 0.1485251917
H   H36       1.0  0.06466  0.59541  0.28808  1.0000 0.1485251917
H   H37       1.0  0.40459  0.93534  0.71191  1.0000 0.1485251917
H   H38       1.0  0.69267  0.40459  0.46924  1.0000 0.1485251917
H   H39       1.0  0.22343  0.69267  0.28808  1.0000 0.1485251917
H   H40       1.0  0.93534  0.22343  0.53075  1.0000 0.1485251917
H   H41       1.0  0.22343  0.93534  0.53075  1.0000 0.1485251917
H   H42       1.0  0.69268  0.22343  0.28808  1.0000 0.1485251917
H   H43       1.0  0.40459  0.69267  0.46924  1.0000 0.1485251917
H   H44       1.0  0.93534  0.40459  0.71191  1.0000 0.1485251917
H   H45       1.0  0.59541  0.06466  0.28808  1.0000 0.1485251917
H   H46       1.0  0.30733  0.59541  0.53075  1.0000 0.1485251917
H   H47       1.0  0.77657  0.30733  0.71191  1.0000 0.1485251917
H   H48       1.0  0.06465  0.77657  0.46924  1.0000 0.1485251917
H   H49       1.0  0.92661  0.04484  0.61945  1.0000 0.136339431
H   H50       1.0  0.30716  0.92661  0.88177  1.0000 0.136339431
H   H51       1.0  0.42539  0.30716  0.38055  1.0000 0.136339431
H   H52       1.0  0.04484  0.42539  0.11823  1.0000 0.136339431
H   H53       1.0  0.57461  0.95516  0.88177  1.0000 0.136339431
H   H54       1.0  0.69284  0.57461  0.61945  1.0000 0.136339431
H   H55       1.0  0.07339  0.69284  0.11823  1.0000 0.136339431
H   H56       1.0  0.95516  0.07339  0.38055  1.0000 0.136339431
H   H57       1.0  0.07339  0.95516  0.38055  1.0000 0.136339431
H   H58       1.0  0.69284  0.07339  0.11823  1.0000 0.136339431
H   H59       1.0  0.57461  0.69284  0.61945  1.0000 0.136339431
H   H60       1.0  0.95516  0.57461  0.88177  1.0000 0.136339431
H   H61       1.0  0.42539  0.04484  0.11823  1.0000 0.136339431
H   H62       1.0  0.30716  0.42539  0.38055  1.0000 0.136339431
H   H63       1.0  0.92661  0.30716  0.88177  1.0000 0.136339431
H   H64       1.0  0.04484  0.92661  0.61945  1.0000 0.136339431
H   H65       1.0  0.09252  0.15764  0.55008  1.0000 0.136339431
H   H66       1.0  0.54244  0.09252  0.93488  1.0000 0.136339431
H   H67       1.0  0.60756  0.54244  0.44992  1.0000 0.136339431
H   H68       1.0  0.15764  0.60756  0.06512  1.0000 0.136339431
H   H69       1.0  0.39244  0.84236  0.93488  1.0000 0.136339431
H   H70       1.0  0.45756  0.39244  0.55008  1.0000 0.136339431
H   H71       1.0  0.90748  0.45756  0.06512  1.0000 0.136339431
H   H72       1.0  0.84236  0.90748  0.44992  1.0000 0.136339431
H   H73       1.0  0.90748  0.84236  0.44992  1.0000 0.136339431
H   H74       1.0  0.45756  0.90748  0.06512  1.0000 0.136339431
H   H75       1.0  0.39244  0.45756  0.55008  1.0000 0.136339431
H   H76       1.0  0.84236  0.39244  0.93488  1.0000 0.136339431
H   H77       1.0  0.60756  0.15764  0.06512  1.0000 0.136339431
H   H78       1.0  0.54244  0.60756  0.44992  1.0000 0.136339431
H   H79       1.0  0.09252  0.54244  0.93488  1.0000 0.136339431
H   H80       1.0  0.15764  0.09252  0.55008  1.0000 0.136339431
C   C1        1.0  0.73730  0.03841  0.55351  1.0000 0.1064384536
C   C2        1.0  0.18379  0.73730  0.69889  1.0000 0.1064384536
C   C3        1.0  0.48490  0.18379  0.44649  1.0000 0.1064384536
C   C4        1.0  0.03841  0.48490  0.30111  1.0000 0.1064384536
C   C5        1.0  0.51510  0.96159  0.69889  1.0000 0.1064384536
C   C6        1.0  0.81621  0.51510  0.55351  1.0000 0.1064384536
C   C7        1.0  0.26270  0.81621  0.30111  1.0000 0.1064384536
C   C8        1.0  0.96159  0.26270  0.44649  1.0000 0.1064384536
C   C9        1.0  0.26270  0.96159  0.44649  1.0000 0.1064384536
C   C10       1.0  0.81621  0.26270  0.30111  1.0000 0.1064384536
C   C11       1.0  0.51510  0.81621  0.55351  1.0000 0.1064384536
C   C12       1.0  0.96159  0.51510  0.69889  1.0000 0.1064384536
C   C13       1.0  0.48490  0.03841  0.30111  1.0000 0.1064384536
C   C14       1.0  0.18379  0.48490  0.44649  1.0000 0.1064384536
C   C15       1.0  0.73730  0.18379  0.69889  1.0000 0.1064384536
C   C16       1.0  0.03841  0.73730  0.55351  1.0000 0.1064384536
C   C17       1.0  0.82104  0.02500  0.63764  1.0000 0.0528113645
C   C18       1.0  0.18340  0.82104  0.79604  1.0000 0.0528113645
C   C19       1.0  0.38736  0.18340  0.36236  1.0000 0.0528113645
C   C20       1.0  0.02500  0.38736  0.20396  1.0000 0.0528113645
C   C21       1.0  0.61264  0.97500  0.79604  1.0000 0.0528113645
C   C22       1.0  0.81660  0.61264  0.63764  1.0000 0.0528113645
C   C23       1.0  0.17896  0.81660  0.20396  1.0000 0.0528113645
C   C24       1.0  0.97500  0.17896  0.36236  1.0000 0.0528113645
C   C25       1.0  0.17896  0.97500  0.36236  1.0000 0.0528113645
C   C26       1.0  0.81660  0.17896  0.20396  1.0000 0.0528113645
C   C27       1.0  0.61264  0.81660  0.63764  1.0000 0.0528113645
C   C28       1.0  0.97500  0.61264  0.79604  1.0000 0.0528113645
C   C29       1.0  0.38736  0.02500  0.20396  1.0000 0.0528113645
C   C30       1.0  0.18340  0.38736  0.36236  1.0000 0.0528113645
C   C31       1.0  0.82104  0.18340  0.79604  1.0000 0.0528113645
C   C32       1.0  0.02500  0.82104  0.63764  1.0000 0.0528113645
C   C33       1.0  0.79004  0.05540  0.51304  1.0000 -0.2314263859
C   C34       1.0  0.27700  0.79004  0.73464  1.0000 -0.2314263859
C   C35       1.0  0.54236  0.27700  0.48696  1.0000 -0.2314263859
C   C36       1.0  0.05540  0.54236  0.26536  1.0000 -0.2314263859
C   C37       1.0  0.45764  0.94460  0.73464  1.0000 -0.2314263859
C   C38       1.0  0.72300  0.45764  0.51304  1.0000 -0.2314263859
C   C39       1.0  0.20996  0.72300  0.26536  1.0000 -0.2314263859
C   C40       1.0  0.94460  0.20996  0.48696  1.0000 -0.2314263859
C   C41       1.0  0.20996  0.94460  0.48696  1.0000 -0.2314263859
C   C42       1.0  0.72300  0.20996  0.26536  1.0000 -0.2314263859
C   C43       1.0  0.45764  0.72300  0.51304  1.0000 -0.2314263859
C   C44       1.0  0.94460  0.45764  0.73464  1.0000 -0.2314263859
C   C45       1.0  0.54236  0.05540  0.26536  1.0000 -0.2314263859
C   C46       1.0  0.27700  0.54236  0.48696  1.0000 -0.2314263859
C   C47       1.0  0.79004  0.27700  0.73464  1.0000 -0.2314263859
C   C48       1.0  0.05540  0.79004  0.51304  1.0000 -0.2314263859
C   C49       1.0  0.87791  0.04348  0.60159  1.0000 -0.2314263859
C   C50       1.0  0.27632  0.87791  0.83443  1.0000 -0.2314263859
C   C51       1.0  0.44189  0.27632  0.39841  1.0000 -0.2314263859
C   C52       1.0  0.04348  0.44189  0.16557  1.0000 -0.2314263859
C   C53       1.0  0.55811  0.95652  0.83443  1.0000 -0.2314263859
C   C54       1.0  0.72368  0.55811  0.60159  1.0000 -0.2314263859
C   C55       1.0  0.12209  0.72368  0.16557  1.0000 -0.2314263859
C   C56       1.0  0.95652  0.12209  0.39841  1.0000 -0.2314263859
C   C57       1.0  0.12209  0.95652  0.39841  1.0000 -0.2314263859
C   C58       1.0  0.72368  0.12209  0.16557  1.0000 -0.2314263859
C   C59       1.0  0.55811  0.72368  0.60159  1.0000 -0.2314263859
C   C60       1.0  0.95652  0.55811  0.83443  1.0000 -0.2314263859
C   C61       1.0  0.44189  0.04348  0.16557  1.0000 -0.2314263859
C   C62       1.0  0.27632  0.44189  0.39841  1.0000 -0.2314263859
C   C63       1.0  0.87791  0.27632  0.83443  1.0000 -0.2314263859
C   C64       1.0  0.04348  0.87791  0.60159  1.0000 -0.2314263859
C   C65       1.0  0.86319  0.05995  0.53754  1.0000 0.2077195377
C   C66       1.0  0.32565  0.86319  0.80324  1.0000 0.2077195377
C   C67       1.0  0.52241  0.32565  0.46246  1.0000 0.2077195377
C   C68       1.0  0.05995  0.52241  0.19676  1.0000 0.2077195377
C   C69       1.0  0.47759  0.94005  0.80324  1.0000 0.2077195377
C   C70       1.0  0.67435  0.47759  0.53754  1.0000 0.2077195377
C   C71       1.0  0.13681  0.67435  0.19676  1.0000 0.2077195377
C   C72       1.0  0.94005  0.13681  0.46246  1.0000 0.2077195377
C   C73       1.0  0.13681  0.94005  0.46246  1.0000 0.2077195377
C   C74       1.0  0.67435  0.13681  0.19676  1.0000 0.2077195377
C   C75       1.0  0.47759  0.67435  0.53754  1.0000 0.2077195377
C   C76       1.0  0.94005  0.47759  0.80324  1.0000 0.2077195377
C   C77       1.0  0.52241  0.05995  0.19676  1.0000 0.2077195377
C   C78       1.0  0.32565  0.52241  0.46246  1.0000 0.2077195377
C   C79       1.0  0.86319  0.32565  0.80324  1.0000 0.2077195377
C   C80       1.0  0.05995  0.86319  0.53754  1.0000 0.2077195377
C   C81       1.0  0.96167  0.03833  0.50000  1.0000 0.1231635663
C   C82       1.0  0.46167  0.96167  0.92334  1.0000 0.1231635663
C   C83       1.0  0.53833  0.46167  0.50000  1.0000 0.1231635663
C   C84       1.0  0.03833  0.53833  0.07666  1.0000 0.1231635663
C   C85       1.0  0.03833  0.96167  0.50000  1.0000 0.1231635663
C   C86       1.0  0.53833  0.03833  0.07666  1.0000 0.1231635663
C   C87       1.0  0.46167  0.53833  0.50000  1.0000 0.1231635663
C   C88       1.0  0.96167  0.46167  0.92334  1.0000 0.1231635663
C   C89       1.0  0.05517  0.09346  0.52963  1.0000 -0.1597832197
C   C90       1.0  0.52554  0.05517  0.96171  1.0000 -0.1597832197
C   C91       1.0  0.56383  0.52554  0.47037  1.0000 -0.1597832197
C   C92       1.0  0.09346  0.56383  0.03829  1.0000 -0.1597832197
C   C93       1.0  0.43617  0.90654  0.96171  1.0000 -0.1597832197
C   C94       1.0  0.47446  0.43617  0.52963  1.0000 -0.1597832197
C   C95       1.0  0.94483  0.47446  0.03829  1.0000 -0.1597832197
C   C96       1.0  0.90654  0.94483  0.47037  1.0000 -0.1597832197
C   C97       1.0  0.94483  0.90654  0.47037  1.0000 -0.1597832197
C   C98       1.0  0.47446  0.94483  0.03829  1.0000 -0.1597832197
C   C99       1.0  0.43617  0.47446  0.52963  1.0000 -0.1597832197
C   C100      1.0  0.90654  0.43617  0.96171  1.0000 -0.1597832197
C   C101      1.0  0.56383  0.09346  0.03829  1.0000 -0.1597832197
C   C102      1.0  0.52554  0.56383  0.47037  1.0000 -0.1597832197
C   C103      1.0  0.05517  0.52554  0.96171  1.0000 -0.1597832197
C   C104      1.0  0.09346  0.05517  0.52963  1.0000 -0.1597832197
N   N1        1.0  0.75050  0.02267  0.61489  1.0000 -0.2222240955
N   N2        1.0  0.13561  0.75050  0.72783  1.0000 -0.2222240955
N   N3        1.0  0.40778  0.13561  0.38511  1.0000 -0.2222240955
N   N4        1.0  0.02267  0.40778  0.27217  1.0000 -0.2222240955
N   N5        1.0  0.59222  0.97733  0.72783  1.0000 -0.2222240955
N   N6        1.0  0.86439  0.59222  0.61489  1.0000 -0.2222240955
N   N7        1.0  0.24950  0.86439  0.27217  1.0000 -0.2222240955
N   N8        1.0  0.97733  0.24950  0.38511  1.0000 -0.2222240955
N   N9        1.0  0.24950  0.97733  0.38511  1.0000 -0.2222240955
N   N10       1.0  0.86439  0.24950  0.27217  1.0000 -0.2222240955
N   N11       1.0  0.59222  0.86439  0.61489  1.0000 -0.2222240955
N   N12       1.0  0.97733  0.59222  0.72783  1.0000 -0.2222240955
N   N13       1.0  0.40778  0.02267  0.27217  1.0000 -0.2222240955
N   N14       1.0  0.13561  0.40778  0.38511  1.0000 -0.2222240955
N   N15       1.0  0.75050  0.13561  0.72783  1.0000 -0.2222240955
N   N16       1.0  0.02267  0.75050  0.61489  1.0000 -0.2222240955
N   N17       1.0  0.92051  0.07949  0.50000  1.0000 -0.1894340364
N   N18       1.0  0.42051  0.92051  0.84102  1.0000 -0.1894340364
N   N19       1.0  0.57949  0.42051  0.50000  1.0000 -0.1894340364
N   N20       1.0  0.07949  0.57949  0.15898  1.0000 -0.1894340364
N   N21       1.0  0.07949  0.92051  0.50000  1.0000 -0.1894340364
N   N22       1.0  0.57949  0.07949  0.15898  1.0000 -0.1894340364
N   N23       1.0  0.42051  0.57949  0.50000  1.0000 -0.1894340364
N   N24       1.0  0.92051  0.42051  0.84102  1.0000 -0.1894340364
F   F1        1.0  0.57289  0.00000  0.57289  1.0000 -0.6258110923
F   F2        1.0  0.00000  0.57289  0.57289  1.0000 -0.6258110923
F   F3        1.0  0.42711  0.00000  0.42711  1.0000 -0.6258110923
F   F4        1.0  0.00000  0.42711  0.42711  1.0000 -0.6258110923
F   F5        1.0  0.57140  0.02020  0.44880  1.0000 -0.6484204528
F   F6        1.0  0.12260  0.57140  0.55120  1.0000 -0.6484204528
F   F7        1.0  0.57140  0.12260  0.55120  1.0000 -0.6484204528
F   F8        1.0  0.02020  0.57140  0.44880  1.0000 -0.6484204528
F   F9        1.0  0.42860  0.97980  0.55120  1.0000 -0.6484204528
F   F10       1.0  0.87740  0.42860  0.44880  1.0000 -0.6484204528
F   F11       1.0  0.42860  0.87740  0.44880  1.0000 -0.6484204528
F   F12       1.0  0.97980  0.42860  0.55120  1.0000 -0.6484204528
