# DDEC6 charges by PACMAN v1.1 (https://github.com/mtap-research/PACMAN-charge/)
data_2023[Ni][ddi]3[FSR]2
_chemical_formula_sum              "Ni4 H48 C72 N24 O18"
_cell_length_a       20.0151
_cell_length_b       20.0151
_cell_length_c       14.1993
_cell_angle_alpha    80.8536
_cell_angle_beta     99.1464
_cell_angle_gamma    39.6443

_symmetry_space_group_name_H-M    "P 1"
_symmetry_Int_Tables_number       1

loop_
  _symmetry_equiv_pos_as_xyz
  'x, y, z'

loop_
  _atom_site_type_symbol
  _atom_site_label
  _atom_site_symmetry_multiplicity
  _atom_site_fract_x
  _atom_site_fract_y
  _atom_site_fract_z
  _atom_site_occupancy
  _atom_site_charge
Ni  Ni1       1.0  0.59288  0.62126  0.86237  1.0000 0.8656895188
Ni  Ni2       1.0  0.37874  0.40712  0.36237  1.0000 0.8656895188
Ni  Ni3       1.0  0.10436  0.61092  0.36550  1.0000 0.8641252844
Ni  Ni4       1.0  0.38908  0.89564  0.86550  1.0000 0.8641252844
H   H1        1.0  0.99008  0.59110  0.46166  1.0000 0.1301697825
H   H2        1.0  0.40890  0.00992  0.96166  1.0000 0.1301697825
H   H3        1.0  0.68842  0.67726  0.78352  1.0000 0.1238012533
H   H4        1.0  0.32274  0.31158  0.28352  1.0000 0.1238012533
H   H5        1.0  0.66842  0.75350  0.13311  1.0000 0.1090757825
H   H6        1.0  0.24650  0.33158  0.63311  1.0000 0.1090757825
H   H7        1.0  0.00046  0.77511  0.49819  1.0000 0.1301697825
H   H8        1.0  0.22490  0.99955  0.99819  1.0000 0.1301697825
H   H9        1.0  0.81922  0.70180  0.22918  1.0000 0.1090757825
H   H10       1.0  0.29820  0.18078  0.72918  1.0000 0.1090757825
H   H11       1.0  0.48624  0.45890  0.57747  1.0000 0.1090757825
H   H12       1.0  0.54110  0.51376  0.07747  1.0000 0.1090757825
H   H13       1.0  0.04410  0.81184  0.25141  1.0000 0.1301697825
H   H14       1.0  0.18816  0.95590  0.75141  1.0000 0.1301697825
H   H15       1.0  0.89706  0.79808  0.59805  1.0000 0.1301697825
H   H16       1.0  0.20192  0.10294  0.09805  1.0000 0.1301697825
H   H17       1.0  0.63245  0.43405  0.91206  1.0000 0.1301697825
H   H18       1.0  0.56595  0.36755  0.41206  1.0000 0.1301697825
H   H19       1.0  0.14342  0.77200  0.48504  1.0000 0.1090757825
H   H20       1.0  0.22800  0.85658  0.98504  1.0000 0.1090757825
H   H21       1.0  0.87212  0.52576  0.01195  1.0000 0.1090757825
H   H22       1.0  0.47424  0.12788  0.51195  1.0000 0.1090757825
H   H23       1.0  0.53565  0.51139  0.67017  1.0000 0.1007914944
H   H24       1.0  0.48861  0.46435  0.17017  1.0000 0.1007914944
H   H25       1.0  0.82529  0.83573  0.18219  1.0000 0.1301697825
H   H26       1.0  0.16427  0.17471  0.68219  1.0000 0.1301697825
H   H27       1.0  0.68066  0.50716  0.68891  1.0000 0.1238012533
H   H28       1.0  0.49284  0.31934  0.18891  1.0000 0.1238012533
H   H29       1.0  0.01916  0.47972  0.10325  1.0000 0.1007914944
H   H30       1.0  0.52028  0.98084  0.60325  1.0000 0.1007914944
H   H31       1.0  0.19221  0.83001  0.56671  1.0000 0.1090757825
H   H32       1.0  0.16999  0.80779  0.06671  1.0000 0.1090757825
H   H33       1.0  0.96800  0.18310  0.12198  1.0000 0.1301697825
H   H34       1.0  0.81690  0.03200  0.62198  1.0000 0.1301697825
H   H35       1.0  0.87719  0.36963  0.03791  1.0000 0.1301697825
H   H36       1.0  0.63036  0.12280  0.53791  1.0000 0.1301697825
H   H37       1.0  0.76322  0.52266  0.59042  1.0000 0.1301697825
H   H38       1.0  0.47734  0.23678  0.09042  1.0000 0.1238012533
H   H39       1.0  0.71103  0.03051  0.07388  1.0000 0.1301697825
H   H40       1.0  0.96949  0.28897  0.57388  1.0000 0.1301697825
H   H41       1.0  0.71984  0.75210  0.71061  1.0000 0.1470126041
H   H42       1.0  0.24790  0.28016  0.21061  1.0000 0.1470126041
H   H43       1.0  0.63987  0.31907  0.95600  1.0000 0.1386137963
H   H44       1.0  0.68093  0.36013  0.45600  1.0000 0.1386137963
H   H45       1.0  0.66863  0.17737  0.00709  1.0000 0.1301697825
H   H46       1.0  0.82263  0.33137  0.50709  1.0000 0.1301697825
H   H47       1.0  0.80573  0.78104  0.65995  1.0000 0.1386137963
H   H48       1.0  0.21896  0.19428  0.15995  1.0000 0.1386137963
C   C1        1.0  0.75512  0.64572  0.06150  1.0000 -0.011660939
C   C2        1.0  0.35428  0.24488  0.56150  1.0000 -0.011660939
C   C3        1.0  0.97957  0.64037  0.48280  1.0000 0.1386137963
C   C4        1.0  0.35963  0.02043  0.98280  1.0000 0.1386137963
C   C5        1.0  0.69553  0.63753  0.74700  1.0000 0.1386137963
C   C6        1.0  0.36247  0.30447  0.24700  1.0000 0.1386137963
C   C7        1.0  0.73959  0.69779  0.12710  1.0000 -0.1099090432
C   C8        1.0  0.30221  0.26041  0.62710  1.0000 -0.1099090432
C   C9        1.0  0.27986  0.57286  0.46580  1.0000 0.5710097877
C   C10       1.0  0.42714  0.72014  0.96580  1.0000 0.5710097877
C   C11       1.0  0.40448  0.70688  0.68770  1.0000 0.5541088162
C   C12       1.0  0.29312  0.59552  0.18770  1.0000 0.5541088162
C   C13       1.0  0.02756  0.55976  0.23120  1.0000 0.5541088162
C   C14       1.0  0.44024  0.97244  0.73120  1.0000 0.5541088162
C   C15       1.0  0.98474  0.74074  0.50360  1.0000 -0.011660939
C   C16       1.0  0.25926  0.01526  0.00360  1.0000 -0.011660939
C   C17       1.0  0.36975  0.67475  0.62800  1.0000 -0.011660939
C   C18       1.0  0.32525  0.63025  0.12800  1.0000 -0.011660939
C   C19       1.0  0.82922  0.66742  0.18360  1.0000 -0.1099090432
C   C20       1.0  0.33258  0.17078  0.68360  1.0000 -0.1099090432
C   C21       1.0  0.65697  0.68137  0.99440  1.0000 0.5710097877
C   C22       1.0  0.31863  0.34303  0.49440  1.0000 0.5710097877
C   C23       1.0  0.31034  0.60974  0.52250  1.0000 -0.011660939
C   C24       1.0  0.39026  0.68966  0.02250  1.0000 -0.011660939
C   C25       1.0  0.42641  0.53341  0.57700  1.0000 -0.1099090432
C   C26       1.0  0.46659  0.57359  0.07700  1.0000 -0.1099090432
C   C27       1.0  0.84408  0.04388  0.10670  1.0000 0.2691914964
C   C28       1.0  0.95612  0.15592  0.60670  1.0000 0.2691914964
C   C29       1.0  0.81264  0.20044  0.04780  1.0000 0.2595486371
C   C30       1.0  0.79956  0.18736  0.54780  1.0000 0.2595486371
C   C31       1.0  0.97530  0.84170  0.22070  1.0000 0.1386137963
C   C32       1.0  0.15830  0.02470  0.72070  1.0000 0.1470126041
C   C33       1.0  0.92770  0.75410  0.55850  1.0000 -0.1222764421
C   C34       1.0  0.24590  0.07230  0.05850  1.0000 -0.1222764421
C   C35       1.0  0.77892  0.64292  0.64100  1.0000 0.2691914964
C   C36       1.0  0.35708  0.22108  0.14100  1.0000 0.2691914964
C   C37       1.0  0.87078  0.67798  0.58120  1.0000 0.2691914964
C   C38       1.0  0.32202  0.12922  0.08120  1.0000 0.2691914964
C   C39       1.0  0.70547  0.39447  0.95300  1.0000 0.1238012533
C   C40       1.0  0.60553  0.29453  0.45300  1.0000 0.1238012533
C   C41       1.0  0.22319  0.71979  0.52080  1.0000 -0.1099090432
C   C42       1.0  0.28021  0.77681  0.02080  1.0000 -0.1099090432
C   C43       1.0  0.86037  0.56317  0.05470  1.0000 -0.1222764421
C   C44       1.0  0.43683  0.13963  0.55470  1.0000 -0.1222764421
C   C45       1.0  0.45562  0.56542  0.63090  1.0000 -0.1222764421
C   C46       1.0  0.43458  0.54438  0.13090  1.0000 -0.1222764421
C   C47       1.0  0.93358  0.58718  0.17440  1.0000 -0.0181675582
C   C48       1.0  0.41282  0.06642  0.67440  1.0000 -0.0181675582
C   C49       1.0  0.85508  0.85628  0.18230  1.0000 -0.0181675582
C   C50       1.0  0.14372  0.14492  0.68230  1.0000 -0.0181675582
C   C51       1.0  0.69251  0.54431  0.69500  1.0000 -0.0181675582
C   C52       1.0  0.45569  0.30749  0.19500  1.0000 -0.0181675582
C   C53       1.0  0.94826  0.53506  0.10970  1.0000 -0.1099090432
C   C54       1.0  0.46494  0.05174  0.60970  1.0000 -0.1099090432
C   C55       1.0  0.25205  0.75365  0.57100  1.0000 -0.1099090432
C   C56       1.0  0.24635  0.74795  0.07100  1.0000 -0.1099090432
C   C57       1.0  0.88984  0.25584  0.06900  1.0000 -0.1099090432
C   C58       1.0  0.74416  0.11016  0.56900  1.0000 -0.1099090432
C   C59       1.0  0.83930  0.35830  0.02250  1.0000 -0.011660939
C   C60       1.0  0.64170  0.16070  0.52250  1.0000 -0.011660939
C   C61       1.0  0.73742  0.55262  0.64030  1.0000 -0.1099090432
C   C62       1.0  0.44738  0.26258  0.14030  1.0000 -0.1099090432
C   C63       1.0  0.79190  0.96290  0.12240  1.0000 -0.1222764421
C   C64       1.0  0.03710  0.20810  0.62240  1.0000 -0.1222764421
C   C65       1.0  0.76283  0.71603  0.67110  1.0000 -0.1585720675
C   C66       1.0  0.28397  0.23717  0.17110  1.0000 -0.1585720675
C   C67       1.0  0.71462  0.23942  0.00420  1.0000 -0.1686767685
C   C68       1.0  0.76058  0.28538  0.50420  1.0000 -0.1686767685
C   C69       1.0  0.73102  0.15762  0.03420  1.0000 -0.1585720675
C   C70       1.0  0.84238  0.26898  0.53420  1.0000 -0.1585720675
C   C71       1.0  0.81166  0.73366  0.64110  1.0000 -0.1686767685
C   C72       1.0  0.26634  0.18834  0.14110  1.0000 -0.1686767685
N   N1        1.0  0.01614  0.66994  0.45710  1.0000 -0.2592117411
N   N2        1.0  0.33006  0.98386  0.95710  1.0000 -0.2592117411
N   N3        1.0  0.72455  0.44395  0.94920  1.0000 -0.2592117411
N   N4        1.0  0.55605  0.27545  0.44920  1.0000 -0.2592117411
N   N5        1.0  0.92397  0.68997  0.54440  1.0000 -0.011660939
N   N6        1.0  0.31003  0.07603  0.04440  1.0000 -0.011660939
N   N7        1.0  0.96990  0.78050  0.24440  1.0000 -0.2533394965
N   N8        1.0  0.21950  0.03010  0.74440  1.0000 -0.2533394965
N   N9        1.0  0.80326  0.27926  0.02290  1.0000 -0.011660939
N   N10       1.0  0.72074  0.19674  0.52290  1.0000 -0.011660939
N   N11       1.0  0.66654  0.59814  0.76120  1.0000 -0.2592117411
N   N12       1.0  0.40186  0.33346  0.26120  1.0000 -0.2592117411
N   N13       1.0  0.86942  0.95382  0.14600  1.0000 -0.0181675582
N   N14       1.0  0.04618  0.13058  0.64600  1.0000 -0.0181675582
N   N15       1.0  0.73739  0.61459  0.67320  1.0000 -0.011660939
N   N16       1.0  0.38541  0.26261  0.17320  1.0000 -0.0181675582
N   N17       1.0  0.91881  0.09121  0.11590  1.0000 -0.1774178567
N   N18       1.0  0.90879  0.08119  0.61590  1.0000 -0.1774178567
N   N19       1.0  0.83497  0.59297  0.58350  1.0000 -0.188002103
N   N20       1.0  0.40703  0.16503  0.08350  1.0000 -0.188002103
N   N21       1.0  0.88111  0.61211  0.55280  1.0000 -0.188002103
N   N22       1.0  0.38789  0.11889  0.05280  1.0000 -0.188002103
N   N23       1.0  0.93428  0.01128  0.14560  1.0000 -0.1774178567
N   N24       1.0  0.98872  0.06572  0.64560  1.0000 -0.1774178567
O   O1        1.0  0.68806  0.61366  0.95560  1.0000 -0.5423432561
O   O2        1.0  0.38634  0.31194  0.45560  1.0000 -0.5423432561
O   O3        1.0  0.01102  0.60422  0.29440  1.0000 -0.5631271573
O   O4        1.0  0.39578  0.98898  0.79440  1.0000 -0.5631271573
O   O5        1.0  0.55700  0.77300  0.98370  1.0000 -0.5281885437
O   O6        1.0  0.22700  0.44300  0.48370  1.0000 -0.5281885437
O   O7        1.0  0.36140  0.47960  0.46070  1.0000 -0.5281885437
O   O8        1.0  0.52040  0.63860  0.96070  1.0000 -0.5281885437
O   O9        1.0  0.50610  0.62210  0.76340  1.0000 -0.5631271573
O   O10       1.0  0.37790  0.49390  0.26340  1.0000 -0.5631271573
O   O11       1.0  0.17378  0.64078  0.42890  1.0000 -0.5480082305
O   O12       1.0  0.35922  0.82622  0.92890  1.0000 -0.5480082305
O   O13       1.0  0.33136  0.81336  0.65930  1.0000 -0.5119462879
O   O14       1.0  0.18664  0.66864  0.15930  1.0000 -0.5119462879
O   O15       1.0  0.11366  0.49726  0.21100  1.0000 -0.5281885437
O   O16       1.0  0.50274  0.88634  0.71100  1.0000 -0.5281885437
O   O17       1.0  0.19648  0.54648  0.27575  1.0000 -0.2805617126
O   O18       1.0  0.45352  0.80352  0.77575  1.0000 -0.2805617126
