# DDEC6 charges by PACMAN v1.1 (https://github.com/mtap-research/PACMAN-charge/)
data_2023[Tb][nan]3[FSR]3
_chemical_formula_sum              "Tb4 H86 C102 N2 O32"
_cell_length_a       9.8353
_cell_length_b       13.8578
_cell_length_c       22.505
_cell_angle_alpha    83.589
_cell_angle_beta     78.689
_cell_angle_gamma    84.942

_symmetry_space_group_name_H-M    "P 1"
_symmetry_Int_Tables_number       1

loop_
  _symmetry_equiv_pos_as_xyz
  'x, y, z'

loop_
  _atom_site_type_symbol
  _atom_site_label
  _atom_site_symmetry_multiplicity
  _atom_site_fract_x
  _atom_site_fract_y
  _atom_site_fract_z
  _atom_site_occupancy
  _atom_site_charge
Tb  Tb1       1.0  0.74475  0.01202  0.00370  1.0000 2.0796831847
Tb  Tb2       1.0  0.25525  0.98798  0.99630  1.0000 2.0796831847
Tb  Tb3       1.0  0.48255  0.42382  0.40469  1.0000 2.0468579531
Tb  Tb4       1.0  0.51745  0.57618  0.59531  1.0000 2.0468579531
H   H1        1.0  0.80838  0.19744  0.04988  1.0000 0.335559845
H   H2        1.0  0.19162  0.80256  0.95012  1.0000 0.335559845
H   H3        1.0  0.92934  0.13941  0.04970  1.0000 0.3858624697
H   H4        1.0  0.07066  0.86059  0.95030  1.0000 0.3858624697
H   H5        1.0  0.59846  0.19775  0.02068  1.0000 0.335559845
H   H6        1.0  0.40154  0.80225  0.97932  1.0000 0.335559845
H   H7        1.0  0.51971  0.15255  0.98888  1.0000 0.3763605953
H   H8        1.0  0.48029  0.84745  0.01112  1.0000 0.3763605953
H   H9        1.0  0.27041  0.47498  0.32830  1.0000 0.3670768142
H   H10       1.0  0.72959  0.52502  0.67170  1.0000 0.3670768142
H   H11       1.0  0.22242  0.39394  0.36471  1.0000 0.3552936316
H   H12       1.0  0.77758  0.60606  0.63529  1.0000 0.3552936316
H   H13       1.0  0.20989  0.48393  0.54886  1.0000 0.111639752
H   H14       1.0  0.79011  0.51607  0.45114  1.0000 0.111639752
H   H15       1.0  0.00212  0.47245  0.60872  1.0000 0.1276653459
H   H16       1.0  0.99788  0.52755  0.39128  1.0000 0.1276653459
H   H17       1.0  0.95798  0.36260  0.62281  1.0000 0.1350619495
H   H18       1.0  0.04202  0.63740  0.37719  1.0000 0.1350619495
H   H19       1.0  0.88780  0.43663  0.57593  1.0000 0.1276653459
H   H20       1.0  0.11220  0.56337  0.42407  1.0000 0.1276653459
H   H21       1.0  0.41599  0.07259  0.44585  1.0000 0.1199666977
H   H22       1.0  0.58401  0.92741  0.55415  1.0000 0.1199666977
H   H23       1.0  0.77598  0.13490  0.33333  1.0000 0.1276653459
H   H24       1.0  0.22402  0.86510  0.66667  1.0000 0.1276653459
H   H25       1.0  0.48499  0.90781  0.44692  1.0000 0.111639752
H   H26       1.0  0.51501  0.09219  0.55308  1.0000 0.111639752
H   H27       1.0  0.84364  0.96921  0.33261  1.0000 0.111639752
H   H28       1.0  0.15636  0.03079  0.66739  1.0000 0.111639752
H   H29       1.0  0.67086  0.77632  0.42816  1.0000 0.1350619495
H   H30       1.0  0.32914  0.22368  0.57184  1.0000 0.1350619495
H   H31       1.0  0.79290  0.69703  0.35559  1.0000 0.1199666977
H   H32       1.0  0.20710  0.30297  0.64441  1.0000 0.1199666977
H   H33       1.0  0.03155  0.76391  0.28177  1.0000 0.1199666977
H   H34       1.0  0.96845  0.23609  0.71823  1.0000 0.1199666977
H   H35       1.0  0.64335  0.85882  0.26356  1.0000 0.1199666977
H   H36       1.0  0.35665  0.14118  0.73644  1.0000 0.1199666977
H   H37       1.0  0.11631  0.82946  0.18272  1.0000 0.1199666977
H   H38       1.0  0.88369  0.17054  0.81728  1.0000 0.1199666977
H   H39       1.0  0.72316  0.91805  0.16339  1.0000 0.1276653459
H   H40       1.0  0.27684  0.08195  0.83661  1.0000 0.1276653459
H   H41       1.0  0.81512  0.96002  0.85144  1.0000 0.1276653459
H   H42       1.0  0.18488  0.03998  0.14856  1.0000 0.1276653459
H   H43       1.0  0.45437  0.96621  0.79026  1.0000 0.1199666977
H   H44       1.0  0.54563  0.03379  0.20974  1.0000 0.1199666977
H   H45       1.0  0.93716  0.93916  0.75347  1.0000 0.1199666977
H   H46       1.0  0.06284  0.06084  0.24653  1.0000 0.1199666977
H   H47       1.0  0.57703  0.94875  0.69290  1.0000 0.1199666977
H   H48       1.0  0.42297  0.05125  0.30710  1.0000 0.1199666977
H   H49       1.0  0.99866  0.32667  0.48266  1.0000 0.1276653459
H   H50       1.0  0.00134  0.67333  0.51734  1.0000 0.1276653459
H   H51       1.0  0.02135  0.25498  0.54128  1.0000 0.1276653459
H   H52       1.0  0.97865  0.74502  0.45872  1.0000 0.1276653459
H   H53       1.0  0.15131  0.28138  0.48868  1.0000 0.1472211034
H   H54       1.0  0.84869  0.71862  0.51132  1.0000 0.1472211034
H   H55       1.0  0.90555  0.86262  0.64885  1.0000 0.1199666977
H   H56       1.0  0.09445  0.13738  0.35115  1.0000 0.1199666977
H   H57       1.0  0.91394  0.94964  0.56449  1.0000 0.1199666977
H   H58       1.0  0.08606  0.05036  0.43551  1.0000 0.1199666977
H   H59       1.0  0.74347  0.12102  0.67076  1.0000 0.1199666977
H   H60       1.0  0.25653  0.87898  0.32924  1.0000 0.1199666977
H   H61       1.0  0.84074  0.06982  0.49308  1.0000 0.1199666977
H   H62       1.0  0.15926  0.93018  0.50692  1.0000 0.1199666977
H   H63       1.0  0.64064  0.27218  0.64263  1.0000 0.1199666977
H   H64       1.0  0.35936  0.72782  0.35737  1.0000 0.1199666977
H   H65       1.0  0.74269  0.22294  0.46526  1.0000 0.1199666977
H   H66       1.0  0.25731  0.77706  0.53474  1.0000 0.1199666977
H   H67       1.0  0.94356  0.51882  0.28192  1.0000 0.111639752
H   H68       1.0  0.05644  0.48118  0.71808  1.0000 0.111639752
H   H69       1.0  0.61293  0.60298  0.20373  1.0000 0.1199666977
H   H70       1.0  0.38707  0.39702  0.79627  1.0000 0.1199666977
H   H71       1.0  0.08766  0.56146  0.19049  1.0000 0.1199666977
H   H72       1.0  0.91234  0.43854  0.80951  1.0000 0.1199666977
H   H73       1.0  0.75942  0.66442  0.11714  1.0000 0.1199666977
H   H74       1.0  0.24058  0.33558  0.88286  1.0000 0.1199666977
H   H75       1.0  0.02585  0.71992  0.07546  1.0000 0.1199666977
H   H76       1.0  0.97415  0.28008  0.92454  1.0000 0.1199666977
H   H77       1.0  0.17907  0.63549  0.01603  1.0000 0.111639752
H   H78       1.0  0.82093  0.36451  0.98397  1.0000 0.111639752
H   H79       1.0  0.96793  0.44833  0.09979  1.0000 0.111639752
H   H80       1.0  0.03207  0.55167  0.90021  1.0000 0.111639752
H   H81       1.0  0.34025  0.50098  0.99287  1.0000 0.1199666977
H   H82       1.0  0.65975  0.49902  0.00713  1.0000 0.1199666977
H   H83       1.0  0.01015  0.28384  0.08690  1.0000 0.111639752
H   H84       1.0  0.98985  0.71616  0.91310  1.0000 0.111639752
H   H85       1.0  0.38225  0.33693  0.98010  1.0000 0.1199666977
H   H86       1.0  0.61775  0.66307  0.01990  1.0000 0.1199666977
C   C1        1.0  0.54590  0.22560  0.38940  1.0000 0.5554034711
C   C2        1.0  0.45410  0.77440  0.61060  1.0000 0.5554034711
C   C3        1.0  0.19830  0.43260  0.52600  1.0000 0.3204430342
C   C4        1.0  0.80170  0.56740  0.47400  1.0000 0.3204430342
C   C5        1.0  0.97380  0.41740  0.59130  1.0000 -0.3734119683
C   C6        1.0  0.02620  0.58260  0.40870  1.0000 -0.3734119683
C   C7        1.0  0.58920  0.12050  0.38910  1.0000 -0.0341214137
C   C8        1.0  0.41080  0.87950  0.61090  1.0000 -0.0341214137
C   C9        1.0  0.50330  0.05210  0.42280  1.0000 -0.0930188596
C   C10       1.0  0.49670  0.94790  0.57720  1.0000 -0.0930188596
C   C11       1.0  0.71560  0.08860  0.35620  1.0000 -0.1064011063
C   C12       1.0  0.28440  0.91140  0.64380  1.0000 -0.1064011063
C   C13       1.0  0.54460  0.95360  0.42290  1.0000 -0.1512994281
C   C14       1.0  0.45540  0.04640  0.57710  1.0000 -0.1512994281
C   C15       1.0  0.75640  0.98960  0.35580  1.0000 -0.1586871792
C   C16       1.0  0.24360  0.01040  0.64420  1.0000 -0.1586871792
C   C17       1.0  0.66910  0.92010  0.38950  1.0000 0.1199666977
C   C18       1.0  0.33090  0.07990  0.61050  1.0000 0.1199666977
C   C19       1.0  0.70360  0.81380  0.39090  1.0000 -0.1290986637
C   C20       1.0  0.29640  0.18620  0.60910  1.0000 -0.1290986637
C   C21       1.0  0.77500  0.76490  0.34610  1.0000 -0.1390862837
C   C22       1.0  0.22500  0.23510  0.65390  1.0000 -0.1390862837
C   C23       1.0  0.82990  0.80490  0.28290  1.0000 0.1199666977
C   C24       1.0  0.17010  0.19510  0.71710  1.0000 0.1199666977
C   C25       1.0  0.96850  0.79640  0.25790  1.0000 -0.1586871792
C   C26       1.0  0.03150  0.20360  0.74210  1.0000 -0.1586871792
C   C27       1.0  0.73980  0.85150  0.24690  1.0000 -0.1390862837
C   C28       1.0  0.26020  0.14850  0.75310  1.0000 -0.1390862837
C   C29       1.0  0.01930  0.83410  0.19860  1.0000 -0.0930188596
C   C30       1.0  0.98070  0.16590  0.80140  1.0000 -0.0930188596
C   C31       1.0  0.78690  0.88730  0.18750  1.0000 -0.0930188596
C   C32       1.0  0.21310  0.11270  0.81250  1.0000 -0.0930188596
C   C33       1.0  0.92740  0.87840  0.16290  1.0000 -0.0341214137
C   C34       1.0  0.07260  0.12160  0.83710  1.0000 -0.0341214137
C   C35       1.0  0.98040  0.91660  0.09770  1.0000 0.6425458491
C   C36       1.0  0.01960  0.08340  0.90230  1.0000 0.6425458491
C   C37       1.0  0.54140  0.98270  0.89310  1.0000 0.6522105933
C   C38       1.0  0.45860  0.01730  0.10690  1.0000 0.6522105933
C   C39       1.0  0.62140  0.96650  0.83040  1.0000 -0.0379881101
C   C40       1.0  0.37860  0.03350  0.16960  1.0000 -0.0379881101
C   C41       1.0  0.76620  0.95760  0.81920  1.0000 -0.0847664996
C   C42       1.0  0.23380  0.04240  0.18080  1.0000 -0.0847664996
C   C43       1.0  0.55310  0.96170  0.78290  1.0000 -0.0930188596
C   C44       1.0  0.44690  0.03830  0.21710  1.0000 -0.0930188596
C   C45       1.0  0.83850  0.94510  0.76080  1.0000 -0.1512994281
C   C46       1.0  0.16150  0.05490  0.23920  1.0000 -0.1512994281
C   C47       1.0  0.62610  0.95030  0.72520  1.0000 -0.1512994281
C   C48       1.0  0.37390  0.04970  0.27480  1.0000 -0.1512994281
C   C49       1.0  0.06180  0.30630  0.51110  1.0000 -0.3396972417
C   C50       1.0  0.93820  0.69370  0.48890  1.0000 -0.3396972417
C   C51       1.0  0.77080  0.94100  0.71320  1.0000 0.1199666977
C   C52       1.0  0.22920  0.05900  0.28680  1.0000 0.1199666977
C   C53       1.0  0.85190  0.92300  0.65090  1.0000 -0.1390862837
C   C54       1.0  0.14810  0.07700  0.34910  1.0000 -0.1390862837
C   C55       1.0  0.86000  0.97850  0.59860  1.0000 -0.1586871792
C   C56       1.0  0.14000  0.02150  0.40140  1.0000 -0.1586871792
C   C57       1.0  0.79930  0.07760  0.58460  1.0000 0.1199666977
C   C58       1.0  0.20070  0.92240  0.41540  1.0000 0.1276653459
C   C59       1.0  0.74160  0.14050  0.62910  1.0000 -0.1512994281
C   C60       1.0  0.25840  0.85950  0.37090  1.0000 -0.1512994281
C   C61       1.0  0.79960  0.11080  0.52380  1.0000 -0.1715615093
C   C62       1.0  0.20040  0.88920  0.47620  1.0000 -0.1715615093
C   C63       1.0  0.68190  0.23090  0.61200  1.0000 -0.1014391282
C   C64       1.0  0.31810  0.76910  0.38800  1.0000 -0.1014391282
C   C65       1.0  0.74120  0.20220  0.50700  1.0000 -0.0930188596
C   C66       1.0  0.25880  0.79780  0.49300  1.0000 -0.0930188596
C   C67       1.0  0.68060  0.26320  0.55130  1.0000 -0.053380128
C   C68       1.0  0.31940  0.73680  0.44870  1.0000 -0.053380128
C   C69       1.0  0.61430  0.36080  0.53490  1.0000 0.6425458491
C   C70       1.0  0.38570  0.63920  0.46510  1.0000 0.6425458491
C   C71       1.0  0.66730  0.51480  0.30780  1.0000 0.5709519536
C   C72       1.0  0.33270  0.48520  0.69220  1.0000 0.5709519536
C   C73       1.0  0.76240  0.55130  0.25250  1.0000 -0.0379881101
C   C74       1.0  0.23760  0.44870  0.74750  1.0000 -0.0379881101
C   C75       1.0  0.90410  0.54390  0.24760  1.0000 -0.1014391282
C   C76       1.0  0.09590  0.45610  0.75240  1.0000 -0.1014391282
C   C77       1.0  0.71060  0.59600  0.20200  1.0000 -0.0930188596
C   C78       1.0  0.28940  0.40400  0.79800  1.0000 -0.0930188596
C   C79       1.0  0.98990  0.57220  0.19350  1.0000 -0.1512994281
C   C80       1.0  0.01010  0.42780  0.80650  1.0000 -0.1512994281
C   C81       1.0  0.79800  0.63020  0.14960  1.0000 -0.1512994281
C   C82       1.0  0.20200  0.36980  0.85040  1.0000 -0.1512994281
C   C83       1.0  0.93790  0.61590  0.14360  1.0000 0.1199666977
C   C84       1.0  0.06210  0.38410  0.85640  1.0000 0.1199666977
C   C85       1.0  0.03130  0.65160  0.08620  1.0000 -0.1290986637
C   C86       1.0  0.96870  0.34840  0.91380  1.0000 -0.1247951313
C   C87       1.0  0.12230  0.59840  0.04790  1.0000 -0.1512994281
C   C88       1.0  0.87770  0.40160  0.95210  1.0000 -0.1512994281
C   C89       1.0  0.14840  0.49290  0.04710  1.0000 0.1199666977
C   C90       1.0  0.85160  0.50710  0.95290  1.0000 0.1199666977
C   C91       1.0  0.05210  0.42620  0.07500  1.0000 -0.1390862837
C   C92       1.0  0.94790  0.57380  0.92500  1.0000 -0.1390862837
C   C93       1.0  0.27220  0.45710  0.01190  1.0000 -0.1512994281
C   C94       1.0  0.72780  0.54290  0.98810  1.0000 -0.1512994281
C   C95       1.0  0.07740  0.32790  0.06730  1.0000 -0.1014391282
C   C96       1.0  0.92260  0.67210  0.93270  1.0000 -0.1014391282
C   C97       1.0  0.29720  0.35920  0.00420  1.0000 -0.1064011063
C   C98       1.0  0.70280  0.64080  0.99580  1.0000 -0.1064011063
C   C99       1.0  0.19950  0.29250  0.03130  1.0000 -0.0379881101
C   C100      1.0  0.80050  0.70750  0.96870  1.0000 -0.0379881101
C   C101      1.0  0.21930  0.18850  0.01890  1.0000 0.5709519536
C   C102      1.0  0.78070  0.81150  0.98110  1.0000 0.5709519536
N   N1        1.0  0.08250  0.38850  0.54170  1.0000 0.0229372001
N   N2        1.0  0.91750  0.61150  0.45830  1.0000 0.0229372001
O   O1        1.0  0.84540  0.13960  0.04270  1.0000 -0.7768357992
O   O2        1.0  0.15460  0.86040  0.95730  1.0000 -0.7768357992
O   O3        1.0  0.60530  0.16500  0.98900  1.0000 -0.7614133954
O   O4        1.0  0.39470  0.83500  0.01100  1.0000 -0.7614133954
O   O5        1.0  0.89650  0.94380  0.06390  1.0000 -0.6623707414
O   O6        1.0  0.10350  0.05620  0.93610  1.0000 -0.6623707414
O   O7        1.0  0.60720  0.99560  0.93390  1.0000 -0.6866043955
O   O8        1.0  0.39280  0.00440  0.06610  1.0000 -0.6866043955
O   O9        1.0  0.11060  0.91920  0.08130  1.0000 -0.6689352989
O   O10       1.0  0.88940  0.08080  0.91870  1.0000 -0.6689352989
O   O11       1.0  0.41150  0.98020  0.90309  1.0000 -0.6623707414
O   O12       1.0  0.58850  0.01980  0.09691  1.0000 -0.6623707414
O   O13       1.0  0.29740  0.42480  0.35090  1.0000 -0.7614133954
O   O14       1.0  0.70260  0.57520  0.64910  1.0000 -0.7614133954
O   O15       1.0  0.29290  0.41300  0.48410  1.0000 -0.5609754323
O   O16       1.0  0.70710  0.58700  0.51590  1.0000 -0.5609754323
O   O17       1.0  0.71090  0.48970  0.35690  1.0000 -0.6314841111
O   O18       1.0  0.28910  0.51030  0.64310  1.0000 -0.6314841111
O   O19       1.0  0.54190  0.50360  0.30450  1.0000 -0.6431065201
O   O20       1.0  0.45810  0.49640  0.69550  1.0000 -0.6431065201
O   O21       1.0  0.60810  0.38420  0.47960  1.0000 -0.6866043955
O   O22       1.0  0.39190  0.61580  0.52040  1.0000 -0.6866043955
O   O23       1.0  0.57000  0.41410  0.57710  1.0000 -0.6689352989
O   O24       1.0  0.43000  0.58590  0.42290  1.0000 -0.6689352989
O   O25       1.0  0.62000  0.28880  0.35720  1.0000 -0.6194792091
O   O26       1.0  0.38000  0.71120  0.64280  1.0000 -0.6194792091
O   O27       1.0  0.43370  0.25270  0.42400  1.0000 -0.6431065201
O   O28       1.0  0.56630  0.74730  0.57600  1.0000 -0.6431065201
O   O29       1.0  0.32410  0.15890  0.98110  1.0000 -0.6314841111
O   O30       1.0  0.67590  0.84110  0.01890  1.0000 -0.6314841111
O   O31       1.0  0.13200  0.12910  0.04560  1.0000 -0.6314841111
O   O32       1.0  0.86800  0.87090  0.95440  1.0000 -0.6314841111
