# DDEC6 charges by PACMAN v1.1 (https://github.com/mtap-research/PACMAN-charge/)
data_2023[Dy][dia]3[FSR]2
_chemical_formula_sum              "Dy2 H14 C20 Cl6 O18"
_cell_length_a       9.8035
_cell_length_b       9.9091
_cell_length_c       10.907
_cell_angle_alpha    88.054
_cell_angle_beta     86.768
_cell_angle_gamma    72.351

_symmetry_space_group_name_H-M    "P 1"
_symmetry_Int_Tables_number       1

loop_
  _symmetry_equiv_pos_as_xyz
  'x, y, z'

loop_
  _atom_site_type_symbol
  _atom_site_label
  _atom_site_symmetry_multiplicity
  _atom_site_fract_x
  _atom_site_fract_y
  _atom_site_fract_z
  _atom_site_occupancy
  _atom_site_charge
Dy  Dy1       1.0  0.80421  0.71149  0.33506  1.0000 1.9636115975
Dy  Dy2       1.0  0.19579  0.28851  0.66494  1.0000 1.9636115975
H   H1        1.0  0.02963  0.45152  0.28146  1.0000 0.3587076611
H   H2        1.0  0.97037  0.54848  0.71854  1.0000 0.3587076611
H   H3        1.0  0.98881  0.43572  0.40281  1.0000 0.3834300584
H   H4        1.0  0.01119  0.56428  0.59719  1.0000 0.3834300584
H   H5        1.0  0.67500  0.83700  0.56400  1.0000 0.3510367818
H   H6        1.0  0.32500  0.16300  0.43600  1.0000 0.3510367818
H   H7        1.0  0.63021  0.96623  0.22845  1.0000 0.4179112858
H   H8        1.0  0.36979  0.03377  0.77155  1.0000 0.4179112858
H   H9        1.0  0.57280  0.85837  0.17723  1.0000 0.4390525616
H   H10       1.0  0.42720  0.14163  0.82277  1.0000 0.4390525616
H   H11       1.0  0.58390  0.06050  0.56080  1.0000 0.1231047011
H   H12       1.0  0.41610  0.93950  0.43920  1.0000 0.1231047011
H   H13       1.0  0.58196  0.05130  0.41671  1.0000 0.1085659511
H   H14       1.0  0.41804  0.94870  0.58329  1.0000 0.1085659511
C   C1        1.0  0.88370  0.52810  0.09120  1.0000 0.2688790731
C   C2        1.0  0.11630  0.47190  0.90880  1.0000 0.2688790731
C   C3        1.0  0.98650  0.85770  0.49810  1.0000 0.2523533053
C   C4        1.0  0.01350  0.14230  0.50190  1.0000 0.2523533053
C   C5        1.0  0.07890  0.02580  0.59710  1.0000 0.2578885652
C   C6        1.0  0.92110  0.97420  0.40290  1.0000 0.2578885652
C   C7        1.0  0.60600  0.42860  0.58500  1.0000 -0.1494436814
C   C8        1.0  0.39400  0.57140  0.41500  1.0000 -0.1435814404
C   C9        1.0  0.00400  0.39040  0.91470  1.0000 0.2390079259
C   C10       1.0  0.99600  0.60960  0.08530  1.0000 0.2390079259
C   C11       1.0  0.47150  0.40290  0.59050  1.0000 0.2688790731
C   C12       1.0  0.52850  0.59710  0.40950  1.0000 0.2688790731
C   C13       1.0  0.06700  0.88960  0.58830  1.0000 -0.1494436814
C   C14       1.0  0.93300  0.11040  0.41170  1.0000 -0.1494436814
C   C15       1.0  0.63950  0.52120  0.50060  1.0000 0.2390079259
C   C16       1.0  0.36050  0.47880  0.49940  1.0000 0.2390079259
C   C17       1.0  0.89470  0.42490  0.00270  1.0000 -0.1435814404
C   C18       1.0  0.10530  0.57510  0.99730  1.0000 -0.1435814404
C   C19       1.0  0.56680  0.00600  0.49430  1.0000 -0.070448199
C   C20       1.0  0.43320  0.99400  0.50570  1.0000 -0.070448199
Cl  Cl1       1.0  0.14510  0.76052  0.69478  1.0000 -0.0307814895
Cl  Cl2       1.0  0.85490  0.23948  0.30522  1.0000 -0.0307814895
Cl  Cl3       1.0  0.73044  0.34170  0.69139  1.0000 -0.0201529885
Cl  Cl4       1.0  0.26956  0.65830  0.30861  1.0000 -0.0201529885
Cl  Cl5       1.0  0.76435  0.33940  0.00882  1.0000 -0.0397366915
Cl  Cl6       1.0  0.23565  0.66060  0.99118  1.0000 -0.0397366915
O   O1        1.0  0.01020  0.49730  0.35130  1.0000 -0.7783655577
O   O2        1.0  0.98980  0.50270  0.64870  1.0000 -0.7783655577
O   O3        1.0  0.96270  0.74170  0.48600  1.0000 -0.4934332424
O   O4        1.0  0.03730  0.25830  0.51400  1.0000 -0.5013378017
O   O5        1.0  0.75610  0.55220  0.49180  1.0000 -0.5013378017
O   O6        1.0  0.24390  0.44780  0.50820  1.0000 -0.5013378017
O   O7        1.0  0.02680  0.29450  0.83510  1.0000 -0.4934332424
O   O8        1.0  0.97320  0.70550  0.16490  1.0000 -0.4934332424
O   O9        1.0  0.43430  0.32000  0.66540  1.0000 -0.5013378017
O   O10       1.0  0.56570  0.68000  0.33460  1.0000 -0.5013378017
O   O11       1.0  0.78960  0.56040  0.17580  1.0000 -0.5013378017
O   O12       1.0  0.21040  0.43960  0.82420  1.0000 -0.5013378017
O   O13       1.0  0.14580  0.06290  0.67820  1.0000 -0.5013378017
O   O14       1.0  0.85420  0.93710  0.32180  1.0000 -0.5013378017
O   O15       1.0  0.66420  0.85370  0.50000  1.0000 -0.5013378017
O   O16       1.0  0.33580  0.14630  0.50000  1.0000 -0.5013378017
O   O17       1.0  0.65670  0.87560  0.19800  1.0000 -0.794906085
O   O18       1.0  0.34330  0.12440  0.80200  1.0000 -0.794906085
