# DDEC6 charges by PACMAN v1.1 (https://github.com/mtap-research/PACMAN-charge/)
data_2024[Pr][sql]2[FSR]2
_chemical_formula_sum              "Pr4 H40 C38 N4 O32"
_cell_length_a       6.0396
_cell_length_b       26.7827
_cell_length_c       11.483
_cell_angle_alpha    90
_cell_angle_beta     101.974
_cell_angle_gamma    90

_symmetry_space_group_name_H-M    "P 1"
_symmetry_Int_Tables_number       1

loop_
  _symmetry_equiv_pos_as_xyz
  'x, y, z'

loop_
  _atom_site_type_symbol
  _atom_site_label
  _atom_site_symmetry_multiplicity
  _atom_site_fract_x
  _atom_site_fract_y
  _atom_site_fract_z
  _atom_site_occupancy
  _atom_site_charge
Pr  Pr1       1.0  0.95699  0.43761  0.61257  1.0000 1.9923004023
Pr  Pr2       1.0  0.04301  0.93761  0.38743  1.0000 1.9923004023
Pr  Pr3       1.0  0.04301  0.56239  0.38743  1.0000 1.9923004023
Pr  Pr4       1.0  0.95699  0.06239  0.61257  1.0000 1.9923004023
H   H1        1.0  0.13362  0.59397  0.80751  1.0000 0.1396326422
H   H2        1.0  0.86638  0.09397  0.19249  1.0000 0.1396326422
H   H3        1.0  0.86638  0.40603  0.19249  1.0000 0.1396326422
H   H4        1.0  0.13362  0.90603  0.80751  1.0000 0.1396326422
H   H5        1.0  0.28538  0.60141  0.00780  1.0000 0.1181650254
H   H6        1.0  0.71462  0.10141  0.99220  1.0000 0.1181650254
H   H7        1.0  0.71462  0.39859  0.99220  1.0000 0.1181650254
H   H8        1.0  0.28538  0.89859  0.00780  1.0000 0.1181650254
H   H9        1.0  0.82345  0.52716  0.97766  1.0000 0.1181650254
H   H10       1.0  0.17655  0.02716  0.02234  1.0000 0.1181650254
H   H11       1.0  0.17655  0.47284  0.02234  1.0000 0.1181650254
H   H12       1.0  0.82345  0.97284  0.97766  1.0000 0.1181650254
H   H13       1.0  0.47883  0.29812  0.63108  1.0000 0.1466109864
H   H14       1.0  0.52117  0.79812  0.36892  1.0000 0.1466109864
H   H15       1.0  0.52117  0.70188  0.36892  1.0000 0.1466109864
H   H16       1.0  0.47883  0.20188  0.63108  1.0000 0.1466109864
H   H17       1.0  0.62107  0.29544  0.76137  1.0000 0.1258949302
H   H18       1.0  0.37893  0.79544  0.23863  1.0000 0.1258949302
H   H19       1.0  0.37893  0.70456  0.23863  1.0000 0.1258949302
H   H20       1.0  0.62107  0.20456  0.76137  1.0000 0.1258949302
H   H21       1.0  0.89864  0.25000  0.69036  1.0000 0.0930962897
H   H22       1.0  0.10136  0.75000  0.30964  1.0000 0.0930962897
H   H23       1.0  0.74064  0.25000  0.56367  1.0000 0.1023753844
H   H24       1.0  0.25936  0.75000  0.43633  1.0000 0.1023753844
H   H25       1.0  0.41500  0.40600  0.74100  1.0000 0.3440742355
H   H26       1.0  0.58500  0.90600  0.25900  1.0000 0.3455616645
H   H27       1.0  0.58500  0.59400  0.25900  1.0000 0.3455616645
H   H28       1.0  0.41500  0.09400  0.74100  1.0000 0.3440742355
H   H29       1.0  0.32800  0.42500  0.82300  1.0000 0.2781698219
H   H30       1.0  0.67200  0.92500  0.17700  1.0000 0.2781698219
H   H31       1.0  0.67200  0.57500  0.17700  1.0000 0.2781698219
H   H32       1.0  0.32800  0.07500  0.82300  1.0000 0.2781698219
H   H33       1.0  0.32600  0.42200  0.46200  1.0000 0.3440742355
H   H34       1.0  0.67400  0.92200  0.53800  1.0000 0.3440742355
H   H35       1.0  0.67400  0.57800  0.53800  1.0000 0.3440742355
H   H36       1.0  0.32600  0.07800  0.46200  1.0000 0.3440742355
H   H37       1.0  0.11100  0.41500  0.43700  1.0000 0.2711953334
H   H38       1.0  0.88900  0.91500  0.56300  1.0000 0.2711953334
H   H39       1.0  0.88900  0.58500  0.56300  1.0000 0.2711953334
H   H40       1.0  0.11100  0.08500  0.43700  1.0000 0.2711953334
C   C1        1.0  0.29360  0.55130  0.63790  1.0000 0.6278810101
C   C2        1.0  0.70640  0.05130  0.36210  1.0000 0.6278810101
C   C3        1.0  0.70640  0.44870  0.36210  1.0000 0.6278810101
C   C4        1.0  0.29360  0.94870  0.63790  1.0000 0.6248040906
C   C5        1.0  0.39380  0.55390  0.77000  1.0000 0.0275716874
C   C6        1.0  0.60620  0.05390  0.23000  1.0000 0.0275716874
C   C7        1.0  0.60620  0.44610  0.23000  1.0000 0.0275716874
C   C8        1.0  0.39380  0.94610  0.77000  1.0000 0.0275716874
C   C9        1.0  0.27360  0.57990  0.84000  1.0000 -0.1534606107
C   C10       1.0  0.72640  0.07990  0.16000  1.0000 -0.1534606107
C   C11       1.0  0.72640  0.42010  0.16000  1.0000 -0.1534606107
C   C12       1.0  0.27360  0.92010  0.84000  1.0000 -0.1534606107
C   C13       1.0  0.36780  0.58450  0.96010  1.0000 0.0772116742
C   C14       1.0  0.63220  0.08450  0.03990  1.0000 0.0772116742
C   C15       1.0  0.63220  0.41550  0.03990  1.0000 0.0772116742
C   C16       1.0  0.36780  0.91550  0.96010  1.0000 0.0772116742
C   C17       1.0  0.68330  0.54050  0.94270  1.0000 0.067380106
C   C18       1.0  0.31670  0.04050  0.05730  1.0000 0.067380106
C   C19       1.0  0.31670  0.45950  0.05730  1.0000 0.067380106
C   C20       1.0  0.68330  0.95950  0.94270  1.0000 0.067380106
C   C21       1.0  0.60250  0.53280  0.82200  1.0000 -0.091001466
C   C22       1.0  0.39750  0.03280  0.17800  1.0000 -0.091001466
C   C23       1.0  0.39750  0.46720  0.17800  1.0000 -0.091001466
C   C24       1.0  0.60250  0.96720  0.82200  1.0000 -0.091001466
C   C25       1.0  0.73480  0.50240  0.75230  1.0000 0.5638364665
C   C26       1.0  0.26520  0.00240  0.24770  1.0000 0.5638364665
C   C27       1.0  0.26520  0.49760  0.24770  1.0000 0.5638364665
C   C28       1.0  0.73480  0.99760  0.75230  1.0000 0.5638364665
C   C29       1.0  0.75150  0.34420  0.65810  1.0000 0.6278810101
C   C30       1.0  0.24850  0.84420  0.34190  1.0000 0.6278810101
C   C31       1.0  0.24850  0.65580  0.34190  1.0000 0.6278810101
C   C32       1.0  0.75150  0.15580  0.65810  1.0000 0.6278810101
C   C33       1.0  0.63180  0.29690  0.67830  1.0000 -0.3240683936
C   C34       1.0  0.36820  0.79690  0.32170  1.0000 -0.3240683936
C   C35       1.0  0.36820  0.70310  0.32170  1.0000 -0.3240683936
C   C36       1.0  0.63180  0.20310  0.67830  1.0000 -0.3240683936
C   C37       1.0  0.74200  0.25000  0.64830  1.0000 -0.080063548
C   C38       1.0  0.25800  0.75000  0.35170  1.0000 -0.080063548
N   N1        1.0  0.57030  0.56620  0.01150  1.0000 -0.2069968284
N   N2        1.0  0.42970  0.06620  0.98850  1.0000 -0.2069968284
N   N3        1.0  0.42970  0.43380  0.98850  1.0000 -0.2069968284
N   N4        1.0  0.57030  0.93380  0.01150  1.0000 -0.2069968284
O   O1        1.0  0.15660  0.51679  0.59730  1.0000 -0.7093979009
O   O2        1.0  0.84340  0.01679  0.40270  1.0000 -0.7093979009
O   O3        1.0  0.84340  0.48321  0.40270  1.0000 -0.7093979009
O   O4        1.0  0.15660  0.98321  0.59730  1.0000 -0.7093979009
O   O5        1.0  0.33170  0.58670  0.57430  1.0000 -0.5689467677
O   O6        1.0  0.66830  0.08670  0.42570  1.0000 -0.5689467677
O   O7        1.0  0.66830  0.41330  0.42570  1.0000 -0.5689467677
O   O8        1.0  0.33170  0.91330  0.57430  1.0000 -0.5689467677
O   O9        1.0  0.29360  0.41530  0.75430  1.0000 -0.7449540385
O   O10       1.0  0.70640  0.91530  0.24570  1.0000 -0.7455344089
O   O11       1.0  0.70640  0.58470  0.24570  1.0000 -0.7455344089
O   O12       1.0  0.29360  0.08470  0.75430  1.0000 -0.7449540385
O   O13       1.0  0.66730  0.50053  0.63970  1.0000 -0.5910309293
O   O14       1.0  0.33270  0.00053  0.36030  1.0000 -0.5910309293
O   O15       1.0  0.33270  0.49947  0.36030  1.0000 -0.5910309293
O   O16       1.0  0.66730  0.99947  0.63970  1.0000 -0.5910309293
O   O17       1.0  0.22340  0.40980  0.48830  1.0000 -0.6965666749
O   O18       1.0  0.77660  0.90980  0.51170  1.0000 -0.6965666749
O   O19       1.0  0.77660  0.59020  0.51170  1.0000 -0.6965666749
O   O20       1.0  0.22340  0.09020  0.48830  1.0000 -0.6965666749
O   O21       1.0  0.90680  0.47900  0.80440  1.0000 -0.6139655002
O   O22       1.0  0.09320  0.97900  0.19560  1.0000 -0.6139655002
O   O23       1.0  0.09320  0.52100  0.19560  1.0000 -0.6139655002
O   O24       1.0  0.90680  0.02100  0.80440  1.0000 -0.6139655002
O   O25       1.0  0.67620  0.38500  0.68830  1.0000 -0.6241574921
O   O26       1.0  0.32380  0.88500  0.31170  1.0000 -0.6241574921
O   O27       1.0  0.32380  0.61500  0.31170  1.0000 -0.6241574921
O   O28       1.0  0.67620  0.11500  0.68830  1.0000 -0.6241574921
O   O29       1.0  0.92250  0.34400  0.61390  1.0000 -0.6028863527
O   O30       1.0  0.07750  0.84400  0.38610  1.0000 -0.6028863527
O   O31       1.0  0.07750  0.65600  0.38610  1.0000 -0.6028863527
O   O32       1.0  0.92250  0.15600  0.61390  1.0000 -0.6028863527
