# DDEC6 charges by PACMAN v1.1 (https://github.com/mtap-research/PACMAN-charge/)
data_2024[Mn][scu]3[FSR]1
_chemical_formula_sum              "Mn4 H28 C48 N24 O18"
_cell_length_a       12.7693
_cell_length_b       12.7693
_cell_length_c       14.1718
_cell_angle_alpha    64.9852
_cell_angle_beta     115.015
_cell_angle_gamma    119.75

_symmetry_space_group_name_H-M    "P 1"
_symmetry_Int_Tables_number       1

loop_
  _symmetry_equiv_pos_as_xyz
  'x, y, z'

loop_
  _atom_site_type_symbol
  _atom_site_label
  _atom_site_symmetry_multiplicity
  _atom_site_fract_x
  _atom_site_fract_y
  _atom_site_fract_z
  _atom_site_occupancy
  _atom_site_charge
Mn  Mn1       1.0  0.75732  0.79160  0.60755  1.0000 0.9198121689
Mn  Mn2       1.0  0.79160  0.75732  0.89245  1.0000 0.9198121689
Mn  Mn3       1.0  0.24268  0.20840  0.39245  1.0000 0.9198121689
Mn  Mn4       1.0  0.20840  0.24268  0.10755  1.0000 0.9198121689
H   H1        1.0  0.68780  0.61020  0.77670  1.0000 0.3712381832
H   H2        1.0  0.61020  0.68780  0.72330  1.0000 0.3712381832
H   H3        1.0  0.31220  0.38980  0.22330  1.0000 0.3712381832
H   H4        1.0  0.38980  0.31220  0.27670  1.0000 0.3712381832
H   H5        1.0  0.88290  0.38230  0.71580  1.0000 0.1394055187
H   H6        1.0  0.38230  0.88290  0.78420  1.0000 0.1394055187
H   H7        1.0  0.11710  0.61770  0.28420  1.0000 0.1394055187
H   H8        1.0  0.61770  0.11710  0.21580  1.0000 0.1394055187
H   H9        1.0  0.62430  0.08290  0.52610  1.0000 0.1394055187
H   H10       1.0  0.08290  0.62430  0.97390  1.0000 0.1394055187
H   H11       1.0  0.37570  0.91710  0.47390  1.0000 0.1394055187
H   H12       1.0  0.91710  0.37570  0.02610  1.0000 0.1394055187
H   H13       1.0  0.94400  0.22400  0.92580  1.0000 0.1308770721
H   H14       1.0  0.22400  0.94400  0.57420  1.0000 0.1308770721
H   H15       1.0  0.05600  0.77600  0.07420  1.0000 0.1308770721
H   H16       1.0  0.77600  0.05600  0.42580  1.0000 0.1308770721
H   H17       1.0  0.18290  0.14150  0.90060  1.0000 0.1092516258
H   H18       1.0  0.14150  0.18290  0.59940  1.0000 0.1092516258
H   H19       1.0  0.81710  0.85850  0.09940  1.0000 0.1092516258
H   H20       1.0  0.85850  0.81710  0.40060  1.0000 0.1092516258
H   H21       1.0  0.78680  0.51080  0.69810  1.0000 0.1308770721
H   H22       1.0  0.51080  0.78680  0.80190  1.0000 0.1308770721
H   H23       1.0  0.21320  0.48920  0.30190  1.0000 0.1308770721
H   H24       1.0  0.48920  0.21320  0.19810  1.0000 0.1308770721
H   H25       1.0  0.60530  0.64330  0.40870  1.0000 0.1190442912
H   H26       1.0  0.64330  0.60530  0.09130  1.0000 0.1190442912
H   H27       1.0  0.39470  0.35670  0.59130  1.0000 0.1190442912
H   H28       1.0  0.35670  0.39470  0.90870  1.0000 0.1190442912
C   C1        1.0  0.84591  0.21089  0.71211  1.0000 0.1308770721
C   C2        1.0  0.21089  0.84591  0.78789  1.0000 0.1308770721
C   C3        1.0  0.15409  0.78911  0.28789  1.0000 0.1308770721
C   C4        1.0  0.78911  0.15409  0.21211  1.0000 0.1308770721
C   C5        1.0  0.82740  0.31980  0.68060  1.0000 -0.2626062819
C   C6        1.0  0.31980  0.82740  0.81940  1.0000 -0.2626062819
C   C7        1.0  0.17260  0.68020  0.31940  1.0000 -0.2626062819
C   C8        1.0  0.68020  0.17260  0.18060  1.0000 -0.2626062819
C   C9        1.0  0.72437  0.33443  0.59537  1.0000 0.1308770721
C   C10       1.0  0.33443  0.72437  0.90463  1.0000 0.1308770721
C   C11       1.0  0.27563  0.66557  0.40463  1.0000 0.1308770721
C   C12       1.0  0.66557  0.27563  0.09537  1.0000 0.1308770721
C   C13       1.0  0.64558  0.24522  0.53818  1.0000 -0.0712791808
C   C14       1.0  0.24522  0.64558  0.96182  1.0000 -0.0712791808
C   C15       1.0  0.35442  0.75478  0.46182  1.0000 -0.0712791808
C   C16       1.0  0.75478  0.35442  0.03818  1.0000 -0.0712791808
C   C17       1.0  0.67245  0.13995  0.56755  1.0000 -0.1358198562
C   C18       1.0  0.13995  0.67245  0.93245  1.0000 -0.1358198562
C   C19       1.0  0.32755  0.86005  0.43245  1.0000 -0.1358198562
C   C20       1.0  0.86005  0.32755  0.06755  1.0000 -0.1358198562
C   C21       1.0  0.76886  0.11894  0.65686  1.0000 -0.0760878511
C   C22       1.0  0.11894  0.76886  0.84314  1.0000 -0.0760878511
C   C23       1.0  0.23114  0.88106  0.34314  1.0000 -0.0760878511
C   C24       1.0  0.88106  0.23114  0.15686  1.0000 -0.0712791808
C   C25       1.0  0.78056  0.99404  0.69526  1.0000 0.5983130596
C   C26       1.0  0.99404  0.78056  0.80474  1.0000 0.5983130596
C   C27       1.0  0.21944  0.00596  0.30474  1.0000 0.5983130596
C   C28       1.0  0.00596  0.21944  0.19526  1.0000 0.5983130596
C   C29       1.0  0.52569  0.24951  0.45099  1.0000 0.5815860144
C   C30       1.0  0.24951  0.52569  0.04901  1.0000 0.5815860144
C   C31       1.0  0.47431  0.75049  0.54901  1.0000 0.5815860144
C   C32       1.0  0.75049  0.47431  0.95099  1.0000 0.5815860144
C   C33       1.0  0.98600  0.20500  0.89930  1.0000 0.1092516258
C   C34       1.0  0.20500  0.98600  0.60070  1.0000 0.1092516258
C   C35       1.0  0.01400  0.79500  0.10070  1.0000 0.1092516258
C   C36       1.0  0.79500  0.01400  0.39930  1.0000 0.1092516258
C   C37       1.0  0.11400  0.16000  0.88340  1.0000 0.1394055187
C   C38       1.0  0.16000  0.11400  0.61660  1.0000 0.1394055187
C   C39       1.0  0.88600  0.84000  0.11660  1.0000 0.1394055187
C   C40       1.0  0.84000  0.88600  0.38340  1.0000 0.1394055187
C   C41       1.0  0.74136  0.52184  0.62576  1.0000 0.1092516258
C   C42       1.0  0.52184  0.74136  0.87424  1.0000 0.1092516258
C   C43       1.0  0.25864  0.47816  0.37424  1.0000 0.1092516258
C   C44       1.0  0.47816  0.25864  0.12576  1.0000 0.1092516258
C   C45       1.0  0.64200  0.59160  0.46780  1.0000 0.1394055187
C   C46       1.0  0.59160  0.64200  0.03220  1.0000 0.1394055187
C   C47       1.0  0.35800  0.40840  0.53220  1.0000 0.1394055187
C   C48       1.0  0.40840  0.35800  0.96780  1.0000 0.1394055187
N   N1        1.0  0.95078  0.19502  0.80028  1.0000 0.1308770721
N   N2        1.0  0.19502  0.95078  0.69972  1.0000 0.1308770721
N   N3        1.0  0.04922  0.80498  0.19972  1.0000 0.1190442912
N   N4        1.0  0.80498  0.04922  0.30028  1.0000 0.1190442912
N   N5        1.0  0.03240  0.16520  0.78780  1.0000 -0.2346630284
N   N6        1.0  0.16520  0.03240  0.71220  1.0000 -0.2346630284
N   N7        1.0  0.96760  0.83480  0.21220  1.0000 -0.2346630284
N   N8        1.0  0.83480  0.96760  0.28780  1.0000 -0.2346630284
N   N9        1.0  0.08985  0.18395  0.95515  1.0000 -0.3224388548
N   N10       1.0  0.18395  0.08985  0.54485  1.0000 -0.3224388548
N   N11       1.0  0.91015  0.81605  0.04485  1.0000 -0.3224388548
N   N12       1.0  0.81605  0.91015  0.45515  1.0000 -0.3224388548
N   N13       1.0  0.70262  0.44438  0.56662  1.0000 0.1190442912
N   N14       1.0  0.44438  0.70262  0.93338  1.0000 0.1190442912
N   N15       1.0  0.29738  0.55562  0.43338  1.0000 0.1190442912
N   N16       1.0  0.55562  0.29738  0.06662  1.0000 0.1190442912
N   N17       1.0  0.63736  0.48824  0.46386  1.0000 -0.2223814317
N   N18       1.0  0.48824  0.63736  0.03614  1.0000 -0.2223814317
N   N19       1.0  0.36264  0.51176  0.53614  1.0000 -0.2223814317
N   N20       1.0  0.51176  0.36264  0.96386  1.0000 -0.2223814317
N   N21       1.0  0.70487  0.61633  0.56567  1.0000 -0.3315415793
N   N22       1.0  0.61633  0.70487  0.93433  1.0000 -0.3315415793
N   N23       1.0  0.29513  0.38367  0.43433  1.0000 -0.3315415793
N   N24       1.0  0.38367  0.29513  0.06567  1.0000 -0.3315415793
O   O1        1.0  0.77948  0.93412  0.79211  1.0000 -0.5640559085
O   O2        1.0  0.93412  0.77948  0.70789  1.0000 -0.5640559085
O   O3        1.0  0.22052  0.06588  0.20789  1.0000 -0.5640559085
O   O4        1.0  0.06588  0.22052  0.29211  1.0000 -0.5640559085
O   O5        1.0  0.78498  0.96082  0.62707  1.0000 -0.5495845713
O   O6        1.0  0.96082  0.78498  0.87293  1.0000 -0.5495845713
O   O7        1.0  0.21502  0.03918  0.37293  1.0000 -0.5495845713
O   O8        1.0  0.03918  0.21502  0.12707  1.0000 -0.5495845713
O   O9        1.0  0.52238  0.27262  0.35539  1.0000 -0.5495845713
O   O10       1.0  0.27262  0.52238  0.14461  1.0000 -0.5495845713
O   O11       1.0  0.47762  0.72738  0.64461  1.0000 -0.5495845713
O   O12       1.0  0.72738  0.47762  0.85539  1.0000 -0.5495845713
O   O13       1.0  0.43688  0.22272  0.48558  1.0000 -0.5775944479
O   O14       1.0  0.22272  0.43688  0.01442  1.0000 -0.5775944479
O   O15       1.0  0.56312  0.77728  0.51442  1.0000 -0.5775944479
O   O16       1.0  0.77728  0.56312  0.98558  1.0000 -0.5775944479
O   O17       1.0  0.67960  0.67960  0.75000  1.0000 -0.6928970703
O   O18       1.0  0.32040  0.32040  0.25000  1.0000 -0.6928970703
