# DDEC6 charges by PACMAN v1.1 (https://github.com/mtap-research/PACMAN-charge/)
data_2024[Zn][ths]3[FSR]3
_chemical_formula_sum              "Zn2 H28 C44 N6 Cl2 O4"
_cell_length_a       7.59467
_cell_length_b       7.59467
_cell_length_c       21.923
_cell_angle_alpha    83.7709
_cell_angle_beta     96.2291
_cell_angle_gamma    104.081

_symmetry_space_group_name_H-M    "P 1"
_symmetry_Int_Tables_number       1

loop_
  _symmetry_equiv_pos_as_xyz
  'x, y, z'

loop_
  _atom_site_type_symbol
  _atom_site_label
  _atom_site_symmetry_multiplicity
  _atom_site_fract_x
  _atom_site_fract_y
  _atom_site_fract_z
  _atom_site_occupancy
  _atom_site_charge
Zn  Zn1       1.0  0.35984  0.01898  0.29116  1.0000 0.6728698173
Zn  Zn2       1.0  0.98102  0.64016  0.79116  1.0000 0.6728698173
H   H1        1.0  0.17860  0.65340  0.11790  1.0000 0.110840761
H   H2        1.0  0.34660  0.82140  0.61790  1.0000 0.110840761
H   H3        1.0  0.04270  0.38030  0.07690  1.0000 0.110840761
H   H4        1.0  0.61970  0.95730  0.57690  1.0000 0.110840761
H   H5        1.0  0.87780  0.17700  0.24220  1.0000 0.1194691741
H   H6        1.0  0.82300  0.12220  0.74220  1.0000 0.1194691741
H   H7        1.0  0.99810  0.45610  0.27860  1.0000 0.1194691741
H   H8        1.0  0.54390  0.00190  0.77860  1.0000 0.1194691741
H   H9        1.0  0.98080  0.12560  0.04810  1.0000 0.1194691741
H   H10       1.0  0.87440  0.01920  0.54810  1.0000 0.1194691741
H   H11       1.0  0.74210  0.92990  0.20450  1.0000 0.1301478231
H   H12       1.0  0.07010  0.25790  0.70450  1.0000 0.1301478231
H   H13       1.0  0.97590  0.06670  0.95110  1.0000 0.1380809704
H   H14       1.0  0.93330  0.02410  0.45110  1.0000 0.1380809704
H   H15       1.0  0.01640  0.98500  0.85700  1.0000 0.1194691741
H   H16       1.0  0.01500  0.98360  0.35700  1.0000 0.1194691741
H   H17       1.0  0.82940  0.47180  0.91050  1.0000 0.110840761
H   H18       1.0  0.52820  0.17060  0.41050  1.0000 0.110840761
H   H19       1.0  0.78190  0.54850  0.00500  1.0000 0.1380809704
H   H20       1.0  0.45150  0.21810  0.50500  1.0000 0.1380809704
H   H21       1.0  0.51930  0.43630  0.10470  1.0000 0.1301478231
H   H22       1.0  0.56370  0.48070  0.60470  1.0000 0.1301478231
H   H23       1.0  0.39190  0.17290  0.16090  1.0000 0.1194691741
H   H24       1.0  0.82710  0.60810  0.66090  1.0000 0.1194691741
H   H25       1.0  0.49460  0.41920  0.31040  1.0000 0.110840761
H   H26       1.0  0.58080  0.50540  0.81040  1.0000 0.110840761
H   H27       1.0  0.64430  0.67970  0.26030  1.0000 0.1453713336
H   H28       1.0  0.32030  0.35570  0.76030  1.0000 0.1453713336
C   C1        1.0  0.19170  0.75750  0.22520  1.0000 0.533785955
C   C2        1.0  0.24250  0.80830  0.72520  1.0000 0.533785955
C   C3        1.0  0.10220  0.58840  0.20220  1.0000 -0.0712522707
C   C4        1.0  0.41160  0.89780  0.70220  1.0000 -0.0712522707
C   C5        1.0  0.11490  0.55850  0.14320  1.0000 -0.0844020425
C   C6        1.0  0.44150  0.88510  0.64320  1.0000 -0.0844020425
C   C7        1.0  0.03650  0.39130  0.11840  1.0000 -0.1684107971
C   C8        1.0  0.60870  0.96350  0.61840  1.0000 -0.1684107971
C   C9        1.0  0.95040  0.24360  0.15520  1.0000 0.0686086108
C   C10       1.0  0.75640  0.04960  0.65520  1.0000 0.0686086108
C   C11       1.0  0.93700  0.27240  0.21600  1.0000 -0.1375785908
C   C12       1.0  0.72760  0.06300  0.71600  1.0000 -0.1375785908
C   C13       1.0  0.01080  0.44140  0.23790  1.0000 -0.0915698922
C   C14       1.0  0.55860  0.98920  0.73790  1.0000 -0.0915698922
C   C15       1.0  0.87820  0.06360  0.13130  1.0000 0.1194691741
C   C16       1.0  0.93640  0.12180  0.63130  1.0000 0.1194691741
C   C17       1.0  0.91170  0.03210  0.07260  1.0000 -0.2330024532
C   C18       1.0  0.96790  0.08830  0.57260  1.0000 -0.2330024532
C   C19       1.0  0.84200  0.86100  0.05030  1.0000 0.1982522243
C   C20       1.0  0.13900  0.15800  0.55030  1.0000 0.1982522243
C   C21       1.0  0.71020  0.75100  0.14070  1.0000 0.2154176244
C   C22       1.0  0.24900  0.28980  0.64070  1.0000 0.2154176244
C   C23       1.0  0.77110  0.91590  0.16550  1.0000 -0.2021420887
C   C24       1.0  0.08410  0.22890  0.66550  1.0000 -0.2021420887
C   C25       1.0  0.87310  0.81930  0.98890  1.0000 0.0865490296
C   C26       1.0  0.18070  0.12690  0.48890  1.0000 0.0865490296
C   C27       1.0  0.94310  0.94430  0.94370  1.0000 -0.1858791104
C   C28       1.0  0.05570  0.05690  0.44370  1.0000 -0.1858791104
C   C29       1.0  0.96730  0.89470  0.88670  1.0000 0.110840761
C   C30       1.0  0.10530  0.03270  0.38670  1.0000 0.110840761
C   C31       1.0  0.85690  0.59390  0.91830  1.0000 0.0569197991
C   C32       1.0  0.40610  0.14310  0.41830  1.0000 0.0569197991
C   C33       1.0  0.82980  0.63980  0.97540  1.0000 -0.1784091484
C   C34       1.0  0.36020  0.17020  0.47540  1.0000 -0.1684107971
C   C35       1.0  0.60910  0.58730  0.17770  1.0000 0.102711969
C   C36       1.0  0.41270  0.39090  0.67770  1.0000 0.102711969
C   C37       1.0  0.52270  0.43330  0.14730  1.0000 -0.1784091484
C   C38       1.0  0.56670  0.47730  0.64730  1.0000 -0.1784091484
C   C39       1.0  0.44240  0.27700  0.18130  1.0000 0.082791523
C   C40       1.0  0.72300  0.55760  0.68130  1.0000 0.082791523
C   C41       1.0  0.50530  0.41990  0.26850  1.0000 0.0686086108
C   C42       1.0  0.58010  0.49470  0.76850  1.0000 0.0686086108
C   C43       1.0  0.59400  0.57800  0.23860  1.0000 -0.153159543
C   C44       1.0  0.42200  0.40600  0.73860  1.0000 -0.153159543
N   N1        1.0  0.74330  0.72150  0.08540  1.0000 -0.3201454422
N   N2        1.0  0.27850  0.25670  0.58540  1.0000 -0.3201454422
N   N3        1.0  0.92310  0.72390  0.87320  1.0000 -0.220401465
N   N4        1.0  0.27610  0.07690  0.37320  1.0000 -0.220401465
N   N5        1.0  0.43320  0.26660  0.24180  1.0000 -0.220401465
N   N6        1.0  0.73340  0.56680  0.74180  1.0000 -0.220401465
Cl  Cl1       1.0  0.63097  0.95525  0.32872  1.0000 -0.5601782045
Cl  Cl2       1.0  0.04475  0.36903  0.82872  1.0000 -0.5601782045
O   O1        1.0  0.15340  0.79720  0.27700  1.0000 -0.5138810119
O   O2        1.0  0.20280  0.84660  0.77700  1.0000 -0.5138810119
O   O3        1.0  0.31070  0.86850  0.19750  1.0000 -0.5251394353
O   O4        1.0  0.13150  0.68930  0.69750  1.0000 -0.5251394353
