# DDEC6 charges by PACMAN v1.1 (https://github.com/mtap-research/PACMAN-charge/)
data_2024[Cu][srs]3[FSR]1
_chemical_formula_sum              "Cu4 H68 C80 N20 O20"
_cell_length_a       7.3115
_cell_length_b       16.1712
_cell_length_c       20.4372
_cell_angle_alpha    90
_cell_angle_beta     90
_cell_angle_gamma    90

_symmetry_space_group_name_H-M    "P 1"
_symmetry_Int_Tables_number       1

loop_
  _symmetry_equiv_pos_as_xyz
  'x, y, z'

loop_
  _atom_site_type_symbol
  _atom_site_label
  _atom_site_symmetry_multiplicity
  _atom_site_fract_x
  _atom_site_fract_y
  _atom_site_fract_z
  _atom_site_occupancy
  _atom_site_charge
Cu  Cu1       1.0  0.41461  0.35914  0.52481  1.0000 0.8060959324
Cu  Cu2       1.0  0.08539  0.64086  0.02481  1.0000 0.8060959324
Cu  Cu3       1.0  0.58539  0.85914  0.97519  1.0000 0.8060959324
Cu  Cu4       1.0  0.91461  0.14086  0.47519  1.0000 0.8060959324
H   H1        1.0  0.48453  0.61897  0.15050  1.0000 0.1292869758
H   H2        1.0  0.01547  0.38103  0.65050  1.0000 0.1292869758
H   H3        1.0  0.51547  0.11897  0.34950  1.0000 0.1292869758
H   H4        1.0  0.98453  0.88103  0.84950  1.0000 0.1292869758
H   H5        1.0  0.39162  0.56185  0.31152  1.0000 0.1095154908
H   H6        1.0  0.10838  0.43815  0.81152  1.0000 0.1095154908
H   H7        1.0  0.60838  0.06185  0.18848  1.0000 0.1095154908
H   H8        1.0  0.89162  0.93815  0.68848  1.0000 0.1095154908
H   H9        1.0  0.35755  0.48942  0.03741  1.0000 0.1292869758
H   H10       1.0  0.14245  0.51058  0.53741  1.0000 0.1292869758
H   H11       1.0  0.64245  0.98942  0.46259  1.0000 0.1292869758
H   H12       1.0  0.85755  0.01058  0.96259  1.0000 0.1292869758
H   H13       1.0  0.19168  0.60341  0.23025  1.0000 0.1292869758
H   H14       1.0  0.30832  0.39659  0.73025  1.0000 0.1292869758
H   H15       1.0  0.80832  0.10341  0.26975  1.0000 0.1292869758
H   H16       1.0  0.69168  0.89659  0.76975  1.0000 0.1292869758
H   H17       1.0  0.41811  0.21256  0.49735  1.0000 0.3093793325
H   H18       1.0  0.08189  0.78744  0.99735  1.0000 0.3093793325
H   H19       1.0  0.58189  0.71256  0.00265  1.0000 0.3093793325
H   H20       1.0  0.91811  0.28744  0.50265  1.0000 0.3093793325
H   H21       1.0  0.50102  0.25678  0.44301  1.0000 0.3232619285
H   H22       1.0  0.99898  0.74322  0.94301  1.0000 0.3232619285
H   H23       1.0  0.49898  0.75678  0.05699  1.0000 0.3232619285
H   H24       1.0  0.00102  0.24322  0.55699  1.0000 0.3232619285
H   H25       1.0  0.30316  0.25389  0.44943  1.0000 0.3093793325
H   H26       1.0  0.19684  0.74611  0.94943  1.0000 0.3093793325
H   H27       1.0  0.69684  0.75389  0.05057  1.0000 0.3093793325
H   H28       1.0  0.80316  0.24611  0.55057  1.0000 0.3093793325
H   H29       1.0  0.75200  0.42200  0.52330  1.0000 0.3031236425
H   H30       1.0  0.74800  0.57800  0.02330  1.0000 0.3031236425
H   H31       1.0  0.24800  0.92200  0.97670  1.0000 0.3031236425
H   H32       1.0  0.25200  0.07800  0.47670  1.0000 0.3031236425
H   H33       1.0  0.67100  0.43000  0.46330  1.0000 0.3232619285
H   H34       1.0  0.82900  0.57000  0.96330  1.0000 0.3232619285
H   H35       1.0  0.32900  0.93000  0.03670  1.0000 0.3232619285
H   H36       1.0  0.17100  0.07000  0.53670  1.0000 0.3232619285
H   H37       1.0  0.77621  0.49894  0.32886  1.0000 0.1378545359
H   H38       1.0  0.72379  0.50106  0.82886  1.0000 0.1378545359
H   H39       1.0  0.22379  0.99894  0.17114  1.0000 0.1378545359
H   H40       1.0  0.27621  0.00106  0.67114  1.0000 0.1378545359
H   H41       1.0  0.97929  0.45583  0.40893  1.0000 0.1292869758
H   H42       1.0  0.52071  0.54417  0.90893  1.0000 0.1292869758
H   H43       1.0  0.02071  0.95583  0.09107  1.0000 0.1292869758
H   H44       1.0  0.47929  0.04417  0.59107  1.0000 0.1292869758
H   H45       1.0  0.62473  0.63038  0.25884  1.0000 0.1292869758
H   H46       1.0  0.87527  0.36962  0.75884  1.0000 0.1292869758
H   H47       1.0  0.37527  0.13038  0.24116  1.0000 0.1292869758
H   H48       1.0  0.12473  0.86962  0.74116  1.0000 0.1292869758
H   H49       1.0  0.34161  0.37650  0.11617  1.0000 0.1292869758
H   H50       1.0  0.15839  0.62350  0.61617  1.0000 0.1292869758
H   H51       1.0  0.65839  0.87650  0.38383  1.0000 0.1292869758
H   H52       1.0  0.84161  0.12350  0.88383  1.0000 0.1292869758
H   H53       1.0  0.77869  0.37511  0.17811  1.0000 0.1292869758
H   H54       1.0  0.72131  0.62489  0.67811  1.0000 0.1292869758
H   H55       1.0  0.22131  0.87511  0.32189  1.0000 0.1292869758
H   H56       1.0  0.27869  0.12489  0.82189  1.0000 0.1292869758
H   H57       1.0  0.69198  0.29480  0.26719  1.0000 0.1218667224
H   H58       1.0  0.80802  0.70520  0.76719  1.0000 0.1218667224
H   H59       1.0  0.30802  0.79480  0.23281  1.0000 0.1218667224
H   H60       1.0  0.19198  0.20520  0.73281  1.0000 0.1218667224
H   H61       1.0  0.21363  0.28278  0.32586  1.0000 0.1292869758
H   H62       1.0  0.28637  0.71722  0.82586  1.0000 0.1292869758
H   H63       1.0  0.78637  0.78278  0.17414  1.0000 0.1292869758
H   H64       1.0  0.71363  0.21722  0.67414  1.0000 0.1292869758
H   H65       1.0  0.29886  0.36621  0.23963  1.0000 0.1292869758
H   H66       1.0  0.20114  0.63379  0.73963  1.0000 0.1292869758
H   H67       1.0  0.70114  0.86621  0.26037  1.0000 0.1292869758
H   H68       1.0  0.79886  0.13379  0.76037  1.0000 0.1292869758
C   C1        1.0  0.34230  0.46700  0.41499  1.0000 0.5488100394
C   C2        1.0  0.15770  0.53300  0.91499  1.0000 0.5488100394
C   C3        1.0  0.65770  0.96700  0.08501  1.0000 0.5488100394
C   C4        1.0  0.84230  0.03300  0.58501  1.0000 0.5488100394
C   C5        1.0  0.59950  0.59890  0.16175  1.0000 -0.0207608552
C   C6        1.0  0.90050  0.40110  0.66175  1.0000 -0.0207608552
C   C7        1.0  0.40050  0.09890  0.33825  1.0000 -0.0207608552
C   C8        1.0  0.09950  0.90110  0.83825  1.0000 -0.0207608552
C   C9        1.0  0.20670  0.50184  0.36712  1.0000 -0.0270715293
C   C10       1.0  0.29330  0.49816  0.86712  1.0000 -0.0270715293
C   C11       1.0  0.79330  0.00184  0.13288  1.0000 -0.0270715293
C   C12       1.0  0.70670  0.99816  0.63288  1.0000 -0.0270715293
C   C13       1.0  0.26850  0.54780  0.31431  1.0000 -0.0918940708
C   C14       1.0  0.23150  0.45220  0.81431  1.0000 -0.0918940708
C   C15       1.0  0.73150  0.04780  0.18569  1.0000 -0.0918940708
C   C16       1.0  0.76850  0.95220  0.68569  1.0000 -0.0918940708
C   C17       1.0  0.26720  0.48270  0.06900  1.0000 -0.0037519115
C   C18       1.0  0.23280  0.51730  0.56900  1.0000 -0.0037519115
C   C19       1.0  0.73280  0.98270  0.43100  1.0000 -0.0037519115
C   C20       1.0  0.76720  0.01730  0.93100  1.0000 -0.0037519115
C   C21       1.0  0.14950  0.57300  0.26581  1.0000 -0.1853838476
C   C22       1.0  0.35050  0.42700  0.76581  1.0000 -0.1853838476
C   C23       1.0  0.85050  0.07300  0.23419  1.0000 -0.1794138596
C   C24       1.0  0.64950  0.92700  0.73419  1.0000 -0.1853838476
C   C25       1.0  0.96650  0.55230  0.27094  1.0000 0.1578141495
C   C26       1.0  0.53350  0.44770  0.77094  1.0000 0.1578141495
C   C27       1.0  0.03350  0.05230  0.22906  1.0000 0.1578141495
C   C28       1.0  0.46650  0.94770  0.72906  1.0000 0.1578141495
C   C29       1.0  0.90050  0.51010  0.32482  1.0000 -0.1674920127
C   C30       1.0  0.59950  0.48990  0.82482  1.0000 -0.1674920127
C   C31       1.0  0.09950  0.01010  0.17518  1.0000 -0.1674920127
C   C32       1.0  0.40050  0.98990  0.67518  1.0000 -0.1674920127
C   C33       1.0  0.02220  0.48470  0.37268  1.0000 -0.0738013193
C   C34       1.0  0.47780  0.51530  0.87268  1.0000 -0.0738013193
C   C35       1.0  0.97780  0.98470  0.12732  1.0000 -0.0738013193
C   C36       1.0  0.52220  0.01530  0.62732  1.0000 -0.0738013193
C   C37       1.0  0.67610  0.60570  0.22205  1.0000 -0.1003466986
C   C38       1.0  0.82390  0.39430  0.72205  1.0000 -0.1003466986
C   C39       1.0  0.32390  0.10570  0.27795  1.0000 -0.1003466986
C   C40       1.0  0.17610  0.89430  0.77795  1.0000 -0.1003466986
C   C41       1.0  0.86150  0.54196  0.15471  1.0000 0.167802979
C   C42       1.0  0.63850  0.45804  0.65471  1.0000 0.167802979
C   C43       1.0  0.13850  0.04196  0.34529  1.0000 0.167802979
C   C44       1.0  0.36150  0.95804  0.84529  1.0000 0.167802979
C   C45       1.0  0.02620  0.50398  0.12792  1.0000 0.1777296707
C   C46       1.0  0.47380  0.49602  0.62792  1.0000 0.1777296707
C   C47       1.0  0.97380  0.00398  0.37208  1.0000 0.1777296707
C   C48       1.0  0.52620  0.99602  0.87208  1.0000 0.1777296707
C   C49       1.0  0.25880  0.41980  0.11211  1.0000 -0.1003466986
C   C50       1.0  0.24120  0.58020  0.61211  1.0000 -0.1003466986
C   C51       1.0  0.74120  0.91980  0.38789  1.0000 -0.1003466986
C   C52       1.0  0.75880  0.08020  0.88789  1.0000 -0.1003466986
C   C53       1.0  0.04610  0.37995  0.20206  1.0000 0.1526084848
C   C54       1.0  0.45390  0.62005  0.70206  1.0000 0.1526084848
C   C55       1.0  0.95390  0.87995  0.29794  1.0000 0.1526084848
C   C56       1.0  0.54610  0.12005  0.79794  1.0000 0.1526084848
C   C57       1.0  0.86510  0.35790  0.20862  1.0000 -0.1853838476
C   C58       1.0  0.63490  0.64210  0.70862  1.0000 -0.1853838476
C   C59       1.0  0.13490  0.85790  0.29138  1.0000 -0.1853838476
C   C60       1.0  0.36510  0.14210  0.79138  1.0000 -0.1853838476
C   C61       1.0  0.81410  0.30940  0.26177  1.0000 -0.0918940708
C   C62       1.0  0.68590  0.69060  0.76177  1.0000 -0.0918940708
C   C63       1.0  0.18590  0.80940  0.23823  1.0000 -0.0918940708
C   C64       1.0  0.31410  0.19060  0.73823  1.0000 -0.0918940708
C   C65       1.0  0.94250  0.28271  0.30662  1.0000 -0.0207608552
C   C66       1.0  0.55750  0.71729  0.80662  1.0000 -0.0207608552
C   C67       1.0  0.05750  0.78271  0.19338  1.0000 -0.0207608552
C   C68       1.0  0.44250  0.21729  0.69338  1.0000 -0.0207608552
C   C69       1.0  0.12550  0.30274  0.29711  1.0000 -0.0832351923
C   C70       1.0  0.37450  0.69726  0.79711  1.0000 -0.0832351923
C   C71       1.0  0.87450  0.80274  0.20289  1.0000 -0.0832351923
C   C72       1.0  0.62550  0.19726  0.70289  1.0000 -0.0832351923
C   C73       1.0  0.17670  0.35190  0.24538  1.0000 -0.1794138596
C   C74       1.0  0.32330  0.64810  0.74538  1.0000 -0.1794138596
C   C75       1.0  0.82330  0.85190  0.25462  1.0000 -0.1794138596
C   C76       1.0  0.67670  0.14810  0.75462  1.0000 -0.1794138596
C   C77       1.0  0.88470  0.23301  0.36545  1.0000 0.5395253494
C   C78       1.0  0.61530  0.76699  0.86545  1.0000 0.5395253494
C   C79       1.0  0.11530  0.73301  0.13455  1.0000 0.5395253494
C   C80       1.0  0.38470  0.26699  0.63455  1.0000 0.5395253494
N   N1        1.0  0.84480  0.56884  0.21762  1.0000 -0.0270715293
N   N2        1.0  0.65520  0.43116  0.71762  1.0000 -0.0270715293
N   N3        1.0  0.15520  0.06884  0.28238  1.0000 -0.0270715293
N   N4        1.0  0.34480  0.93116  0.78238  1.0000 -0.0270715293
N   N5        1.0  0.10370  0.43227  0.14903  1.0000 -0.0207608552
N   N6        1.0  0.39630  0.56773  0.64903  1.0000 -0.0207608552
N   N7        1.0  0.89630  0.93227  0.35097  1.0000 -0.0207608552
N   N8        1.0  0.60370  0.06773  0.85097  1.0000 -0.0207608552
N   N9        1.0  0.40840  0.25640  0.47125  1.0000 -0.8116091743
N   N10       1.0  0.09160  0.74360  0.97125  1.0000 -0.8116091743
N   N11       1.0  0.59160  0.75640  0.02875  1.0000 -0.8116091743
N   N12       1.0  0.90840  0.24360  0.52875  1.0000 -0.8116091743
N   N13       1.0  0.71470  0.55854  0.11989  1.0000 -0.3034358204
N   N14       1.0  0.78530  0.44146  0.61989  1.0000 -0.3034358204
N   N15       1.0  0.28530  0.05854  0.38011  1.0000 -0.3034358204
N   N16       1.0  0.21470  0.94146  0.88011  1.0000 -0.3034358204
N   N17       1.0  0.12160  0.53554  0.07877  1.0000 -0.317115511
N   N18       1.0  0.37840  0.46446  0.57877  1.0000 -0.317115511
N   N19       1.0  0.87840  0.03554  0.42123  1.0000 -0.317115511
N   N20       1.0  0.62160  0.96446  0.92123  1.0000 -0.317115511
O   O1        1.0  0.50300  0.49165  0.41299  1.0000 -0.550038065
O   O2        1.0  0.99700  0.50835  0.91299  1.0000 -0.550038065
O   O3        1.0  0.49700  0.99165  0.08701  1.0000 -0.550038065
O   O4        1.0  0.00300  0.00835  0.58701  1.0000 -0.550038065
O   O5        1.0  0.27940  0.41335  0.45453  1.0000 -0.537178959
O   O6        1.0  0.22060  0.58665  0.95453  1.0000 -0.537178959
O   O7        1.0  0.72060  0.91335  0.04547  1.0000 -0.537178959
O   O8        1.0  0.77940  0.08665  0.54547  1.0000 -0.537178959
O   O9        1.0  0.01380  0.20391  0.40086  1.0000 -0.537178959
O   O10       1.0  0.48620  0.79609  0.90086  1.0000 -0.537178959
O   O11       1.0  0.98620  0.70391  0.09914  1.0000 -0.537178959
O   O12       1.0  0.51380  0.29609  0.59914  1.0000 -0.537178959
O   O13       1.0  0.72060  0.22167  0.37639  1.0000 -0.550038065
O   O14       1.0  0.77940  0.77833  0.87639  1.0000 -0.550038065
O   O15       1.0  0.27940  0.72167  0.12361  1.0000 -0.550038065
O   O16       1.0  0.22060  0.27833  0.62361  1.0000 -0.550038065
O   O17       1.0  0.71630  0.39663  0.48863  1.0000 -0.6671410903
O   O18       1.0  0.78370  0.60337  0.98863  1.0000 -0.6671410903
O   O19       1.0  0.28370  0.89663  0.01137  1.0000 -0.6671410903
O   O20       1.0  0.21630  0.10337  0.51137  1.0000 -0.6671410903
