# DDEC6 charges by PACMAN v1.1 (https://github.com/mtap-research/PACMAN-charge/)
data_2024[Zn][nan]2[FSR]2
_chemical_formula_sum              "Zn6 H80 C120 N12 O22"
_cell_length_a       16.6123
_cell_length_b       16.6936
_cell_length_c       17.1782
_cell_angle_alpha    59.1425
_cell_angle_beta     72.1918
_cell_angle_gamma    71.855

_symmetry_space_group_name_H-M    "P 1"
_symmetry_Int_Tables_number       1

loop_
  _symmetry_equiv_pos_as_xyz
  'x, y, z'

loop_
  _atom_site_type_symbol
  _atom_site_label
  _atom_site_symmetry_multiplicity
  _atom_site_fract_x
  _atom_site_fract_y
  _atom_site_fract_z
  _atom_site_occupancy
  _atom_site_charge
Zn  Zn1       1.0  0.02208  0.32992  0.09586  1.0000 0.9135468744
Zn  Zn2       1.0  0.97792  0.67008  0.90414  1.0000 0.9135468744
Zn  Zn3       1.0  0.08656  0.20653  0.00611  1.0000 0.8720250271
Zn  Zn4       1.0  0.91344  0.79347  0.99389  1.0000 0.8720250271
Zn  Zn5       1.0  0.55537  0.76961  0.54532  1.0000 0.6496200405
Zn  Zn6       1.0  0.44463  0.23039  0.45468  1.0000 0.6496200405
H   H1        1.0  0.00730  0.47390  0.10380  1.0000 0.3463233255
H   H2        1.0  0.99270  0.52610  0.89620  1.0000 0.3463233255
H   H3        1.0  0.92790  0.45240  0.13390  1.0000 0.3265059881
H   H4        1.0  0.07210  0.54760  0.86610  1.0000 0.3265059881
H   H5        1.0  0.15880  0.93880  0.92980  1.0000 0.312008395
H   H6        1.0  0.84120  0.06120  0.07020  1.0000 0.312008395
H   H7        1.0  0.85190  0.84300  0.48660  1.0000 0.1289820179
H   H8        1.0  0.14810  0.15700  0.51340  1.0000 0.1289820179
H   H9        1.0  0.79840  0.20130  0.28080  1.0000 0.1190060162
H   H10       1.0  0.20160  0.79870  0.71920  1.0000 0.1190060162
H   H11       1.0  0.18390  0.53270  0.91780  1.0000 0.1190060162
H   H12       1.0  0.81610  0.46730  0.08220  1.0000 0.1190060162
H   H13       1.0  0.28070  0.63170  0.81620  1.0000 0.1190060162
H   H14       1.0  0.71930  0.36830  0.18380  1.0000 0.1190060162
H   H15       1.0  0.28550  0.36650  0.79240  1.0000 0.1190060162
H   H16       1.0  0.71450  0.63350  0.20760  1.0000 0.1190060162
H   H17       1.0  0.75460  0.63970  0.80880  1.0000 0.1190060162
H   H18       1.0  0.24540  0.36030  0.19120  1.0000 0.1190060162
H   H19       1.0  0.25840  0.84310  0.46590  1.0000 0.1289820179
H   H20       1.0  0.74160  0.15690  0.53410  1.0000 0.1289820179
H   H21       1.0  0.85000  0.53920  0.90930  1.0000 0.1289820179
H   H22       1.0  0.15000  0.46080  0.09070  1.0000 0.1289820179
H   H23       1.0  0.93710  0.99420  0.21350  1.0000 0.1190060162
H   H24       1.0  0.06290  0.00580  0.78650  1.0000 0.1190060162
H   H25       1.0  0.25860  0.69420  0.60420  1.0000 0.1289820179
H   H26       1.0  0.74140  0.30580  0.39580  1.0000 0.1289820179
H   H27       1.0  0.69860  0.10550  0.38240  1.0000 0.1190060162
H   H28       1.0  0.30140  0.89450  0.61760  1.0000 0.1190060162
H   H29       1.0  0.62860  0.45880  0.83610  1.0000 0.1289820179
H   H30       1.0  0.37140  0.54120  0.16390  1.0000 0.1289820179
H   H31       1.0  0.85380  0.69250  0.62370  1.0000 0.1289820179
H   H32       1.0  0.14620  0.30750  0.37630  1.0000 0.1289820179
H   H33       1.0  0.83730  0.89900  0.31390  1.0000 0.1190060162
H   H34       1.0  0.16270  0.10100  0.68610  1.0000 0.1190060162
H   H35       1.0  0.88800  0.34580  0.82210  1.0000 0.1190060162
H   H36       1.0  0.11200  0.65420  0.17790  1.0000 0.1190060162
H   H37       1.0  0.46210  0.10110  0.28630  1.0000 0.1289820179
H   H38       1.0  0.53790  0.89890  0.71370  1.0000 0.1289820179
H   H39       1.0  0.79120  0.44600  0.72340  1.0000 0.1190060162
H   H40       1.0  0.20880  0.55400  0.27660  1.0000 0.1190060162
H   H41       1.0  0.48130  0.46070  0.83080  1.0000 0.1289820179
H   H42       1.0  0.51870  0.53930  0.16920  1.0000 0.1289820179
H   H43       1.0  0.38570  0.46340  0.69490  1.0000 0.1087956668
H   H44       1.0  0.61430  0.53660  0.30510  1.0000 0.1087956668
H   H45       1.0  0.97630  0.08090  0.01280  1.0000 0.1392528357
H   H46       1.0  0.02370  0.91910  0.98720  1.0000 0.1392528357
H   H47       1.0  0.60900  0.10160  0.28950  1.0000 0.1289820179
H   H48       1.0  0.39100  0.89840  0.71050  1.0000 0.1289820179
H   H49       1.0  0.28320  0.18260  0.92730  1.0000 0.1392528357
H   H50       1.0  0.71680  0.81740  0.07270  1.0000 0.1392528357
H   H51       1.0  0.17800  0.16680  0.31290  1.0000 0.1190060162
H   H52       1.0  0.82200  0.83320  0.68710  1.0000 0.1190060162
H   H53       1.0  0.27200  0.06660  0.41480  1.0000 0.1190060162
H   H54       1.0  0.72800  0.93340  0.58520  1.0000 0.1190060162
H   H55       1.0  0.33850  0.92510  0.86400  1.0000 0.1289820179
H   H56       1.0  0.66150  0.07490  0.13600  1.0000 0.1289820179
H   H57       1.0  0.39470  0.94300  0.25370  1.0000 0.1087956668
H   H58       1.0  0.60530  0.05700  0.74630  1.0000 0.1087956668
H   H59       1.0  0.42210  0.12100  0.87380  1.0000 0.1087956668
H   H60       1.0  0.57790  0.87900  0.12620  1.0000 0.1087956668
H   H61       1.0  0.29870  0.04070  0.15280  1.0000 0.1190060162
H   H62       1.0  0.70130  0.95930  0.84720  1.0000 0.1190060162
H   H63       1.0  0.44720  0.99920  0.83760  1.0000 0.1087956668
H   H64       1.0  0.55280  0.00080  0.16240  1.0000 0.1087956668
H   H65       1.0  0.47090  0.73170  0.40080  1.0000 0.1087956668
H   H66       1.0  0.52910  0.26830  0.59920  1.0000 0.1087956668
H   H67       1.0  0.50910  0.74270  0.30090  1.0000 0.1087956668
H   H68       1.0  0.49090  0.25730  0.69910  1.0000 0.1087956668
H   H69       1.0  0.64680  0.73370  0.31810  1.0000 0.1087956668
H   H70       1.0  0.35320  0.26630  0.68190  1.0000 0.1087956668
H   H71       1.0  0.58270  0.81710  0.33560  1.0000 0.1087956668
H   H72       1.0  0.41730  0.18290  0.66440  1.0000 0.1087956668
H   H73       1.0  0.57440  0.50060  0.51300  1.0000 0.1087956668
H   H74       1.0  0.42560  0.49940  0.48700  1.0000 0.1087956668
H   H75       1.0  0.51100  0.58400  0.53080  1.0000 0.1087956668
H   H76       1.0  0.48900  0.41600  0.46920  1.0000 0.1087956668
H   H77       1.0  0.64930  0.57400  0.54610  1.0000 0.1190060162
H   H78       1.0  0.35070  0.42600  0.45390  1.0000 0.1190060162
H   H79       1.0  0.68560  0.58670  0.44540  1.0000 0.1087956668
H   H80       1.0  0.31440  0.41330  0.55460  1.0000 0.1087956668
C   C1        1.0  0.47860  0.96000  0.39660  1.0000 0.1794129796
C   C2        1.0  0.52140  0.04000  0.60340  1.0000 0.1794129796
C   C3        1.0  0.40350  0.92870  0.41180  1.0000 -0.0808507472
C   C4        1.0  0.59650  0.07130  0.58820  1.0000 -0.0808507472
C   C5        1.0  0.72220  0.84180  0.49400  1.0000 0.1794129796
C   C6        1.0  0.27780  0.15820  0.50600  1.0000 0.1794129796
C   C7        1.0  0.62030  0.59250  0.71350  1.0000 0.1794129796
C   C8        1.0  0.37970  0.40750  0.28650  1.0000 0.1794129796
C   C9        1.0  0.69220  0.92930  0.42160  1.0000 -0.0808507472
C   C10       1.0  0.30780  0.07070  0.57840  1.0000 -0.0717790035
C   C11       1.0  0.38190  0.70400  0.60740  1.0000 0.1696515299
C   C12       1.0  0.61810  0.29600  0.39260  1.0000 0.1696515299
C   C13       1.0  0.80630  0.81040  0.51840  1.0000 -0.1907918685
C   C14       1.0  0.19370  0.18960  0.48160  1.0000 -0.1907918685
C   C15       1.0  0.76220  0.55350  0.75570  1.0000 0.0901735641
C   C16       1.0  0.23780  0.44650  0.24430  1.0000 0.0901735641
C   C17       1.0  0.38040  0.84280  0.48250  1.0000 0.1584071808
C   C18       1.0  0.61960  0.15720  0.51750  1.0000 0.1584071808
C   C19       1.0  0.80600  0.14090  0.28700  1.0000 -0.0993632285
C   C20       1.0  0.19400  0.85910  0.71300  1.0000 -0.0993632285
C   C21       1.0  0.94434  0.37000  0.93710  1.0000 0.5897054814
C   C22       1.0  0.05566  0.63000  0.06290  1.0000 0.5897054814
C   C23       1.0  0.34370  0.55680  0.74670  1.0000 0.0901735641
C   C24       1.0  0.65630  0.44320  0.25330  1.0000 0.0901735641
C   C25       1.0  0.22410  0.51850  0.87320  1.0000 -0.1090867136
C   C26       1.0  0.77590  0.48150  0.12680  1.0000 -0.1090867136
C   C27       1.0  0.60920  0.96080  0.40130  1.0000 0.1794129796
C   C28       1.0  0.39080  0.03920  0.59870  1.0000 0.1794129796
C   C29       1.0  0.87730  0.10810  0.23510  1.0000 -0.0307827245
C   C30       1.0  0.12270  0.89190  0.76490  1.0000 -0.0307827245
C   C31       1.0  0.87970  0.43290  0.87500  1.0000 -0.0376241978
C   C32       1.0  0.12030  0.56710  0.12500  1.0000 -0.0376241978
C   C33       1.0  0.34210  0.99320  0.34590  1.0000 0.0901735641
C   C34       1.0  0.65790  0.00680  0.65410  1.0000 0.0901735641
C   C35       1.0  0.28260  0.57740  0.81250  1.0000 -0.1333255031
C   C36       1.0  0.71740  0.42260  0.18750  1.0000 -0.1333255031
C   C37       1.0  0.22580  0.43740  0.86690  1.0000 -0.0376241978
C   C38       1.0  0.77420  0.56260  0.13310  1.0000 -0.0376241978
C   C39       1.0  0.28530  0.41860  0.79870  1.0000 -0.0993632285
C   C40       1.0  0.71470  0.58140  0.20130  1.0000 -0.0993632285
C   C41       1.0  0.75650  0.99220  0.35860  1.0000 0.0901735641
C   C42       1.0  0.24350  0.00780  0.64140  1.0000 0.0901735641
C   C43       1.0  0.78110  0.58050  0.81170  1.0000 -0.1399717885
C   C44       1.0  0.21890  0.41950  0.18830  1.0000 -0.1399717885
C   C45       1.0  0.30180  0.81110  0.50110  1.0000 -0.1832746685
C   C46       1.0  0.69820  0.18890  0.49890  1.0000 -0.1832746685
C   C47       1.0  0.94037  0.17160  0.16660  1.0000 0.5897054814
C   C48       1.0  0.05963  0.82840  0.83340  1.0000 0.5897054814
C   C49       1.0  0.83880  0.52060  0.87160  1.0000 -0.0935482974
C   C50       1.0  0.16120  0.47940  0.12840  1.0000 -0.0935482974
C   C51       1.0  0.69940  0.61920  0.69230  1.0000 -0.0808507472
C   C52       1.0  0.30060  0.38080  0.30770  1.0000 -0.0808507472
C   C53       1.0  0.88880  0.01710  0.24660  1.0000 -0.116930113
C   C54       1.0  0.11120  0.98290  0.75340  1.0000 -0.116930113
C   C55       1.0  0.40790  0.62030  0.68510  1.0000 -0.0808507472
C   C56       1.0  0.59210  0.37970  0.31490  1.0000 -0.0717790035
C   C57       1.0  0.30220  0.72950  0.57610  1.0000 -0.1832746685
C   C58       1.0  0.69780  0.27050  0.42390  1.0000 -0.1832746685
C   C59       1.0  0.74600  0.08310  0.34820  1.0000 -0.1508496918
C   C60       1.0  0.25400  0.91690  0.65180  1.0000 -0.1508496918
C   C61       1.0  0.59540  0.50580  0.79230  1.0000 -0.1907918685
C   C62       1.0  0.40460  0.49420  0.20770  1.0000 -0.1907918685
C   C63       1.0  0.80760  0.72830  0.59280  1.0000 -0.1748832621
C   C64       1.0  0.19240  0.27170  0.40720  1.0000 -0.1748832621
C   C65       1.0  0.22600  0.11140  0.22470  1.0000 -0.0307827245
C   C66       1.0  0.77400  0.88860  0.77530  1.0000 -0.0307827245
C   C67       1.0  0.22780  0.08880  0.92810  1.0000 0.1392528357
C   C68       1.0  0.77220  0.91120  0.07190  1.0000 0.1392528357
C   C69       1.0  0.72350  0.70310  0.61840  1.0000 0.1794129796
C   C70       1.0  0.27650  0.29690  0.38160  1.0000 0.1794129796
C   C71       1.0  0.16161  0.17230  0.16180  1.0000 0.595267608
C   C72       1.0  0.83839  0.82770  0.83820  1.0000 0.595267608
C   C73       1.0  0.82910  0.95970  0.30730  1.0000 -0.1584693201
C   C74       1.0  0.17090  0.04030  0.69270  1.0000 -0.1584693201
C   C75       1.0  0.10620  0.04240  0.96470  1.0000 0.3817873142
C   C76       1.0  0.89380  0.95760  0.03530  1.0000 0.3817873142
C   C77       1.0  0.16250  0.37380  0.93340  1.0000 0.5842593454
C   C78       1.0  0.83750  0.62620  0.06660  1.0000 0.5842593454
C   C79       1.0  0.86130  0.40480  0.81950  1.0000 -0.0935482974
C   C80       1.0  0.13870  0.59520  0.18050  1.0000 -0.0935482974
C   C81       1.0  0.49810  0.05170  0.32580  1.0000 -0.1907918685
C   C82       1.0  0.50190  0.94830  0.67420  1.0000 -0.1907918685
C   C83       1.0  0.48880  0.59310  0.71040  1.0000 0.1696515299
C   C84       1.0  0.51120  0.40690  0.28960  1.0000 0.1696515299
C   C85       1.0  0.80300  0.46490  0.76040  1.0000 -0.1584693201
C   C86       1.0  0.19700  0.53510  0.23960  1.0000 -0.1584693201
C   C87       1.0  0.51420  0.50700  0.78940  1.0000 -0.2014444851
C   C88       1.0  0.48580  0.49300  0.21060  1.0000 -0.2014444851
C   C89       1.0  0.34500  0.47740  0.73940  1.0000 -0.1508496918
C   C90       1.0  0.65500  0.52260  0.26060  1.0000 -0.1508496918
C   C91       1.0  0.01490  0.03550  0.99670  1.0000 -0.2014444851
C   C92       1.0  0.98510  0.96450  0.00330  1.0000 -0.2014444851
C   C93       1.0  0.24450  0.01200  0.91020  1.0000 0.1453824781
C   C94       1.0  0.75550  0.98800  0.08980  1.0000 0.1453824781
C   C95       1.0  0.57870  0.05210  0.32790  1.0000 -0.1907918685
C   C96       1.0  0.42130  0.94790  0.67210  1.0000 -0.1907918685
C   C97       1.0  0.29390  0.13180  0.91490  1.0000 -0.1584693201
C   C98       1.0  0.70610  0.86820  0.08510  1.0000 -0.1508496918
C   C99       1.0  0.22040  0.12040  0.30150  1.0000 -0.0935482974
C   C100      1.0  0.77960  0.87960  0.69850  1.0000 -0.0935482974
C   C101      1.0  0.27760  0.06070  0.36230  1.0000 -0.1399717885
C   C102      1.0  0.72240  0.93930  0.63770  1.0000 -0.1399717885
C   C103      1.0  0.32740  0.97610  0.87620  1.0000 -0.1907918685
C   C104      1.0  0.67260  0.02390  0.12380  1.0000 -0.1907918685
C   C105      1.0  0.35020  0.98700  0.26670  1.0000 -0.1584693201
C   C106      1.0  0.64980  0.01300  0.73330  1.0000 -0.1584693201
C   C107      1.0  0.37600  0.09520  0.88230  1.0000 -0.1399717885
C   C108      1.0  0.62400  0.90480  0.11770  1.0000 -0.1399717885
C   C109      1.0  0.29250  0.04570  0.20590  1.0000 -0.0993632285
C   C110      1.0  0.70750  0.95430  0.79410  1.0000 -0.0993632285
C   C111      1.0  0.39140  0.02000  0.86180  1.0000 -0.1090867136
C   C112      1.0  0.60860  0.98000  0.13820  1.0000 -0.1090867136
C   C113      1.0  0.52150  0.71340  0.36250  1.0000 -0.057636964
C   C114      1.0  0.47850  0.28660  0.63750  1.0000 -0.057636964
C   C115      1.0  0.59690  0.74870  0.35910  1.0000 -0.0717790035
C   C116      1.0  0.40310  0.25130  0.64090  1.0000 -0.0717790035
C   C117      1.0  0.56040  0.56900  0.48930  1.0000 -0.0717790035
C   C118      1.0  0.43960  0.43100  0.51070  1.0000 -0.0717790035
C   C119      1.0  0.63560  0.60390  0.48500  1.0000 -0.057636964
C   C120      1.0  0.36440  0.39610  0.51500  1.0000 -0.057636964
N   N1        1.0  0.42948  0.77450  0.54875  1.0000 -0.401770071
N   N2        1.0  0.57052  0.22550  0.45125  1.0000 -0.401770071
N   N3        1.0  0.67323  0.77410  0.55615  1.0000 -0.3680027359
N   N4        1.0  0.32677  0.22590  0.44385  1.0000 -0.3680027359
N   N5        1.0  0.54579  0.90760  0.44280  1.0000 -0.3680027359
N   N6        1.0  0.45421  0.09240  0.55720  1.0000 -0.3680027359
N   N7        1.0  0.55402  0.64397  0.66533  1.0000 -0.3754987873
N   N8        1.0  0.44598  0.35603  0.33467  1.0000 -0.3754987873
N   N9        1.0  0.13905  0.10764  0.96194  1.0000 -0.3911133714
N   N10       1.0  0.86095  0.89236  0.03806  1.0000 -0.3911133714
N   N11       1.0  0.16710  0.98480  0.93390  1.0000 -0.3058221497
N   N12       1.0  0.83290  0.01520  0.06610  1.0000 -0.3058221497
O   O1        1.0  0.96436  0.40377  0.97824  1.0000 -0.5733761646
O   O2        1.0  0.03564  0.59623  0.02176  1.0000 -0.5733761646
O   O3        1.0  0.00190  0.13757  0.12054  1.0000 -0.5586201109
O   O4        1.0  0.99810  0.86243  0.87946  1.0000 -0.5586201109
O   O5        1.0  0.98060  0.42749  0.13946  1.0000 -0.6136076905
O   O6        1.0  0.01940  0.57251  0.86054  1.0000 -0.6136076905
O   O7        1.0  0.09976  0.22789  0.18473  1.0000 -0.5323423006
O   O8        1.0  0.90024  0.77211  0.81527  1.0000 -0.5323423006
O   O9        1.0  0.97514  0.28638  0.94555  1.0000 -0.5502069153
O   O10       1.0  0.02486  0.71362  0.05445  1.0000 -0.5502069153
O   O11       1.0  0.17292  0.16298  0.09052  1.0000 -0.5502069153
O   O12       1.0  0.82708  0.83702  0.90948  1.0000 -0.5502069153
O   O13       1.0  0.14857  0.31741  0.91271  1.0000 -0.5385701515
O   O14       1.0  0.85143  0.68259  0.08729  1.0000 -0.5385701515
O   O15       1.0  0.92868  0.25195  0.16157  1.0000 -0.5385701515
O   O16       1.0  0.07132  0.74805  0.83843  1.0000 -0.5385701515
O   O17       1.0  0.12644  0.38232  0.00574  1.0000 -0.5586201109
O   O18       1.0  0.87356  0.61768  0.99426  1.0000 -0.5586201109
O   O19       1.0  0.61593  0.70385  0.45027  1.0000 -0.1907918685
O   O20       1.0  0.38407  0.29615  0.54973  1.0000 -0.1907918685
O   O21       1.0  0.53980  0.61350  0.39850  1.0000 -0.2097959973
O   O22       1.0  0.46020  0.38650  0.60150  1.0000 -0.2097959973
