# DDEC6 charges by PACMAN v1.1 (https://github.com/mtap-research/PACMAN-charge/)
data_2024[CuCe][nan]3[FSR]2
_chemical_formula_sum              "Ce2 Cu2 H8 C20 N4 Cl4 O20"
_cell_length_a       7.0146
_cell_length_b       11.4515
_cell_length_c       13.7995
_cell_angle_alpha    95.556
_cell_angle_beta     98.767
_cell_angle_gamma    98.44

_symmetry_space_group_name_H-M    "P 1"
_symmetry_Int_Tables_number       1

loop_
  _symmetry_equiv_pos_as_xyz
  'x, y, z'

loop_
  _atom_site_type_symbol
  _atom_site_label
  _atom_site_symmetry_multiplicity
  _atom_site_fract_x
  _atom_site_fract_y
  _atom_site_fract_z
  _atom_site_occupancy
  _atom_site_charge
Ce  Ce1       1.0  0.21952  0.51223  0.41567  1.0000 2.0205184247
Ce  Ce2       1.0  0.78048  0.48777  0.58433  1.0000 2.0205184247
Cu  Cu1       1.0  0.76081  0.59226  0.00139  1.0000 0.7264513995
Cu  Cu2       1.0  0.23919  0.40774  0.99861  1.0000 0.7264513995
H   H1        1.0  0.40703  0.73587  0.40510  1.0000 0.3671461221
H   H2        1.0  0.59297  0.26413  0.59490  1.0000 0.3671461221
H   H3        1.0  0.58521  0.71047  0.39154  1.0000 0.3628359463
H   H4        1.0  0.41479  0.28953  0.60846  1.0000 0.3628359463
H   H5        1.0  0.79835  0.76929  0.07705  1.0000 0.3014674064
H   H6        1.0  0.20165  0.23071  0.92295  1.0000 0.3014674064
H   H7        1.0  0.68665  0.81654  0.00619  1.0000 0.3533037778
H   H8        1.0  0.31335  0.18346  0.99381  1.0000 0.3533037778
C   C1        1.0  0.68830  0.46020  0.35940  1.0000 0.665364268
C   C2        1.0  0.31170  0.53980  0.64060  1.0000 0.665364268
C   C3        1.0  0.45120  0.43090  0.19090  1.0000 0.0599367533
C   C4        1.0  0.54880  0.56910  0.80910  1.0000 0.0599367533
C   C5        1.0  0.96100  0.57350  0.18910  1.0000 0.5875053432
C   C6        1.0  0.03900  0.42650  0.81090  1.0000 0.5875053432
C   C7        1.0  0.63670  0.46650  0.25250  1.0000 -0.1687394354
C   C8        1.0  0.36330  0.53350  0.74750  1.0000 -0.1687394354
C   C9        1.0  0.75630  0.51400  0.18770  1.0000 0.0662163671
C   C10       1.0  0.24370  0.48600  0.81230  1.0000 0.0662163671
C   C11       1.0  0.98120  0.74290  0.49400  1.0000 0.633956733
C   C12       1.0  0.01880  0.25710  0.50600  1.0000 0.633956733
C   C13       1.0  0.24780  0.37540  0.19730  1.0000 0.5737988975
C   C14       1.0  0.75220  0.62460  0.80270  1.0000 0.5737988975
C   C15       1.0  0.98760  0.87640  0.49750  1.0000 -0.108232462
C   C16       1.0  0.01240  0.12360  0.50250  1.0000 -0.108232462
C   C17       1.0  0.05620  0.95180  0.58500  1.0000 0.053130484
C   C18       1.0  0.94380  0.04820  0.41500  1.0000 0.0599367533
C   C19       1.0  0.06610  0.07310  0.58780  1.0000 0.053130484
C   C20       1.0  0.93390  0.92690  0.41220  1.0000 0.053130484
N   N1        1.0  0.46690  0.45600  0.10040  1.0000 -0.19150762
N   N2        1.0  0.53310  0.54400  0.89960  1.0000 -0.19150762
N   N3        1.0  0.64910  0.50640  0.09850  1.0000 -0.183614907
N   N4        1.0  0.35090  0.49360  0.90150  1.0000 -0.183614907
Cl  Cl1       1.0  0.14900  0.16496  0.69736  1.0000 -0.0515678108
Cl  Cl2       1.0  0.85100  0.83504  0.30264  1.0000 -0.0515678108
Cl  Cl3       1.0  0.12710  0.88790  0.69060  1.0000 -0.0515678108
Cl  Cl4       1.0  0.87290  0.11210  0.30940  1.0000 -0.0515678108
O   O1        1.0  0.55430  0.45020  0.41260  1.0000 -0.6726937268
O   O2        1.0  0.44570  0.54980  0.58740  1.0000 -0.6726937268
O   O3        1.0  0.86360  0.46760  0.39820  1.0000 -0.6590951357
O   O4        1.0  0.13640  0.53240  0.60180  1.0000 -0.6590951357
O   O5        1.0  0.09170  0.58450  0.26310  1.0000 -0.583081362
O   O6        1.0  0.90830  0.41550  0.73690  1.0000 -0.583081362
O   O7        1.0  0.19940  0.35500  0.27800  1.0000 -0.5639977429
O   O8        1.0  0.80060  0.64500  0.72200  1.0000 -0.5651828621
O   O9        1.0  0.99480  0.61210  0.10850  1.0000 -0.5080002073
O   O10       1.0  0.00520  0.38790  0.89150  1.0000 -0.5080002073
O   O11       1.0  0.83300  0.68350  0.51740  1.0000 -0.6132443521
O   O12       1.0  0.16700  0.31650  0.48260  1.0000 -0.6132443521
O   O13       1.0  0.13100  0.35220  0.11480  1.0000 -0.5080002073
O   O14       1.0  0.86900  0.64780  0.88520  1.0000 -0.5080002073
O   O15       1.0  0.12440  0.70450  0.46890  1.0000 -0.5966076825
O   O16       1.0  0.87560  0.29550  0.53110  1.0000 -0.5966076825
O   O17       1.0  0.46520  0.68030  0.38530  1.0000 -0.7133643005
O   O18       1.0  0.53480  0.31970  0.61470  1.0000 -0.7133643005
O   O19       1.0  0.68100  0.77250  0.05220  1.0000 -0.6542582187
O   O20       1.0  0.31900  0.22750  0.94780  1.0000 -0.6542582187
