# DDEC6 charges by PACMAN v1.1 (https://github.com/mtap-research/PACMAN-charge/)
data_2024[Cd][dia]3[FSR]2
_chemical_formula_sum              "Cd2 H60 C76 N8 O8"
_cell_length_a       12.68
_cell_length_b       12.68
_cell_length_c       20.759
_cell_angle_alpha    88.0341
_cell_angle_beta     91.9659
_cell_angle_gamma    36.8069

_symmetry_space_group_name_H-M    "P 1"
_symmetry_Int_Tables_number       1

loop_
  _symmetry_equiv_pos_as_xyz
  'x, y, z'

loop_
  _atom_site_type_symbol
  _atom_site_label
  _atom_site_symmetry_multiplicity
  _atom_site_fract_x
  _atom_site_fract_y
  _atom_site_fract_z
  _atom_site_occupancy
  _atom_site_charge
Cd  Cd1       1.0  0.32007  0.32007  0.75000  1.0000 0.8679858404
Cd  Cd2       1.0  0.67993  0.67993  0.25000  1.0000 0.8679858404
H   H1        1.0  0.94856  0.50014  0.54953  1.0000 0.1099648806
H   H2        1.0  0.50014  0.94856  0.95047  1.0000 0.1099648806
H   H3        1.0  0.05144  0.49986  0.45047  1.0000 0.1099648806
H   H4        1.0  0.49986  0.05144  0.04953  1.0000 0.1099648806
H   H5        1.0  0.48229  0.07865  0.59865  1.0000 0.1189739319
H   H6        1.0  0.07865  0.48229  0.90135  1.0000 0.1189739319
H   H7        1.0  0.51771  0.92135  0.40135  1.0000 0.1189739319
H   H8        1.0  0.92135  0.51771  0.09865  1.0000 0.1189739319
H   H9        1.0  0.71914  0.85572  0.67551  1.0000 0.1271518327
H   H10       1.0  0.85572  0.71914  0.82449  1.0000 0.1271518327
H   H11       1.0  0.28086  0.14428  0.32449  1.0000 0.1271518327
H   H12       1.0  0.14428  0.28086  0.17551  1.0000 0.1271518327
H   H13       1.0  0.30739  0.56597  0.99286  1.0000 0.1189739319
H   H14       1.0  0.56597  0.30739  0.50714  1.0000 0.1189739319
H   H15       1.0  0.69261  0.43403  0.00714  1.0000 0.1189739319
H   H16       1.0  0.43403  0.69261  0.49286  1.0000 0.1189739319
H   H17       1.0  0.38325  0.60247  0.95627  1.0000 0.1099648806
H   H18       1.0  0.60247  0.38325  0.54373  1.0000 0.1099648806
H   H19       1.0  0.61675  0.39753  0.04373  1.0000 0.1099648806
H   H20       1.0  0.39753  0.61675  0.45627  1.0000 0.1099648806
H   H21       1.0  0.71228  0.72264  0.47255  1.0000 0.1189739319
H   H22       1.0  0.72264  0.71228  0.02745  1.0000 0.1189739319
H   H23       1.0  0.28772  0.27736  0.52745  1.0000 0.1189739319
H   H24       1.0  0.27736  0.28772  0.97255  1.0000 0.1189739319
H   H25       1.0  0.03491  0.74099  0.76455  1.0000 0.1271518327
H   H26       1.0  0.74099  0.03491  0.73545  1.0000 0.1271518327
H   H27       1.0  0.96509  0.25901  0.23545  1.0000 0.1271518327
H   H28       1.0  0.25901  0.96509  0.26455  1.0000 0.1271518327
H   H29       1.0  0.00092  0.88136  0.85549  1.0000 0.1271518327
H   H30       1.0  0.88136  0.00092  0.64451  1.0000 0.1271518327
H   H31       1.0  0.99908  0.11864  0.14451  1.0000 0.1271518327
H   H32       1.0  0.11864  0.99908  0.35549  1.0000 0.1271518327
H   H33       1.0  0.32911  0.78219  0.90268  1.0000 0.1099648806
H   H34       1.0  0.78219  0.32911  0.59732  1.0000 0.1099648806
H   H35       1.0  0.67089  0.21781  0.09732  1.0000 0.1099648806
H   H36       1.0  0.21781  0.67089  0.40268  1.0000 0.1099648806
H   H37       1.0  0.92638  0.32414  0.98546  1.0000 0.1099648806
H   H38       1.0  0.32414  0.92638  0.51454  1.0000 0.1099648806
H   H39       1.0  0.07362  0.67586  0.01454  1.0000 0.1099648806
H   H40       1.0  0.67586  0.07362  0.48546  1.0000 0.1099648806
H   H41       1.0  0.49031  0.27945  0.94776  1.0000 0.1549752163
H   H42       1.0  0.27945  0.49031  0.55224  1.0000 0.1549752163
H   H43       1.0  0.50969  0.72055  0.05224  1.0000 0.1549752163
H   H44       1.0  0.72055  0.50969  0.44776  1.0000 0.1549752163
H   H45       1.0  0.55677  0.20393  0.88049  1.0000 0.1665731626
H   H46       1.0  0.20393  0.55677  0.61951  1.0000 0.1665731626
H   H47       1.0  0.44323  0.79607  0.11951  1.0000 0.1665731626
H   H48       1.0  0.79607  0.44323  0.38049  1.0000 0.1665731626
H   H49       1.0  0.59038  0.28732  0.91127  1.0000 0.1556578832
H   H50       1.0  0.28732  0.59038  0.58873  1.0000 0.1556578832
H   H51       1.0  0.40962  0.71268  0.08873  1.0000 0.1556578832
H   H52       1.0  0.71268  0.40962  0.41127  1.0000 0.1556578832
H   H53       1.0  0.32215  0.96231  0.87687  1.0000 0.1189739319
H   H54       1.0  0.96231  0.32215  0.62313  1.0000 0.1189739319
H   H55       1.0  0.67785  0.03769  0.12313  1.0000 0.1189739319
H   H56       1.0  0.03769  0.67785  0.37687  1.0000 0.1189739319
H   H57       1.0  0.12514  0.23130  0.92036  1.0000 0.1189739319
H   H58       1.0  0.23130  0.12514  0.57964  1.0000 0.1189739319
H   H59       1.0  0.87486  0.76870  0.07964  1.0000 0.1189739319
H   H60       1.0  0.76870  0.87486  0.42036  1.0000 0.1189739319
C   C1        1.0  0.86319  0.65483  0.61973  1.0000 -0.0198920058
C   C2        1.0  0.65483  0.86319  0.88027  1.0000 -0.0198920058
C   C3        1.0  0.13681  0.34517  0.38027  1.0000 -0.0198920058
C   C4        1.0  0.34517  0.13681  0.11973  1.0000 -0.0198920058
C   C5        1.0  0.57348  0.92758  0.52565  1.0000 0.066576037
C   C6        1.0  0.92758  0.57348  0.97435  1.0000 0.066576037
C   C7        1.0  0.42652  0.07242  0.47435  1.0000 0.066576037
C   C8        1.0  0.07242  0.42652  0.02565  1.0000 0.066576037
C   C9        1.0  0.33721  0.47147  0.87262  1.0000 0.3397316294
C   C10       1.0  0.47147  0.33721  0.62738  1.0000 0.3397316294
C   C11       1.0  0.66279  0.52853  0.12738  1.0000 0.3397316294
C   C12       1.0  0.52853  0.66279  0.37262  1.0000 0.3397316294
C   C13       1.0  0.02785  0.51303  0.66667  1.0000 0.5324500161
C   C14       1.0  0.51303  0.02785  0.83338  1.0000 0.5324500161
C   C15       1.0  0.97215  0.48697  0.33338  1.0000 0.5324500161
C   C16       1.0  0.48697  0.97215  0.16662  1.0000 0.5324500161
C   C17       1.0  0.85653  0.61689  0.55929  1.0000 -0.1113164672
C   C18       1.0  0.61689  0.85653  0.94071  1.0000 -0.1113164672
C   C19       1.0  0.14347  0.38311  0.44071  1.0000 -0.1113164672
C   C20       1.0  0.38311  0.14347  0.05929  1.0000 -0.1113164672
C   C21       1.0  0.57720  0.96288  0.58790  1.0000 -0.1466844571
C   C22       1.0  0.96288  0.57720  0.91210  1.0000 -0.1466844571
C   C23       1.0  0.42280  0.03712  0.41210  1.0000 -0.1466844571
C   C24       1.0  0.03712  0.42280  0.08790  1.0000 -0.1466844571
C   C25       1.0  0.71990  0.82862  0.63431  1.0000 -0.0966145625
C   C26       1.0  0.82862  0.71990  0.86569  1.0000 -0.0966145625
C   C27       1.0  0.28010  0.17138  0.36569  1.0000 -0.0966145625
C   C28       1.0  0.17138  0.28010  0.13431  1.0000 -0.0966145625
C   C29       1.0  0.12693  0.94013  0.96114  1.0000 0.0224895099
C   C30       1.0  0.94013  0.12693  0.53886  1.0000 0.0224895099
C   C31       1.0  0.87307  0.05987  0.03886  1.0000 0.0224895099
C   C32       1.0  0.05987  0.87307  0.46114  1.0000 0.0224895099
C   C33       1.0  0.13091  0.82931  0.97812  1.0000 -0.0198920058
C   C34       1.0  0.82931  0.13091  0.52188  1.0000 -0.0198920058
C   C35       1.0  0.86909  0.17069  0.02188  1.0000 -0.0198920058
C   C36       1.0  0.17069  0.86909  0.47812  1.0000 -0.0198920058
C   C37       1.0  0.27892  0.64272  0.95913  1.0000 -0.1589014303
C   C38       1.0  0.64272  0.27892  0.54087  1.0000 -0.1589014303
C   C39       1.0  0.72108  0.35728  0.04087  1.0000 -0.1589014303
C   C40       1.0  0.35728  0.72108  0.45913  1.0000 -0.1589014303
C   C41       1.0  0.71389  0.75121  0.51291  1.0000 -0.1589014303
C   C42       1.0  0.75121  0.71389  0.98709  1.0000 -0.1589014303
C   C43       1.0  0.28611  0.24879  0.48709  1.0000 -0.1589014303
C   C44       1.0  0.24879  0.28611  0.01291  1.0000 -0.1589014303
C   C45       1.0  0.99654  0.11234  0.98442  1.0000 0.0250540836
C   C46       1.0  0.11234  0.99654  0.51558  1.0000 0.0250540836
C   C47       1.0  0.00346  0.88766  0.01558  1.0000 0.0250540836
C   C48       1.0  0.88766  0.00346  0.48442  1.0000 0.0250540836
C   C49       1.0  0.11247  0.68177  0.80215  1.0000 -0.0377830384
C   C50       1.0  0.68177  0.11247  0.69785  1.0000 -0.0377830384
C   C51       1.0  0.88753  0.31823  0.19785  1.0000 -0.0377830384
C   C52       1.0  0.31823  0.88753  0.30215  1.0000 -0.0377830384
C   C53       1.0  0.09272  0.76048  0.85214  1.0000 -0.1113164672
C   C54       1.0  0.76048  0.09272  0.64786  1.0000 -0.1113164672
C   C55       1.0  0.90728  0.23952  0.14786  1.0000 -0.1113164672
C   C56       1.0  0.23952  0.90728  0.35214  1.0000 -0.1113164672
C   C57       1.0  0.24691  0.89071  0.91963  1.0000 -0.1589014303
C   C58       1.0  0.89071  0.24691  0.58037  1.0000 -0.1589014303
C   C59       1.0  0.75309  0.10929  0.08037  1.0000 -0.1589014303
C   C60       1.0  0.10929  0.75309  0.41963  1.0000 -0.1589014303
C   C61       1.0  0.00464  0.21584  0.96873  1.0000 -0.1589014303
C   C62       1.0  0.21584  0.00464  0.53127  1.0000 -0.1589014303
C   C63       1.0  0.99536  0.78416  0.03127  1.0000 -0.1589014303
C   C64       1.0  0.78416  0.99536  0.46873  1.0000 -0.1589014303
C   C65       1.0  0.50889  0.29489  0.90600  1.0000 -0.5320880306
C   C66       1.0  0.29489  0.50889  0.59400  1.0000 -0.5320880306
C   C67       1.0  0.49111  0.70511  0.09400  1.0000 -0.5320880306
C   C68       1.0  0.70511  0.49111  0.40600  1.0000 -0.5320880306
C   C69       1.0  0.24380  0.99720  0.90451  1.0000 -0.0773114009
C   C70       1.0  0.99720  0.24380  0.59549  1.0000 -0.0773114009
C   C71       1.0  0.75620  0.00280  0.09549  1.0000 -0.0773114009
C   C72       1.0  0.00280  0.75620  0.40451  1.0000 -0.0773114009
C   C73       1.0  0.12338  0.16058  0.93005  1.0000 -0.0657016528
C   C74       1.0  0.16058  0.12338  0.56995  1.0000 -0.0657016528
C   C75       1.0  0.87662  0.83942  0.06995  1.0000 -0.0657016528
C   C76       1.0  0.83942  0.87662  0.43005  1.0000 -0.0657016528
N   N1        1.0  0.23511  0.62641  0.89685  1.0000 -0.0198920058
N   N2        1.0  0.62641  0.23511  0.60315  1.0000 -0.0198920058
N   N3        1.0  0.76489  0.37359  0.10315  1.0000 -0.0198920058
N   N4        1.0  0.37359  0.76489  0.39685  1.0000 -0.0198920058
N   N5        1.0  0.26424  0.50124  0.81518  1.0000 -0.366165374
N   N6        1.0  0.50124  0.26424  0.68482  1.0000 -0.366165374
N   N7        1.0  0.73576  0.49876  0.18482  1.0000 -0.366165374
N   N8        1.0  0.49876  0.73576  0.31518  1.0000 -0.366165374
O   O1        1.0  0.02859  0.55975  0.71870  1.0000 -0.5320880306
O   O2        1.0  0.55975  0.02859  0.78130  1.0000 -0.5320880306
O   O3        1.0  0.97141  0.44025  0.28130  1.0000 -0.5320880306
O   O4        1.0  0.44025  0.97141  0.21870  1.0000 -0.5320880306
O   O5        1.0  0.15968  0.35990  0.65209  1.0000 -0.5413339181
O   O6        1.0  0.35990  0.15968  0.84791  1.0000 -0.5413339181
O   O7        1.0  0.84032  0.64010  0.34791  1.0000 -0.5413339181
O   O8        1.0  0.64010  0.84032  0.15209  1.0000 -0.5413339181
