# DDEC6 charges by PACMAN v1.1 (https://github.com/mtap-research/PACMAN-charge/)
data_2024[Ni][fes]2[FSR]1
_chemical_formula_sum              "Ni4 H68 C80 N20 O20"
_cell_length_a       7.4327
_cell_length_b       20.826
_cell_length_c       16.1134
_cell_angle_alpha    90
_cell_angle_beta     100.733
_cell_angle_gamma    90

_symmetry_space_group_name_H-M    "P 1"
_symmetry_Int_Tables_number       1

loop_
  _symmetry_equiv_pos_as_xyz
  'x, y, z'

loop_
  _atom_site_type_symbol
  _atom_site_label
  _atom_site_symmetry_multiplicity
  _atom_site_fract_x
  _atom_site_fract_y
  _atom_site_fract_z
  _atom_site_occupancy
  _atom_site_charge
Ni  Ni1       1.0  0.77043  0.97126  0.11541  1.0000 0.7789451586
Ni  Ni2       1.0  0.22957  0.47126  0.38459  1.0000 0.7789451586
Ni  Ni3       1.0  0.22957  0.02874  0.88459  1.0000 0.7789451586
Ni  Ni4       1.0  0.77043  0.52874  0.61541  1.0000 0.7789451586
H   H1        1.0  0.56937  0.78621  0.96628  1.0000 0.1225197711
H   H2        1.0  0.43063  0.28621  0.53372  1.0000 0.1225197711
H   H3        1.0  0.43063  0.21379  0.03372  1.0000 0.1225197711
H   H4        1.0  0.56937  0.71379  0.46628  1.0000 0.1225197711
H   H5        1.0  0.60192  0.69569  0.88520  1.0000 0.129606673
H   H6        1.0  0.39808  0.19569  0.61480  1.0000 0.129606673
H   H7        1.0  0.39808  0.30431  0.11480  1.0000 0.129606673
H   H8        1.0  0.60192  0.80431  0.38520  1.0000 0.129606673
H   H9        1.0  0.82082  0.04537  0.99968  1.0000 0.3117513565
H   H10       1.0  0.17918  0.54537  0.50032  1.0000 0.3153897134
H   H11       1.0  0.17918  0.95463  0.00032  1.0000 0.3153897134
H   H12       1.0  0.82082  0.45463  0.49968  1.0000 0.3153897134
H   H13       1.0  0.66352  0.00570  0.96558  1.0000 0.3117513565
H   H14       1.0  0.33648  0.50570  0.53442  1.0000 0.3117513565
H   H15       1.0  0.33648  0.99430  0.03442  1.0000 0.3117513565
H   H16       1.0  0.66352  0.49430  0.46558  1.0000 0.3117513565
H   H17       1.0  0.64186  0.06062  0.01849  1.0000 0.3117513565
H   H18       1.0  0.35814  0.56062  0.48151  1.0000 0.3117513565
H   H19       1.0  0.35814  0.93938  0.98151  1.0000 0.3117513565
H   H20       1.0  0.64186  0.43938  0.51849  1.0000 0.3117513565
H   H21       1.0  0.58100  0.02740  0.19800  1.0000 0.3289796519
H   H22       1.0  0.41900  0.52740  0.30200  1.0000 0.3289796519
H   H23       1.0  0.41900  0.97260  0.80200  1.0000 0.3289796519
H   H24       1.0  0.58100  0.47260  0.69800  1.0000 0.3289796519
H   H25       1.0  0.50900  0.96790  0.18000  1.0000 0.3049449431
H   H26       1.0  0.49100  0.46790  0.32000  1.0000 0.3049449431
H   H27       1.0  0.49100  0.03210  0.82000  1.0000 0.3049449431
H   H28       1.0  0.50900  0.53210  0.68000  1.0000 0.3049449431
H   H29       1.0  0.12590  0.74457  0.88781  1.0000 0.129606673
H   H30       1.0  0.87410  0.24457  0.61219  1.0000 0.129606673
H   H31       1.0  0.87410  0.25543  0.11219  1.0000 0.129606673
H   H32       1.0  0.12590  0.75543  0.38781  1.0000 0.129606673
H   H33       1.0  0.09145  0.83386  0.96800  1.0000 0.1225197711
H   H34       1.0  0.90855  0.33386  0.53200  1.0000 0.1225197711
H   H35       1.0  0.90855  0.16614  0.03200  1.0000 0.1225197711
H   H36       1.0  0.09145  0.66614  0.46800  1.0000 0.1225197711
H   H37       1.0  0.15215  0.62671  0.88018  1.0000 0.129606673
H   H38       1.0  0.84785  0.12671  0.61982  1.0000 0.129606673
H   H39       1.0  0.84785  0.37329  0.11982  1.0000 0.129606673
H   H40       1.0  0.15215  0.87329  0.38018  1.0000 0.129606673
H   H41       1.0  0.10859  0.54571  0.76842  1.0000 0.129606673
H   H42       1.0  0.89141  0.04571  0.73158  1.0000 0.129606673
H   H43       1.0  0.89141  0.45429  0.23158  1.0000 0.129606673
H   H44       1.0  0.10859  0.95429  0.26842  1.0000 0.129606673
H   H45       1.0  0.19766  0.65120  0.63488  1.0000 0.1225197711
H   H46       1.0  0.80234  0.15120  0.86512  1.0000 0.1225197711
H   H47       1.0  0.80234  0.34880  0.36512  1.0000 0.1225197711
H   H48       1.0  0.19766  0.84880  0.13488  1.0000 0.1225197711
H   H49       1.0  0.32487  0.75912  0.62015  1.0000 0.129606673
H   H50       1.0  0.67513  0.25912  0.87985  1.0000 0.129606673
H   H51       1.0  0.67513  0.24088  0.37985  1.0000 0.129606673
H   H52       1.0  0.32487  0.74088  0.12015  1.0000 0.129606673
H   H53       1.0  0.89437  0.73099  0.64913  1.0000 0.1225197711
H   H54       1.0  0.10563  0.23099  0.85087  1.0000 0.1225197711
H   H55       1.0  0.10563  0.26901  0.35087  1.0000 0.1225197711
H   H56       1.0  0.89437  0.76901  0.14913  1.0000 0.1225197711
H   H57       1.0  0.10806  0.81184  0.68429  1.0000 0.1078618797
H   H58       1.0  0.89194  0.31184  0.81571  1.0000 0.1078618797
H   H59       1.0  0.89194  0.18816  0.31571  1.0000 0.1078618797
H   H60       1.0  0.10806  0.68816  0.18429  1.0000 0.1078618797
H   H61       1.0  0.74980  0.91309  0.78836  1.0000 0.129606673
H   H62       1.0  0.25020  0.41309  0.71164  1.0000 0.129606673
H   H63       1.0  0.25020  0.08691  0.21164  1.0000 0.129606673
H   H64       1.0  0.74980  0.58691  0.28836  1.0000 0.129606673
H   H65       1.0  0.53175  0.83280  0.74983  1.0000 0.1363829779
H   H66       1.0  0.46825  0.33280  0.75017  1.0000 0.1363829779
H   H67       1.0  0.46825  0.16720  0.25017  1.0000 0.1363829779
H   H68       1.0  0.53175  0.66720  0.24983  1.0000 0.1363829779
C   C1        1.0  0.80580  0.87799  0.02570  1.0000 0.5250492501
C   C2        1.0  0.19420  0.37799  0.47430  1.0000 0.5250492501
C   C3        1.0  0.19420  0.12201  0.97430  1.0000 0.5250492501
C   C4        1.0  0.80580  0.62201  0.52570  1.0000 0.5250492501
C   C5        1.0  0.82550  0.81922  0.97430  1.0000 -0.0285622498
C   C6        1.0  0.17450  0.31922  0.52570  1.0000 -0.0285622498
C   C7        1.0  0.17450  0.18078  0.02570  1.0000 -0.0285622498
C   C8        1.0  0.82550  0.68078  0.47430  1.0000 -0.0285622498
C   C9        1.0  0.68080  0.77800  0.95000  1.0000 -0.0807243827
C   C10       1.0  0.31920  0.27800  0.55000  1.0000 -0.0807243827
C   C11       1.0  0.31920  0.22200  0.05000  1.0000 -0.0807243827
C   C12       1.0  0.68080  0.72200  0.45000  1.0000 -0.0807243827
C   C13       1.0  0.69950  0.72380  0.90110  1.0000 -0.1883954522
C   C14       1.0  0.30050  0.22380  0.59890  1.0000 -0.1883954522
C   C15       1.0  0.30050  0.27620  0.09890  1.0000 -0.1883954522
C   C16       1.0  0.69950  0.77620  0.40110  1.0000 -0.1883954522
C   C17       1.0  0.86610  0.71276  0.87670  1.0000 0.1615799326
C   C18       1.0  0.13390  0.21276  0.62330  1.0000 0.1615799326
C   C19       1.0  0.13390  0.28724  0.12330  1.0000 0.1615799326
C   C20       1.0  0.86610  0.78724  0.37670  1.0000 0.1615799326
C   C21       1.0  0.01340  0.75320  0.90280  1.0000 -0.1883954522
C   C22       1.0  0.98660  0.25320  0.59720  1.0000 -0.1883954522
C   C23       1.0  0.98660  0.24680  0.09720  1.0000 -0.1883954522
C   C24       1.0  0.01340  0.74680  0.40280  1.0000 -0.1883954522
C   C25       1.0  0.99290  0.80640  0.95100  1.0000 -0.0807243827
C   C26       1.0  0.00710  0.30640  0.54900  1.0000 -0.0807243827
C   C27       1.0  0.00710  0.19360  0.04900  1.0000 -0.0807243827
C   C28       1.0  0.99290  0.69360  0.45100  1.0000 -0.0807243827
C   C29       1.0  0.04960  0.62170  0.83780  1.0000 -0.1084377883
C   C30       1.0  0.95040  0.12170  0.66220  1.0000 -0.1084377883
C   C31       1.0  0.95040  0.37830  0.16220  1.0000 -0.1084377883
C   C32       1.0  0.04960  0.87830  0.33780  1.0000 -0.1084377883
C   C33       1.0  0.02420  0.57730  0.77560  1.0000 -0.0004241011
C   C34       1.0  0.97580  0.07730  0.72440  1.0000 1.36201e-05
C   C35       1.0  0.97580  0.42270  0.22440  1.0000 1.36201e-05
C   C36       1.0  0.02420  0.92270  0.27560  1.0000 -0.0004241011
C   C37       1.0  0.77890  0.63494  0.75560  1.0000 0.1692163716
C   C38       1.0  0.22110  0.13494  0.74440  1.0000 0.1692163716
C   C39       1.0  0.22110  0.36506  0.24440  1.0000 0.1692163716
C   C40       1.0  0.77890  0.86506  0.25560  1.0000 0.1692163716
C   C41       1.0  0.60020  0.66004  0.71610  1.0000 0.1692163716
C   C42       1.0  0.39980  0.16004  0.78390  1.0000 0.1692163716
C   C43       1.0  0.39980  0.33996  0.28390  1.0000 0.1692163716
C   C44       1.0  0.60020  0.83996  0.21610  1.0000 0.1692163716
C   C45       1.0  0.31780  0.66360  0.65560  1.0000 -0.0238602353
C   C46       1.0  0.68220  0.16360  0.84440  1.0000 -0.0238602353
C   C47       1.0  0.68220  0.33640  0.34440  1.0000 -0.0238602353
C   C48       1.0  0.31780  0.83640  0.15560  1.0000 -0.0238602353
C   C49       1.0  0.38730  0.72390  0.64700  1.0000 -0.0970819123
C   C50       1.0  0.61270  0.22390  0.85300  1.0000 -0.0970819123
C   C51       1.0  0.61270  0.27610  0.35300  1.0000 -0.0970819123
C   C52       1.0  0.38730  0.77610  0.14700  1.0000 -0.0970819123
C   C53       1.0  0.69540  0.77423  0.69930  1.0000 0.1513790297
C   C54       1.0  0.30460  0.27423  0.80070  1.0000 0.1513790297
C   C55       1.0  0.30460  0.22577  0.30070  1.0000 0.1513790297
C   C56       1.0  0.69540  0.72577  0.19930  1.0000 0.1513790297
C   C57       1.0  0.86610  0.76737  0.67760  1.0000 -0.1828819854
C   C58       1.0  0.13390  0.26737  0.82240  1.0000 -0.1828819854
C   C59       1.0  0.13390  0.23263  0.32240  1.0000 -0.1828819854
C   C60       1.0  0.86610  0.73263  0.17760  1.0000 -0.1828819854
C   C61       1.0  0.99350  0.81560  0.69910  1.0000 -0.0970819123
C   C62       1.0  0.00650  0.31560  0.80090  1.0000 -0.0970819123
C   C63       1.0  0.00650  0.18440  0.30090  1.0000 -0.0970819123
C   C64       1.0  0.99350  0.68440  0.19910  1.0000 -0.0970819123
C   C65       1.0  0.95290  0.86984  0.74280  1.0000 -0.0238602353
C   C66       1.0  0.04710  0.36984  0.75720  1.0000 -0.0238602353
C   C67       1.0  0.04710  0.13016  0.25720  1.0000 -0.0238602353
C   C68       1.0  0.95290  0.63016  0.24280  1.0000 -0.0238602353
C   C69       1.0  0.77980  0.87641  0.76100  1.0000 -0.0807243827
C   C70       1.0  0.22020  0.37641  0.73900  1.0000 -0.0807243827
C   C71       1.0  0.22020  0.12359  0.23900  1.0000 -0.0807243827
C   C72       1.0  0.77980  0.62359  0.26100  1.0000 -0.0807243827
C   C73       1.0  0.64910  0.82814  0.73830  1.0000 -0.1661370886
C   C74       1.0  0.35090  0.32814  0.76170  1.0000 -0.1661370886
C   C75       1.0  0.35090  0.17186  0.26170  1.0000 -0.1661370886
C   C76       1.0  0.64910  0.67186  0.23830  1.0000 -0.1661370886
C   C77       1.0  0.10060  0.91809  0.77480  1.0000 0.5457336116
C   C78       1.0  0.89940  0.41809  0.72520  1.0000 0.5457336116
C   C79       1.0  0.89940  0.08191  0.22520  1.0000 0.5457336116
C   C80       1.0  0.10060  0.58191  0.27480  1.0000 0.5457336116
N   N1        1.0  0.56810  0.72142  0.68600  1.0000 -0.0285622498
N   N2        1.0  0.43190  0.22142  0.81400  1.0000 -0.0285622498
N   N3        1.0  0.43190  0.27858  0.31400  1.0000 -0.0285622498
N   N4        1.0  0.56810  0.77858  0.18600  1.0000 -0.0285622498
N   N5        1.0  0.45110  0.62447  0.69930  1.0000 -0.2871399788
N   N6        1.0  0.54890  0.12447  0.80070  1.0000 -0.2871399788
N   N7        1.0  0.54890  0.37553  0.30070  1.0000 -0.2871399788
N   N8        1.0  0.45110  0.87553  0.19930  1.0000 -0.2871399788
N   N9        1.0  0.85560  0.58535  0.72430  1.0000 -0.3147475911
N   N10       1.0  0.14440  0.08535  0.77570  1.0000 -0.3147475911
N   N11       1.0  0.14440  0.41465  0.27570  1.0000 -0.3147475911
N   N12       1.0  0.85560  0.91465  0.22430  1.0000 -0.3147475911
N   N13       1.0  0.89190  0.65816  0.82540  1.0000 -0.0285622498
N   N14       1.0  0.10810  0.15816  0.67460  1.0000 -0.0285622498
N   N15       1.0  0.10810  0.34184  0.17460  1.0000 -0.0285622498
N   N16       1.0  0.89190  0.84184  0.32540  1.0000 -0.0285622498
N   N17       1.0  0.71650  0.02893  0.00980  1.0000 -0.7940801573
N   N18       1.0  0.28350  0.52893  0.49020  1.0000 -0.7962637934
N   N19       1.0  0.28350  0.97107  0.99020  1.0000 -0.7962637934
N   N20       1.0  0.71650  0.47107  0.50980  1.0000 -0.7962637934
O   O1        1.0  0.65200  0.89062  0.04501  1.0000 -0.5281625879
O   O2        1.0  0.34800  0.39062  0.45499  1.0000 -0.5281625879
O   O3        1.0  0.34800  0.10938  0.95499  1.0000 -0.5281625879
O   O4        1.0  0.65200  0.60938  0.54501  1.0000 -0.5281625879
O   O5        1.0  0.94350  0.91276  0.05186  1.0000 -0.5164808524
O   O6        1.0  0.05650  0.41276  0.44814  1.0000 -0.5164808524
O   O7        1.0  0.05650  0.08724  0.94814  1.0000 -0.5164808524
O   O8        1.0  0.94350  0.58724  0.55186  1.0000 -0.5164808524
O   O9        1.0  0.06350  0.95886  0.82621  1.0000 -0.5360909743
O   O10       1.0  0.93650  0.45886  0.67379  1.0000 -0.5360909743
O   O11       1.0  0.93650  0.04114  0.17379  1.0000 -0.5360909743
O   O12       1.0  0.06350  0.54114  0.32621  1.0000 -0.5360909743
O   O13       1.0  0.24700  0.91466  0.74790  1.0000 -0.5596120549
O   O14       1.0  0.75300  0.41466  0.75210  1.0000 -0.5596120549
O   O15       1.0  0.75300  0.08534  0.25210  1.0000 -0.5596120549
O   O16       1.0  0.24700  0.58534  0.24790  1.0000 -0.5596120549
O   O17       1.0  0.53690  0.00256  0.15852  1.0000 -0.6428420139
O   O18       1.0  0.46310  0.50256  0.34148  1.0000 -0.6428420139
O   O19       1.0  0.46310  0.99744  0.84148  1.0000 -0.6428420139
O   O20       1.0  0.53690  0.49744  0.65852  1.0000 -0.6428420139
