# DDEC6 charges by PACMAN v1.1 (https://github.com/mtap-research/PACMAN-charge/)
data_2024[Cu][pcu]3[FSR]4
_chemical_formula_sum              "Cu8 H128 C120 N8 O32"
_cell_length_a       17.6067
_cell_length_b       17.6067
_cell_length_c       17.6067
_cell_angle_alpha    131.621
_cell_angle_beta     127.611
_cell_angle_gamma    74.0685

_symmetry_space_group_name_H-M    "P 1"
_symmetry_Int_Tables_number       1

loop_
  _symmetry_equiv_pos_as_xyz
  'x, y, z'

loop_
  _atom_site_type_symbol
  _atom_site_label
  _atom_site_symmetry_multiplicity
  _atom_site_fract_x
  _atom_site_fract_y
  _atom_site_fract_z
  _atom_site_occupancy
  _atom_site_charge
Cu  Cu1       1.0  0.59569  0.84569  0.75000  1.0000 0.7625745406
Cu  Cu2       1.0  0.09569  0.34569  0.75000  1.0000 0.7625745406
Cu  Cu3       1.0  0.18873  0.43873  0.75000  1.0000 0.742406713
Cu  Cu4       1.0  0.68873  0.93873  0.75000  1.0000 0.742406713
Cu  Cu5       1.0  0.90431  0.65431  0.25000  1.0000 0.7625745406
Cu  Cu6       1.0  0.40431  0.15431  0.25000  1.0000 0.7625745406
Cu  Cu7       1.0  0.31127  0.06127  0.25000  1.0000 0.742406713
Cu  Cu8       1.0  0.81127  0.56127  0.25000  1.0000 0.742406713
H   H1        1.0  0.24270  0.53674  0.56756  1.0000 0.1272548904
H   H2        1.0  0.46918  0.67514  0.93244  1.0000 0.1272548904
H   H3        1.0  0.96918  0.03674  0.79404  1.0000 0.1272548904
H   H4        1.0  0.74270  0.17514  0.70596  1.0000 0.1272548904
H   H5        1.0  0.16465  0.45464  0.57219  1.0000 0.109494034
H   H6        1.0  0.38245  0.59246  0.92781  1.0000 0.109494034
H   H7        1.0  0.88245  0.95464  0.78999  1.0000 0.109494034
H   H8        1.0  0.66465  0.09246  0.71001  1.0000 0.109494034
H   H9        1.0  0.48477  0.80475  0.93234  1.0000 0.1376773735
H   H10       1.0  0.37241  0.55243  0.56766  1.0000 0.1376773735
H   H11       1.0  0.87241  0.30475  0.81998  1.0000 0.1376773735
H   H12       1.0  0.98477  0.05243  0.68002  1.0000 0.1376773735
H   H13       1.0  0.97788  0.29287  0.33873  1.0000 0.109494034
H   H14       1.0  0.45414  0.63915  0.16127  1.0000 0.109494034
H   H15       1.0  0.95414  0.79287  0.81499  1.0000 0.109494034
H   H16       1.0  0.47788  0.13915  0.68501  1.0000 0.109494034
H   H17       1.0  0.90809  0.36024  0.37941  1.0000 0.1018971247
H   H18       1.0  0.48083  0.52868  0.12059  1.0000 0.1018971247
H   H19       1.0  0.98083  0.86024  0.95215  1.0000 0.1018971247
H   H20       1.0  0.40809  0.02868  0.54785  1.0000 0.1018971247
H   H21       1.0  0.56527  0.88310  0.92653  1.0000 0.109494034
H   H22       1.0  0.45657  0.63874  0.57347  1.0000 0.109494034
H   H23       1.0  0.95657  0.38310  0.81783  1.0000 0.109494034
H   H24       1.0  0.06527  0.13874  0.68217  1.0000 0.109494034
H   H25       1.0  0.79598  0.27140  0.36010  1.0000 0.091319631
H   H26       1.0  0.41130  0.43588  0.13990  1.0000 0.091319631
H   H27       1.0  0.91130  0.77140  0.97542  1.0000 0.091319631
H   H28       1.0  0.29598  0.93588  0.52458  1.0000 0.091319631
H   H29       1.0  0.83057  0.18516  0.37505  1.0000 0.109494034
H   H30       1.0  0.31011  0.45552  0.12495  1.0000 0.109494034
H   H31       1.0  0.81011  0.68516  0.85459  1.0000 0.109494034
H   H32       1.0  0.33057  0.95552  0.64541  1.0000 0.109494034
H   H33       1.0  0.74868  0.05414  0.16638  1.0000 0.1018971247
H   H34       1.0  0.38776  0.58230  0.33362  1.0000 0.1018971247
H   H35       1.0  0.88776  0.55414  0.80546  1.0000 0.1018971247
H   H36       1.0  0.24868  0.08230  0.69454  1.0000 0.1018971247
H   H37       1.0  0.68962  0.13712  0.15412  1.0000 0.091319631
H   H38       1.0  0.48300  0.53550  0.34588  1.0000 0.091319631
H   H39       1.0  0.98300  0.63712  0.94750  1.0000 0.091319631
H   H40       1.0  0.18962  0.03550  0.55250  1.0000 0.091319631
H   H41       1.0  0.92876  0.07788  0.14624  1.0000 0.109494034
H   H42       1.0  0.43164  0.78252  0.35376  1.0000 0.109494034
H   H43       1.0  0.93164  0.57788  0.64912  1.0000 0.109494034
H   H44       1.0  0.42876  0.28252  0.85088  1.0000 0.109494034
H   H45       1.0  0.87471  0.99700  0.12243  1.0000 0.1018971247
H   H46       1.0  0.37457  0.75228  0.37757  1.0000 0.1018971247
H   H47       1.0  0.87457  0.49700  0.62229  1.0000 0.1018971247
H   H48       1.0  0.37471  0.25228  0.87771  1.0000 0.1018971247
H   H49       1.0  0.77144  0.25833  0.17999  1.0000 0.1018971247
H   H50       1.0  0.57834  0.59145  0.32001  1.0000 0.1018971247
H   H51       1.0  0.07834  0.75833  0.98689  1.0000 0.1018971247
H   H52       1.0  0.27144  0.09145  0.51311  1.0000 0.1018971247
H   H53       1.0  0.84449  0.21991  0.14082  1.0000 0.109494034
H   H54       1.0  0.57909  0.70367  0.35918  1.0000 0.109494034
H   H55       1.0  0.07909  0.71991  0.87542  1.0000 0.109494034
H   H56       1.0  0.34449  0.20367  0.62458  1.0000 0.109494034
H   H57       1.0  0.95336  0.09184  0.32852  1.0000 0.1018971247
H   H58       1.0  0.26332  0.62484  0.17148  1.0000 0.1018971247
H   H59       1.0  0.76332  0.59184  0.63848  1.0000 0.1018971247
H   H60       1.0  0.45336  0.12484  0.86152  1.0000 0.1018971247
H   H61       1.0  0.02795  0.14907  0.34808  1.0000 0.1018971247
H   H62       1.0  0.30099  0.67987  0.15192  1.0000 0.1018971247
H   H63       1.0  0.80099  0.64907  0.62112  1.0000 0.1018971247
H   H64       1.0  0.52795  0.17987  0.87888  1.0000 0.1018971247
H   H65       1.0  0.03082  0.96326  0.20596  1.0000 0.1272548904
H   H66       1.0  0.25730  0.82486  0.29404  1.0000 0.1272548904
H   H67       1.0  0.75730  0.46326  0.43244  1.0000 0.1272548904
H   H68       1.0  0.53082  0.32486  0.06756  1.0000 0.1272548904
H   H69       1.0  0.11755  0.04536  0.21001  1.0000 0.109494034
H   H70       1.0  0.33535  0.90754  0.28999  1.0000 0.109494034
H   H71       1.0  0.83535  0.54536  0.42781  1.0000 0.109494034
H   H72       1.0  0.61755  0.40754  0.07219  1.0000 0.109494034
H   H73       1.0  0.12759  0.69525  0.18002  1.0000 0.1376773735
H   H74       1.0  0.01523  0.94757  0.31998  1.0000 0.1376773735
H   H75       1.0  0.51523  0.19525  0.06766  1.0000 0.1376773735
H   H76       1.0  0.62759  0.44757  0.43234  1.0000 0.1376773735
H   H77       1.0  0.04586  0.20713  0.18501  1.0000 0.109494034
H   H78       1.0  0.52212  0.86085  0.31499  1.0000 0.109494034
H   H79       1.0  0.02212  0.70713  0.66127  1.0000 0.109494034
H   H80       1.0  0.54586  0.36085  0.83873  1.0000 0.109494034
H   H81       1.0  0.01917  0.13976  0.04785  1.0000 0.1018971247
H   H82       1.0  0.59191  0.97132  0.45215  1.0000 0.1018971247
H   H83       1.0  0.09191  0.63976  0.62059  1.0000 0.1018971247
H   H84       1.0  0.51917  0.47132  0.87941  1.0000 0.1018971247
H   H85       1.0  0.04343  0.61690  0.18217  1.0000 0.109494034
H   H86       1.0  0.93473  0.86126  0.31783  1.0000 0.109494034
H   H87       1.0  0.43473  0.11690  0.07347  1.0000 0.109494034
H   H88       1.0  0.54343  0.36126  0.42653  1.0000 0.109494034
H   H89       1.0  0.08870  0.22860  0.02458  1.0000 0.091319631
H   H90       1.0  0.70402  0.06412  0.47542  1.0000 0.091319631
H   H91       1.0  0.20402  0.72860  0.63990  1.0000 0.091319631
H   H92       1.0  0.58870  0.56412  0.86010  1.0000 0.091319631
H   H93       1.0  0.18989  0.31484  0.14541  1.0000 0.109494034
H   H94       1.0  0.66943  0.04448  0.35459  1.0000 0.109494034
H   H95       1.0  0.16943  0.81484  0.62495  1.0000 0.109494034
H   H96       1.0  0.68989  0.54448  0.87505  1.0000 0.109494034
H   H97       1.0  0.11224  0.44586  0.19454  1.0000 0.1018971247
H   H98       1.0  0.75132  0.91770  0.30546  1.0000 0.1018971247
H   H99       1.0  0.25132  0.94586  0.83362  1.0000 0.1018971247
H   H100      1.0  0.61224  0.41770  0.66638  1.0000 0.1018971247
H   H101      1.0  0.01700  0.36288  0.05250  1.0000 0.091319631
H   H102      1.0  0.81038  0.96450  0.44750  1.0000 0.091319631
H   H103      1.0  0.31038  0.86288  0.84588  1.0000 0.091319631
H   H104      1.0  0.51700  0.46450  0.65412  1.0000 0.091319631
H   H105      1.0  0.06836  0.42212  0.35088  1.0000 0.109494034
H   H106      1.0  0.57124  0.71748  0.14912  1.0000 0.109494034
H   H107      1.0  0.07124  0.92212  0.85376  1.0000 0.109494034
H   H108      1.0  0.56836  0.21748  0.64624  1.0000 0.109494034
H   H109      1.0  0.12543  0.50300  0.37771  1.0000 0.1018971247
H   H110      1.0  0.62529  0.74772  0.12229  1.0000 0.1018971247
H   H111      1.0  0.12529  0.00300  0.87757  1.0000 0.1018971247
H   H112      1.0  0.62543  0.24772  0.62243  1.0000 0.1018971247
H   H113      1.0  0.92166  0.24167  0.01311  1.0000 0.1018971247
H   H114      1.0  0.72856  0.90855  0.48689  1.0000 0.1018971247
H   H115      1.0  0.22856  0.74167  0.82001  1.0000 0.1018971247
H   H116      1.0  0.42166  0.40855  0.67999  1.0000 0.1018971247
H   H117      1.0  0.92091  0.28009  0.12458  1.0000 0.109494034
H   H118      1.0  0.65551  0.79633  0.37542  1.0000 0.109494034
H   H119      1.0  0.15551  0.78009  0.85918  1.0000 0.109494034
H   H120      1.0  0.42091  0.29633  0.64082  1.0000 0.109494034
H   H121      1.0  0.23668  0.40816  0.36152  1.0000 0.1018971247
H   H122      1.0  0.54664  0.87516  0.13848  1.0000 0.109494034
H   H123      1.0  0.04664  0.90816  0.67148  1.0000 0.1018971247
H   H124      1.0  0.73668  0.37516  0.82852  1.0000 0.1018971247
H   H125      1.0  0.19901  0.35093  0.37888  1.0000 0.1018971247
H   H126      1.0  0.47205  0.82013  0.12112  1.0000 0.1018971247
H   H127      1.0  0.97205  0.85093  0.65192  1.0000 0.1018971247
H   H128      1.0  0.69901  0.32013  0.84808  1.0000 0.1018971247
C   C1        1.0  0.36574  0.61574  0.75000  1.0000 0.109494034
C   C2        1.0  0.86574  0.11574  0.75000  1.0000 0.109494034
C   C3        1.0  0.27357  0.54907  0.64284  1.0000 -0.2088930258
C   C4        1.0  0.40623  0.63073  0.85716  1.0000 -0.2088930258
C   C5        1.0  0.90623  0.04907  0.77550  1.0000 -0.2088930258
C   C6        1.0  0.77357  0.13073  0.72450  1.0000 -0.2088930258
C   C7        1.0  0.41857  0.66857  0.75000  1.0000 0.1018971247
C   C8        1.0  0.91857  0.16857  0.75000  1.0000 0.1018971247
C   C9        1.0  0.22706  0.50071  0.64665  1.0000 0.091319631
C   C10       1.0  0.35406  0.58041  0.85335  1.0000 0.091319631
C   C11       1.0  0.85406  0.00071  0.77365  1.0000 0.091319631
C   C12       1.0  0.72706  0.08041  0.72635  1.0000 0.091319631
C   C13       1.0  0.00475  0.30026  0.51827  1.0000 0.5483162908
C   C14       1.0  0.28199  0.48648  0.98173  1.0000 0.5483162908
C   C15       1.0  0.78199  0.80026  0.79551  1.0000 0.5483162908
C   C16       1.0  0.50475  0.98648  0.70449  1.0000 0.5483162908
C   C17       1.0  0.47742  0.76838  0.85670  1.0000 -0.1945184449
C   C18       1.0  0.41168  0.62072  0.64330  1.0000 -0.1945184449
C   C19       1.0  0.91168  0.26838  0.79096  1.0000 -0.1945184449
C   C20       1.0  0.97742  0.12072  0.70904  1.0000 -0.1945184449
C   C21       1.0  0.73100  0.03734  0.98664  1.0000 0.5483162908
C   C22       1.0  0.55070  0.74436  0.51336  1.0000 0.5483162908
C   C23       1.0  0.05070  0.53734  0.80634  1.0000 0.5483162908
C   C24       1.0  0.23100  0.24436  0.69366  1.0000 0.5483162908
C   C25       1.0  0.79892  0.11386  0.13052  1.0000 0.0577487142
C   C26       1.0  0.48334  0.66840  0.36948  1.0000 0.0577487142
C   C27       1.0  0.98334  0.61386  0.81494  1.0000 0.0577487142
C   C28       1.0  0.29892  0.16840  0.68506  1.0000 0.0577487142
C   C29       1.0  0.91716  0.28858  0.32894  1.0000 -0.2003713826
C   C30       1.0  0.45964  0.58822  0.17106  1.0000 -0.2003713826
C   C31       1.0  0.95964  0.78858  0.87142  1.0000 -0.2003713826
C   C32       1.0  0.41716  0.08822  0.62858  1.0000 -0.2003713826
C   C33       1.0  0.92650  0.23583  0.37641  1.0000 0.0546675233
C   C34       1.0  0.35942  0.55009  0.12359  1.0000 0.0546675233
C   C35       1.0  0.85942  0.73583  0.80933  1.0000 0.0546675233
C   C36       1.0  0.42650  0.05009  0.69067  1.0000 0.0546675233
C   C37       1.0  0.52542  0.81479  0.85247  1.0000 0.091319631
C   C38       1.0  0.46232  0.67295  0.64753  1.0000 0.091319631
C   C39       1.0  0.96232  0.31479  0.78937  1.0000 0.091319631
C   C40       1.0  0.02542  0.17295  0.71063  1.0000 0.091319631
C   C41       1.0  0.82428  0.20876  0.33410  1.0000 -0.2088930258
C   C42       1.0  0.37466  0.49018  0.16590  1.0000 -0.2088930258
C   C43       1.0  0.87466  0.70876  0.88448  1.0000 -0.2088930258
C   C44       1.0  0.32428  0.99018  0.61552  1.0000 -0.2088930258
C   C45       1.0  0.75563  0.12148  0.18851  1.0000 -0.2088930258
C   C46       1.0  0.43297  0.56712  0.31149  1.0000 -0.2088930258
C   C47       1.0  0.93297  0.62148  0.86585  1.0000 -0.2088930258
C   C48       1.0  0.25563  0.06712  0.63415  1.0000 -0.2088930258
C   C49       1.0  0.89258  0.07162  0.16876  1.0000 -0.2088930258
C   C50       1.0  0.40286  0.72382  0.33124  1.0000 -0.2088930258
C   C51       1.0  0.90286  0.57162  0.67904  1.0000 -0.2088930258
C   C52       1.0  0.39258  0.22382  0.82096  1.0000 -0.2088930258
C   C53       1.0  0.82762  0.22395  0.18757  1.0000 -0.2088930258
C   C54       1.0  0.53638  0.64005  0.31243  1.0000 -0.2088930258
C   C55       1.0  0.03638  0.72395  0.89633  1.0000 -0.2088930258
C   C56       1.0  0.32762  0.14005  0.60367  1.0000 -0.2088930258
C   C57       1.0  0.95853  0.13375  0.31240  1.0000 -0.2088930258
C   C58       1.0  0.32135  0.64613  0.18760  1.0000 -0.2088930258
C   C59       1.0  0.82135  0.63375  0.67522  1.0000 -0.2088930258
C   C60       1.0  0.45853  0.14613  0.82478  1.0000 -0.2088930258
C   C61       1.0  0.13426  0.88426  0.25000  1.0000 0.109494034
C   C62       1.0  0.63426  0.38426  0.25000  1.0000 0.109494034
C   C63       1.0  0.09377  0.95093  0.22450  1.0000 -0.2088930258
C   C64       1.0  0.22643  0.86927  0.27550  1.0000 -0.2088930258
C   C65       1.0  0.72643  0.45093  0.35716  1.0000 -0.2088930258
C   C66       1.0  0.59377  0.36927  0.14284  1.0000 -0.2088930258
C   C67       1.0  0.08143  0.83143  0.25000  1.0000 0.1018971247
C   C68       1.0  0.58143  0.33143  0.25000  1.0000 0.1018971247
C   C69       1.0  0.14594  0.99929  0.22635  1.0000 0.091319631
C   C70       1.0  0.27294  0.91959  0.27365  1.0000 0.091319631
C   C71       1.0  0.77294  0.49929  0.35335  1.0000 0.091319631
C   C72       1.0  0.64594  0.41959  0.14665  1.0000 0.091319631
C   C73       1.0  0.21801  0.19974  0.20449  1.0000 0.5483162908
C   C74       1.0  0.49525  0.01352  0.29551  1.0000 0.5483162908
C   C75       1.0  0.99525  0.69974  0.48173  1.0000 0.5483162908
C   C76       1.0  0.71801  0.51352  0.01827  1.0000 0.5483162908
C   C77       1.0  0.08832  0.73162  0.20904  1.0000 -0.1945184449
C   C78       1.0  0.02258  0.87928  0.29096  1.0000 -0.1945184449
C   C79       1.0  0.52258  0.23162  0.14330  1.0000 -0.1945184449
C   C80       1.0  0.58832  0.37928  0.35670  1.0000 -0.1945184449
C   C81       1.0  0.94930  0.46266  0.19366  1.0000 0.5483162908
C   C82       1.0  0.76900  0.75564  0.30634  1.0000 0.5483162908
C   C83       1.0  0.26900  0.96266  0.01336  1.0000 0.5483162908
C   C84       1.0  0.44930  0.25564  0.48664  1.0000 0.5483162908
C   C85       1.0  0.01666  0.38614  0.18506  1.0000 0.0577487142
C   C86       1.0  0.70108  0.83160  0.31494  1.0000 0.0577487142
C   C87       1.0  0.20108  0.88614  0.86948  1.0000 0.0577487142
C   C88       1.0  0.51666  0.33160  0.63052  1.0000 0.0577487142
C   C89       1.0  0.04036  0.21142  0.12858  1.0000 -0.2003713826
C   C90       1.0  0.58284  0.91178  0.37142  1.0000 -0.2003713826
C   C91       1.0  0.08284  0.71142  0.67106  1.0000 -0.2003713826
C   C92       1.0  0.54036  0.41178  0.82894  1.0000 -0.2003713826
C   C93       1.0  0.14058  0.26417  0.19067  1.0000 0.0546675233
C   C94       1.0  0.57350  0.94991  0.30933  1.0000 0.0546675233
C   C95       1.0  0.07350  0.76417  0.62359  1.0000 0.0546675233
C   C96       1.0  0.64058  0.44991  0.87641  1.0000 0.0546675233
C   C97       1.0  0.03768  0.68521  0.21063  1.0000 0.091319631
C   C98       1.0  0.97458  0.82705  0.28937  1.0000 0.091319631
C   C99       1.0  0.47458  0.18521  0.14753  1.0000 0.091319631
C   C100      1.0  0.53768  0.32705  0.35247  1.0000 0.091319631
C   C101      1.0  0.12534  0.29124  0.11552  1.0000 -0.2088930258
C   C102      1.0  0.67572  0.00982  0.38448  1.0000 -0.2088930258
C   C103      1.0  0.17572  0.79124  0.66590  1.0000 -0.2088930258
C   C104      1.0  0.62534  0.50982  0.83410  1.0000 -0.2088930258
C   C105      1.0  0.06703  0.37852  0.13415  1.0000 -0.2088930258
C   C106      1.0  0.74437  0.93288  0.36585  1.0000 -0.2088930258
C   C107      1.0  0.24437  0.87852  0.81149  1.0000 -0.2088930258
C   C108      1.0  0.56703  0.43288  0.68851  1.0000 -0.2088930258
C   C109      1.0  0.09714  0.42838  0.32096  1.0000 -0.2088930258
C   C110      1.0  0.60742  0.77618  0.17904  1.0000 -0.2088930258
C   C111      1.0  0.10742  0.92838  0.83124  1.0000 -0.2088930258
C   C112      1.0  0.59714  0.27618  0.66876  1.0000 -0.2088930258
C   C113      1.0  0.96362  0.27605  0.10367  1.0000 -0.2088930258
C   C114      1.0  0.67238  0.85995  0.39633  1.0000 -0.2088930258
C   C115      1.0  0.17238  0.77605  0.81243  1.0000 -0.2088930258
C   C116      1.0  0.46362  0.35995  0.68757  1.0000 -0.2088930258
C   C117      1.0  0.17865  0.36625  0.32478  1.0000 -0.2088930258
C   C118      1.0  0.54147  0.85387  0.17522  1.0000 -0.2088930258
C   C119      1.0  0.04147  0.86625  0.68760  1.0000 -0.2088930258
C   C120      1.0  0.67865  0.35387  0.81240  1.0000 -0.2088930258
N   N1        1.0  0.26574  0.51574  0.75000  1.0000 -0.2346191833
N   N2        1.0  0.76574  0.01574  0.75000  1.0000 -0.2346191833
N   N3        1.0  0.51842  0.76842  0.75000  1.0000 -0.2401539489
N   N4        1.0  0.01842  0.26842  0.75000  1.0000 -0.2401539489
N   N5        1.0  0.23426  0.98426  0.25000  1.0000 -0.2401539489
N   N6        1.0  0.73426  0.48426  0.25000  1.0000 -0.2401539489
N   N7        1.0  0.98158  0.73158  0.25000  1.0000 -0.2401539489
N   N8        1.0  0.48158  0.23158  0.25000  1.0000 -0.2401539489
O   O1        1.0  0.07447  0.36388  0.57207  1.0000 -0.5235016922
O   O2        1.0  0.29181  0.50240  0.92793  1.0000 -0.5235016922
O   O3        1.0  0.79181  0.86388  0.78941  1.0000 -0.5235016922
O   O4        1.0  0.57447  0.00240  0.71059  1.0000 -0.5235016922
O   O5        1.0  0.99668  0.28307  0.57213  1.0000 -0.5235016922
O   O6        1.0  0.21094  0.42455  0.92787  1.0000 -0.5235016922
O   O7        1.0  0.71094  0.78307  0.78639  1.0000 -0.5235016922
O   O8        1.0  0.49668  0.92455  0.71361  1.0000 -0.5235016922
O   O9        1.0  0.74592  0.04628  0.93156  1.0000 -0.5092190633
O   O10       1.0  0.61472  0.81436  0.56844  1.0000 -0.5092190633
O   O11       1.0  0.11472  0.54628  0.80036  1.0000 -0.5092190633
O   O12       1.0  0.24592  0.31436  0.69964  1.0000 -0.5092190633
O   O13       1.0  0.66820  0.96585  0.93189  1.0000 -0.5235016922
O   O14       1.0  0.53396  0.73631  0.56811  1.0000 -0.5235016922
O   O15       1.0  0.03396  0.46585  0.79765  1.0000 -0.5235016922
O   O16       1.0  0.16820  0.23631  0.70235  1.0000 -0.5235016922
O   O17       1.0  0.20819  0.13612  0.21059  1.0000 -0.5235016922
O   O18       1.0  0.42553  0.99760  0.28941  1.0000 -0.5235016922
O   O19       1.0  0.92553  0.63612  0.42793  1.0000 -0.5235016922
O   O20       1.0  0.70819  0.49760  0.07207  1.0000 -0.5235016922
O   O21       1.0  0.28906  0.21693  0.21361  1.0000 -0.5235016922
O   O22       1.0  0.50332  0.07545  0.28639  1.0000 -0.5235016922
O   O23       1.0  0.00332  0.71693  0.42787  1.0000 -0.5235016922
O   O24       1.0  0.78906  0.57545  0.07213  1.0000 -0.5235016922
O   O25       1.0  0.88528  0.45372  0.19964  1.0000 -0.5092190633
O   O26       1.0  0.75408  0.68564  0.30036  1.0000 -0.5092190633
O   O27       1.0  0.25408  0.95372  0.06844  1.0000 -0.5092190633
O   O28       1.0  0.38528  0.18564  0.43156  1.0000 -0.5092190633
O   O29       1.0  0.96604  0.53415  0.20235  1.0000 -0.5235016922
O   O30       1.0  0.83180  0.76369  0.29765  1.0000 -0.5235016922
O   O31       1.0  0.33180  0.03415  0.06811  1.0000 -0.5235016922
O   O32       1.0  0.46604  0.26369  0.43189  1.0000 -0.5235016922
