# DDEC6 charges by PACMAN v1.1 (https://github.com/mtap-research/PACMAN-charge/)
data_2024[Eu][nan]3[FSR]4
_chemical_formula_sum              "Eu4 H64 C84 N4 O32"
_cell_length_a       9.257
_cell_length_b       12.8401
_cell_length_c       24.6948
_cell_angle_alpha    90
_cell_angle_beta     106.271
_cell_angle_gamma    90

_symmetry_space_group_name_H-M    "P 1"
_symmetry_Int_Tables_number       1

loop_
  _symmetry_equiv_pos_as_xyz
  'x, y, z'

loop_
  _atom_site_type_symbol
  _atom_site_label
  _atom_site_symmetry_multiplicity
  _atom_site_fract_x
  _atom_site_fract_y
  _atom_site_fract_z
  _atom_site_occupancy
  _atom_site_charge
Eu  Eu1       1.0  0.78103  0.01906  0.52029  1.0000 2.0965594551
Eu  Eu2       1.0  0.21897  0.51906  0.97971  1.0000 2.0965594551
Eu  Eu3       1.0  0.21897  0.98094  0.47971  1.0000 2.0965594551
Eu  Eu4       1.0  0.78103  0.48094  0.02029  1.0000 2.0965594551
H   H1        1.0  0.05556  0.92210  0.59985  1.0000 0.377136772
H   H2        1.0  0.94444  0.42210  0.90015  1.0000 0.377136772
H   H3        1.0  0.94444  0.07790  0.40015  1.0000 0.377136772
H   H4        1.0  0.05556  0.57790  0.09985  1.0000 0.377136772
H   H5        1.0  0.96849  0.94644  0.63499  1.0000 0.3483055061
H   H6        1.0  0.03151  0.44644  0.86501  1.0000 0.3483055061
H   H7        1.0  0.03151  0.05356  0.36501  1.0000 0.3483055061
H   H8        1.0  0.96849  0.55356  0.13499  1.0000 0.3483055061
H   H9        1.0  0.60531  0.05421  0.60241  1.0000 0.3737915656
H   H10       1.0  0.39469  0.55421  0.89759  1.0000 0.3737915656
H   H11       1.0  0.39469  0.94579  0.39759  1.0000 0.3737915656
H   H12       1.0  0.60531  0.44579  0.10241  1.0000 0.3737915656
H   H13       1.0  0.73790  0.00978  0.63483  1.0000 0.3329880884
H   H14       1.0  0.26210  0.50978  0.86517  1.0000 0.3329880884
H   H15       1.0  0.26210  0.99022  0.36517  1.0000 0.3329880884
H   H16       1.0  0.73790  0.49022  0.13483  1.0000 0.3329880884
H   H17       1.0  0.68860  0.30586  0.48398  1.0000 0.1357057443
H   H18       1.0  0.31140  0.80586  0.01602  1.0000 0.1357057443
H   H19       1.0  0.31140  0.69414  0.51602  1.0000 0.1357057443
H   H20       1.0  0.68860  0.19414  0.98398  1.0000 0.1357057443
H   H21       1.0  0.29066  0.24058  0.37131  1.0000 0.1212876316
H   H22       1.0  0.70934  0.74058  0.12869  1.0000 0.1212876316
H   H23       1.0  0.70934  0.75942  0.62869  1.0000 0.1212876316
H   H24       1.0  0.29066  0.25942  0.87131  1.0000 0.1212876316
H   H25       1.0  0.31414  0.38729  0.31875  1.0000 0.1212876316
H   H26       1.0  0.68586  0.88729  0.18125  1.0000 0.1212876316
H   H27       1.0  0.68586  0.61271  0.68125  1.0000 0.1212876316
H   H28       1.0  0.31414  0.11271  0.81875  1.0000 0.1212876316
H   H29       1.0  0.71514  0.75586  0.47658  1.0000 0.1294776706
H   H30       1.0  0.28486  0.25586  0.02342  1.0000 0.1294776706
H   H31       1.0  0.28486  0.24414  0.52342  1.0000 0.1294776706
H   H32       1.0  0.71514  0.74414  0.97658  1.0000 0.1294776706
H   H33       1.0  0.46942  0.38180  0.16944  1.0000 0.1212876316
H   H34       1.0  0.53058  0.88180  0.33056  1.0000 0.1212876316
H   H35       1.0  0.53058  0.61820  0.83056  1.0000 0.1212876316
H   H36       1.0  0.46942  0.11820  0.66944  1.0000 0.1212876316
H   H37       1.0  0.91467  0.73941  0.35039  1.0000 0.1294776706
H   H38       1.0  0.08533  0.23941  0.14961  1.0000 0.1294776706
H   H39       1.0  0.08533  0.26059  0.64961  1.0000 0.1294776706
H   H40       1.0  0.91467  0.76059  0.85039  1.0000 0.1294776706
H   H41       1.0  0.30319  0.67270  0.17411  1.0000 0.1212876316
H   H42       1.0  0.69681  0.17270  0.32589  1.0000 0.1212876316
H   H43       1.0  0.69681  0.32730  0.82589  1.0000 0.1212876316
H   H44       1.0  0.30319  0.82730  0.67411  1.0000 0.1212876316
H   H45       1.0  0.71426  0.45297  0.43229  1.0000 0.1212876316
H   H46       1.0  0.28574  0.95297  0.06771  1.0000 0.1212876316
H   H47       1.0  0.28574  0.54703  0.56771  1.0000 0.1212876316
H   H48       1.0  0.71426  0.04703  0.93229  1.0000 0.1212876316
H   H49       1.0  0.74024  0.61496  0.30490  1.0000 0.1212876316
H   H50       1.0  0.25976  0.11496  0.19510  1.0000 0.1212876316
H   H51       1.0  0.25976  0.38504  0.69510  1.0000 0.1212876316
H   H52       1.0  0.74024  0.88504  0.80490  1.0000 0.1212876316
H   H53       1.0  0.38362  0.67028  0.27275  1.0000 0.1294776706
H   H54       1.0  0.61638  0.17028  0.22725  1.0000 0.1294776706
H   H55       1.0  0.61638  0.32972  0.72725  1.0000 0.1294776706
H   H56       1.0  0.38362  0.82972  0.77275  1.0000 0.1294776706
H   H57       1.0  0.54964  0.37842  0.26817  1.0000 0.1294776706
H   H58       1.0  0.45036  0.87842  0.23183  1.0000 0.1294776706
H   H59       1.0  0.45036  0.62158  0.73183  1.0000 0.1294776706
H   H60       1.0  0.54964  0.12158  0.76817  1.0000 0.1294776706
H   H61       1.0  0.53952  0.63267  0.43131  1.0000 0.1294776706
H   H62       1.0  0.46048  0.13267  0.06869  1.0000 0.1294776706
H   H63       1.0  0.46048  0.36733  0.56869  1.0000 0.1294776706
H   H64       1.0  0.53952  0.86733  0.93131  1.0000 0.1294776706
C   C1        1.0  0.48608  0.25990  0.43358  1.0000 -0.0575526269
C   C2        1.0  0.51392  0.75990  0.06642  1.0000 -0.0575526269
C   C3        1.0  0.51392  0.74010  0.56642  1.0000 -0.0575526269
C   C4        1.0  0.48608  0.24010  0.93358  1.0000 -0.0575526269
C   C5        1.0  0.51510  0.43680  0.37070  1.0000 0.1893088644
C   C6        1.0  0.48490  0.93680  0.12930  1.0000 0.1893088644
C   C7        1.0  0.48490  0.56320  0.62930  1.0000 0.1893088644
C   C8        1.0  0.51510  0.06320  0.87070  1.0000 0.1893088644
C   C9        1.0  0.61168  0.32280  0.45068  1.0000 -0.0695191162
C   C10       1.0  0.38832  0.82280  0.04932  1.0000 -0.0695191162
C   C11       1.0  0.38832  0.67720  0.54932  1.0000 -0.0695191162
C   C12       1.0  0.61168  0.17720  0.95068  1.0000 -0.0695191162
C   C13       1.0  0.95587  0.83120  0.44997  1.0000 0.6201703003
C   C14       1.0  0.04413  0.33120  0.05003  1.0000 0.6201703003
C   C15       1.0  0.04413  0.16880  0.55003  1.0000 0.6201703003
C   C16       1.0  0.95587  0.66880  0.94997  1.0000 0.6201703003
C   C17       1.0  0.46904  0.16670  0.46714  1.0000 0.6430592736
C   C18       1.0  0.53096  0.66667  0.03286  1.0000 0.6430592736
C   C19       1.0  0.53096  0.83330  0.53286  1.0000 0.6430592736
C   C20       1.0  0.46904  0.33333  0.96714  1.0000 0.6430592736
C   C21       1.0  0.38040  0.52830  0.16240  1.0000 -0.0537820632
C   C22       1.0  0.61960  0.02830  0.33760  1.0000 -0.0537820632
C   C23       1.0  0.61960  0.47170  0.83760  1.0000 -0.0537820632
C   C24       1.0  0.38040  0.97170  0.66240  1.0000 -0.0537820632
C   C25       1.0  0.37625  0.28430  0.38395  1.0000 -0.0840373212
C   C26       1.0  0.62375  0.78430  0.11605  1.0000 -0.0840373212
C   C27       1.0  0.62375  0.71570  0.61605  1.0000 -0.0840373212
C   C28       1.0  0.37625  0.21570  0.88395  1.0000 -0.0840373212
C   C29       1.0  0.39008  0.37180  0.35258  1.0000 -0.1991214503
C   C30       1.0  0.60992  0.87180  0.14742  1.0000 -0.1991214503
C   C31       1.0  0.60992  0.62820  0.64742  1.0000 -0.1991214503
C   C32       1.0  0.39008  0.12820  0.85258  1.0000 -0.1991214503
C   C33       1.0  0.47510  0.52450  0.27950  1.0000 0.1812256327
C   C34       1.0  0.52490  0.02450  0.22050  1.0000 0.1812256327
C   C35       1.0  0.52490  0.47550  0.72050  1.0000 0.1812256327
C   C36       1.0  0.47510  0.97550  0.77950  1.0000 0.1812256327
C   C37       1.0  0.72150  0.72610  0.44210  1.0000 -0.0695191162
C   C38       1.0  0.27850  0.22610  0.05790  1.0000 -0.0695191162
C   C39       1.0  0.27850  0.27390  0.55790  1.0000 -0.0695191162
C   C40       1.0  0.72150  0.77390  0.94210  1.0000 -0.0695191162
C   C41       1.0  0.45261  0.44040  0.19041  1.0000 -0.0892378675
C   C42       1.0  0.54739  0.94040  0.30959  1.0000 -0.0892378675
C   C43       1.0  0.54739  0.55960  0.80959  1.0000 -0.0892378675
C   C44       1.0  0.45261  0.05960  0.69041  1.0000 -0.0892378675
C   C45       1.0  0.83616  0.75740  0.41916  1.0000 -0.0348634017
C   C46       1.0  0.16384  0.25740  0.08084  1.0000 -0.0348634017
C   C47       1.0  0.16384  0.24260  0.58084  1.0000 -0.0348634017
C   C48       1.0  0.83616  0.74260  0.91916  1.0000 -0.0348634017
C   C49       1.0  0.83999  0.71620  0.36729  1.0000 -0.0840373212
C   C50       1.0  0.16001  0.21620  0.13271  1.0000 -0.0840373212
C   C51       1.0  0.16001  0.28380  0.63271  1.0000 -0.0840373212
C   C52       1.0  0.83999  0.78380  0.86729  1.0000 -0.0840373212
C   C53       1.0  0.35406  0.61330  0.19326  1.0000 -0.0892378675
C   C54       1.0  0.64594  0.11330  0.30674  1.0000 -0.0892378675
C   C55       1.0  0.64594  0.38670  0.80674  1.0000 -0.0892378675
C   C56       1.0  0.35406  0.88670  0.69326  1.0000 -0.0892378675
C   C57       1.0  0.62709  0.41050  0.41989  1.0000 -0.1991214503
C   C58       1.0  0.37291  0.91050  0.08011  1.0000 -0.1991214503
C   C59       1.0  0.37291  0.58950  0.58011  1.0000 -0.1991214503
C   C60       1.0  0.62709  0.08950  0.91989  1.0000 -0.1991214503
C   C61       1.0  0.33060  0.53030  0.10010  1.0000 0.5592216453
C   C62       1.0  0.66940  0.03030  0.39990  1.0000 0.5592216453
C   C63       1.0  0.66940  0.46970  0.89990  1.0000 0.5592216453
C   C64       1.0  0.33060  0.96970  0.60010  1.0000 0.5592216453
C   C65       1.0  0.73665  0.64230  0.34025  1.0000 -0.1991214503
C   C66       1.0  0.26335  0.14230  0.15975  1.0000 -0.1991214503
C   C67       1.0  0.26335  0.35770  0.65975  1.0000 -0.1991214503
C   C68       1.0  0.73665  0.85770  0.84025  1.0000 -0.1991214503
C   C69       1.0  0.62719  0.60790  0.36489  1.0000 0.1812256327
C   C70       1.0  0.37281  0.10790  0.13511  1.0000 0.1812256327
C   C71       1.0  0.37281  0.39210  0.63511  1.0000 0.1812256327
C   C72       1.0  0.62719  0.89210  0.86489  1.0000 0.1812256327
C   C73       1.0  0.40140  0.61200  0.25180  1.0000 -0.1899100243
C   C74       1.0  0.59860  0.11200  0.24820  1.0000 -0.1899100243
C   C75       1.0  0.59860  0.38800  0.74820  1.0000 -0.1899100243
C   C76       1.0  0.40140  0.88800  0.75180  1.0000 -0.1899100243
C   C77       1.0  0.50020  0.43830  0.24900  1.0000 -0.1899100243
C   C78       1.0  0.49980  0.93830  0.25100  1.0000 -0.1899100243
C   C79       1.0  0.49980  0.56170  0.75100  1.0000 -0.1899100243
C   C80       1.0  0.50020  0.06170  0.74900  1.0000 -0.1899100243
C   C81       1.0  0.61765  0.65280  0.41545  1.0000 -0.1899100243
C   C82       1.0  0.38235  0.15280  0.08455  1.0000 -0.1899100243
C   C83       1.0  0.38235  0.34720  0.58455  1.0000 -0.1899100243
C   C84       1.0  0.61765  0.84720  0.91545  1.0000 -0.1899100243
N   N1        1.0  0.52785  0.52630  0.33945  1.0000 -0.1758522974
N   N2        1.0  0.47215  0.02630  0.16055  1.0000 -0.1758522974
N   N3        1.0  0.47215  0.47370  0.66055  1.0000 -0.1758522974
N   N4        1.0  0.52785  0.97370  0.83945  1.0000 -0.1758522974
O   O1        1.0  0.97089  0.95120  0.60009  1.0000 -0.7785533765
O   O2        1.0  0.02911  0.45120  0.89991  1.0000 -0.7785533765
O   O3        1.0  0.02911  0.04880  0.39991  1.0000 -0.7785533765
O   O4        1.0  0.97089  0.54880  0.10009  1.0000 -0.7785533765
O   O5        1.0  0.58174  0.13510  0.50464  1.0000 -0.6560364464
O   O6        1.0  0.41826  0.63510  0.99536  1.0000 -0.6560364464
O   O7        1.0  0.41826  0.86490  0.49536  1.0000 -0.6560364464
O   O8        1.0  0.58174  0.36490  0.00464  1.0000 -0.6560364464
O   O9        1.0  0.22764  0.59140  0.07434  1.0000 -0.6103770832
O   O10       1.0  0.77236  0.09140  0.42566  1.0000 -0.6103770832
O   O11       1.0  0.77236  0.40860  0.92566  1.0000 -0.6103770832
O   O12       1.0  0.22764  0.90860  0.57434  1.0000 -0.6103770832
O   O13       1.0  0.34041  0.12580  0.45601  1.0000 -0.6896035323
O   O14       1.0  0.65959  0.62580  0.04399  1.0000 -0.6896035323
O   O15       1.0  0.65959  0.87420  0.54399  1.0000 -0.6896035323
O   O16       1.0  0.34041  0.37420  0.95601  1.0000 -0.6896035323
O   O17       1.0  0.92880  0.89890  0.48300  1.0000 -0.7156538466
O   O18       1.0  0.07120  0.39890  0.01700  1.0000 -0.7156538466
O   O19       1.0  0.07120  0.10110  0.51700  1.0000 -0.7156538466
O   O20       1.0  0.92880  0.60110  0.98300  1.0000 -0.7156538466
O   O21       1.0  0.70364  0.05860  0.60954  1.0000 -0.7399724821
O   O22       1.0  0.29636  0.55860  0.89046  1.0000 -0.7399724821
O   O23       1.0  0.29636  0.94140  0.39046  1.0000 -0.7399724821
O   O24       1.0  0.70364  0.44140  0.10954  1.0000 -0.7399724821
O   O25       1.0  0.39189  0.46880  0.07279  1.0000 -0.6275603274
O   O26       1.0  0.60811  0.96880  0.42721  1.0000 -0.6275603274
O   O27       1.0  0.60811  0.53120  0.92721  1.0000 -0.6275603274
O   O28       1.0  0.39189  0.03120  0.57279  1.0000 -0.6275603274
O   O29       1.0  0.08317  0.82420  0.44137  1.0000 -0.6213221053
O   O30       1.0  0.91683  0.32420  0.05863  1.0000 -0.6213221053
O   O31       1.0  0.91683  0.17580  0.55863  1.0000 -0.6213221053
O   O32       1.0  0.08317  0.67580  0.94137  1.0000 -0.6213221053
