# DDEC6 charges by PACMAN v1.1 (https://github.com/mtap-research/PACMAN-charge/)
data_2024[Cd][nan]3[FSR]10
_chemical_formula_sum              "Cd4 H72 C80 N12 O20"
_cell_length_a       20.465
_cell_length_b       6.3257
_cell_length_c       21.516
_cell_angle_alpha    90
_cell_angle_beta     117.404
_cell_angle_gamma    90

_symmetry_space_group_name_H-M    "P 1"
_symmetry_Int_Tables_number       1

loop_
  _symmetry_equiv_pos_as_xyz
  'x, y, z'

loop_
  _atom_site_type_symbol
  _atom_site_label
  _atom_site_symmetry_multiplicity
  _atom_site_fract_x
  _atom_site_fract_y
  _atom_site_fract_z
  _atom_site_occupancy
  _atom_site_charge
Cd  Cd1       1.0  0.58434  0.61472  0.90157  1.0000 0.8765808018
Cd  Cd2       1.0  0.91566  0.61472  0.09843  1.0000 0.8765808018
Cd  Cd3       1.0  0.41566  0.38528  0.09843  1.0000 0.8765808018
Cd  Cd4       1.0  0.08434  0.38528  0.90157  1.0000 0.8765808018
H   H1        1.0  0.61747  0.19495  0.90403  1.0000 0.3449040325
H   H2        1.0  0.88253  0.19495  0.09597  1.0000 0.3449040325
H   H3        1.0  0.38253  0.80505  0.09597  1.0000 0.3449040325
H   H4        1.0  0.11747  0.80505  0.90403  1.0000 0.3512519987
H   H5        1.0  0.55007  0.19637  0.90063  1.0000 0.3512519987
H   H6        1.0  0.94993  0.19637  0.09937  1.0000 0.3512519987
H   H7        1.0  0.44993  0.80363  0.09937  1.0000 0.3512519987
H   H8        1.0  0.05007  0.80363  0.90063  1.0000 0.3512519987
H   H9        1.0  0.32174  0.46819  0.95801  1.0000 0.2910153838
H   H10       1.0  0.17826  0.46819  0.04199  1.0000 0.2910153838
H   H11       1.0  0.67826  0.53181  0.04199  1.0000 0.2910153838
H   H12       1.0  0.82174  0.53181  0.95801  1.0000 0.2910153838
H   H13       1.0  0.39402  0.46674  0.96311  1.0000 0.2910153838
H   H14       1.0  0.10598  0.46674  0.03689  1.0000 0.2910153838
H   H15       1.0  0.60598  0.53326  0.03689  1.0000 0.2910153838
H   H16       1.0  0.89402  0.53326  0.96311  1.0000 0.2910153838
H   H17       1.0  0.31797  0.66788  0.85493  1.0000 0.1206949841
H   H18       1.0  0.18203  0.66788  0.14507  1.0000 0.1206949841
H   H19       1.0  0.68203  0.33212  0.14507  1.0000 0.1206949841
H   H20       1.0  0.81797  0.33212  0.85493  1.0000 0.1206949841
H   H21       1.0  0.22246  0.83997  0.86217  1.0000 0.1206949841
H   H22       1.0  0.27754  0.83997  0.13783  1.0000 0.1206949841
H   H23       1.0  0.77754  0.16003  0.13783  1.0000 0.1206949841
H   H24       1.0  0.72246  0.16003  0.86217  1.0000 0.1206949841
H   H25       1.0  0.45084  0.16079  0.94864  1.0000 0.1380670937
H   H26       1.0  0.04916  0.16079  0.05136  1.0000 0.1380670937
H   H27       1.0  0.54916  0.83921  0.05136  1.0000 0.1380670937
H   H28       1.0  0.95084  0.83921  0.94864  1.0000 0.1380670937
H   H29       1.0  0.59349  0.27258  0.78732  1.0000 0.1268676342
H   H30       1.0  0.90651  0.27258  0.21268  1.0000 0.1268676342
H   H31       1.0  0.40651  0.72742  0.21268  1.0000 0.1268676342
H   H32       1.0  0.09349  0.72742  0.78732  1.0000 0.1268676342
H   H33       1.0  0.54298  0.29766  0.66029  1.0000 0.1206949841
H   H34       1.0  0.95702  0.29766  0.33971  1.0000 0.1206949841
H   H35       1.0  0.45702  0.70234  0.33971  1.0000 0.1206949841
H   H36       1.0  0.04298  0.70234  0.66029  1.0000 0.1206949841
H   H37       1.0  0.47509  0.90469  0.77478  1.0000 0.1653987439
H   H38       1.0  0.02491  0.90469  0.22522  1.0000 0.1653987439
H   H39       1.0  0.52491  0.09531  0.22522  1.0000 0.1653987439
H   H40       1.0  0.97509  0.09531  0.77478  1.0000 0.1653987439
H   H41       1.0  0.40529  0.82223  0.70891  1.0000 0.1608552309
H   H42       1.0  0.09471  0.82223  0.29109  1.0000 0.1608552309
H   H43       1.0  0.59471  0.17777  0.29109  1.0000 0.1608552309
H   H44       1.0  0.90529  0.17777  0.70891  1.0000 0.1608552309
H   H45       1.0  0.46407  0.95855  0.69945  1.0000 0.1380670937
H   H46       1.0  0.03593  0.95855  0.30055  1.0000 0.1380670937
H   H47       1.0  0.53593  0.04145  0.30055  1.0000 0.1380670937
H   H48       1.0  0.96407  0.04145  0.69945  1.0000 0.1380670937
H   H49       1.0  0.44540  0.79802  0.59713  1.0000 0.1107946843
H   H50       1.0  0.05460  0.79802  0.40287  1.0000 0.1107946843
H   H51       1.0  0.55460  0.20198  0.40287  1.0000 0.1107946843
H   H52       1.0  0.94540  0.20198  0.59713  1.0000 0.1107946843
H   H53       1.0  0.39674  0.59411  0.58185  1.0000 0.1107946843
H   H54       1.0  0.10326  0.59411  0.41815  1.0000 0.1107946843
H   H55       1.0  0.60326  0.40589  0.41815  1.0000 0.1107946843
H   H56       1.0  0.89674  0.40589  0.58185  1.0000 0.1107946843
H   H57       1.0  0.37372  0.29600  0.54606  1.0000 0.1107946843
H   H58       1.0  0.12628  0.29600  0.45394  1.0000 0.1107946843
H   H59       1.0  0.62628  0.70400  0.45394  1.0000 0.1107946843
H   H60       1.0  0.87372  0.70400  0.54606  1.0000 0.1107946843
H   H61       1.0  0.32836  0.00110  0.48012  1.0000 0.1107946843
H   H62       1.0  0.17164  0.00110  0.51988  1.0000 0.1107946843
H   H63       1.0  0.67164  0.99890  0.51988  1.0000 0.1107946843
H   H64       1.0  0.82836  0.99890  0.48012  1.0000 0.1107946843
H   H65       1.0  0.36499  0.90549  0.39700  1.0000 0.1107946843
H   H66       1.0  0.13501  0.90549  0.60300  1.0000 0.1107946843
H   H67       1.0  0.63501  0.09451  0.60300  1.0000 0.1107946843
H   H68       1.0  0.86499  0.09451  0.39700  1.0000 0.1107946843
H   H69       1.0  0.45169  0.09090  0.38477  1.0000 0.1107946843
H   H70       1.0  0.04831  0.09090  0.61523  1.0000 0.1107946843
H   H71       1.0  0.54831  0.90910  0.61523  1.0000 0.1107946843
H   H72       1.0  0.95169  0.90910  0.38477  1.0000 0.1107946843
C   C1        1.0  0.45763  0.78360  0.89968  1.0000 0.5307959588
C   C2        1.0  0.04237  0.78360  0.10032  1.0000 0.5307959588
C   C3        1.0  0.54237  0.21640  0.10032  1.0000 0.5307959588
C   C4        1.0  0.95763  0.21640  0.89968  1.0000 0.5307959588
C   C5        1.0  0.39431  0.89720  0.90155  1.0000 -0.0013266664
C   C6        1.0  0.10569  0.89720  0.09845  1.0000 -0.0013266664
C   C7        1.0  0.60569  0.10280  0.09845  1.0000 -0.0013266664
C   C8        1.0  0.89431  0.10280  0.90155  1.0000 -0.0013266664
C   C9        1.0  0.32543  0.80120  0.87532  1.0000 -0.1293260697
C   C10       1.0  0.17457  0.80120  0.12468  1.0000 -0.1293260697
C   C11       1.0  0.67457  0.19880  0.12468  1.0000 -0.1293260697
C   C12       1.0  0.82543  0.19880  0.87532  1.0000 -0.1293260697
C   C13       1.0  0.26831  0.90480  0.87972  1.0000 -0.0937351389
C   C14       1.0  0.23169  0.90480  0.12028  1.0000 -0.0937351389
C   C15       1.0  0.73169  0.09520  0.12028  1.0000 -0.0937351389
C   C16       1.0  0.76831  0.09520  0.87972  1.0000 -0.0937351389
C   C17       1.0  0.27813  0.10510  0.91006  1.0000 -0.1021841848
C   C18       1.0  0.22187  0.10510  0.08994  1.0000 -0.1021841848
C   C19       1.0  0.72187  0.89490  0.08994  1.0000 -0.1021841848
C   C20       1.0  0.77813  0.89490  0.91006  1.0000 -0.1021841848
C   C21       1.0  0.34766  0.20080  0.93751  1.0000 0.2536585899
C   C22       1.0  0.15234  0.20080  0.06249  1.0000 0.2536585899
C   C23       1.0  0.65234  0.79920  0.06249  1.0000 0.2536585899
C   C24       1.0  0.84766  0.79920  0.93751  1.0000 0.2536585899
C   C25       1.0  0.40503  0.09620  0.93187  1.0000 -0.181905779
C   C26       1.0  0.09497  0.09620  0.06813  1.0000 -0.181905779
C   C27       1.0  0.59497  0.90380  0.06813  1.0000 -0.181905779
C   C28       1.0  0.90503  0.90380  0.93187  1.0000 -0.181905779
C   C29       1.0  0.21206  0.21240  0.90870  1.0000 0.5487502487
C   C30       1.0  0.28794  0.21240  0.09130  1.0000 0.5487502487
C   C31       1.0  0.78794  0.78760  0.09130  1.0000 0.5487502487
C   C32       1.0  0.71206  0.78760  0.90870  1.0000 0.5487502487
C   C33       1.0  0.49713  0.65780  0.72803  1.0000 0.3349038335
C   C34       1.0  0.00287  0.65780  0.27197  1.0000 0.3349038335
C   C35       1.0  0.50287  0.34220  0.27197  1.0000 0.3349038335
C   C36       1.0  0.99713  0.34220  0.72803  1.0000 0.3349038335
C   C37       1.0  0.56305  0.38020  0.75960  1.0000 -0.0412152549
C   C38       1.0  0.93695  0.38020  0.24040  1.0000 -0.0412152549
C   C39       1.0  0.43695  0.61980  0.24040  1.0000 -0.0412152549
C   C40       1.0  0.06305  0.61980  0.75960  1.0000 -0.0412152549
C   C41       1.0  0.53520  0.39210  0.68934  1.0000 -0.1293260697
C   C42       1.0  0.96480  0.39210  0.31066  1.0000 -0.1293260697
C   C43       1.0  0.46480  0.60790  0.31066  1.0000 -0.1293260697
C   C44       1.0  0.03520  0.60790  0.68934  1.0000 -0.1293260697
C   C45       1.0  0.45680  0.85300  0.72777  1.0000 -0.5214037923
C   C46       1.0  0.04320  0.85300  0.27223  1.0000 -0.5214037923
C   C47       1.0  0.54320  0.14700  0.27223  1.0000 -0.5214037923
C   C48       1.0  0.95680  0.14700  0.72777  1.0000 -0.5214037923
C   C49       1.0  0.44662  0.64470  0.59761  1.0000 -0.1599599505
C   C50       1.0  0.05338  0.64470  0.40239  1.0000 -0.1599599505
C   C51       1.0  0.55338  0.35530  0.40239  1.0000 -0.1599599505
C   C52       1.0  0.94662  0.35530  0.59761  1.0000 -0.1599599505
C   C53       1.0  0.47505  0.56740  0.54779  1.0000 -0.0173764303
C   C54       1.0  0.02495  0.56740  0.45221  1.0000 -0.0173764303
C   C55       1.0  0.52495  0.43260  0.45221  1.0000 -0.0173764303
C   C56       1.0  0.97505  0.43260  0.54779  1.0000 -0.0173764303
C   C57       1.0  0.44485  0.38660  0.50758  1.0000 0.028649631
C   C58       1.0  0.05515  0.38660  0.49242  1.0000 0.028649631
C   C59       1.0  0.55515  0.61340  0.49242  1.0000 0.028649631
C   C60       1.0  0.94485  0.61340  0.50758  1.0000 0.028649631
C   C61       1.0  0.39040  0.25810  0.51404  1.0000 -0.181905779
C   C62       1.0  0.10960  0.25810  0.48596  1.0000 -0.181905779
C   C63       1.0  0.60960  0.74190  0.48596  1.0000 -0.181905779
C   C64       1.0  0.89040  0.74190  0.51404  1.0000 -0.181905779
C   C65       1.0  0.36290  0.08300  0.47440  1.0000 -0.1021841848
C   C66       1.0  0.13710  0.08300  0.52560  1.0000 -0.1021841848
C   C67       1.0  0.63710  0.91700  0.52560  1.0000 -0.1021841848
C   C68       1.0  0.86290  0.91700  0.47440  1.0000 -0.1021841848
C   C69       1.0  0.38570  0.02350  0.42500  1.0000 -0.0937351389
C   C70       1.0  0.11430  0.02350  0.57500  1.0000 -0.0937351389
C   C71       1.0  0.61430  0.97650  0.57500  1.0000 -0.0937351389
C   C72       1.0  0.88570  0.97650  0.42500  1.0000 -0.0937351389
C   C73       1.0  0.43700  0.13460  0.41767  1.0000 -0.1599599505
C   C74       1.0  0.06300  0.13460  0.58233  1.0000 -0.1599599505
C   C75       1.0  0.56300  0.86540  0.58233  1.0000 -0.1599599505
C   C76       1.0  0.93700  0.86540  0.41767  1.0000 -0.1599599505
C   C77       1.0  0.52991  0.68150  0.54147  1.0000 0.028649631
C   C78       1.0  0.97009  0.68150  0.45853  1.0000 0.028649631
C   C79       1.0  0.47009  0.31850  0.45853  1.0000 0.028649631
C   C80       1.0  0.02991  0.31850  0.54147  1.0000 0.028649631
N   N1        1.0  0.36343  0.39467  0.97412  1.0000 -0.5747582642
N   N2        1.0  0.13657  0.39467  0.02588  1.0000 -0.5747582642
N   N3        1.0  0.63657  0.60533  0.02588  1.0000 -0.5747582642
N   N4        1.0  0.86343  0.60533  0.97412  1.0000 -0.5747582642
N   N5        1.0  0.54024  0.54800  0.78397  1.0000 -0.3571067704
N   N6        1.0  0.95976  0.54800  0.21603  1.0000 -0.3571067704
N   N7        1.0  0.45976  0.45200  0.21603  1.0000 -0.3571067704
N   N8        1.0  0.04024  0.45200  0.78397  1.0000 -0.3571067704
N   N9        1.0  0.49332  0.57050  0.66968  1.0000 -0.0094770817
N   N10       1.0  0.00668  0.57050  0.33032  1.0000 -0.0094770817
N   N11       1.0  0.50668  0.42950  0.33032  1.0000 -0.0094770817
N   N12       1.0  0.99332  0.42950  0.66968  1.0000 -0.0094770817
O   O1        1.0  0.50732  0.89317  0.89598  1.0000 -0.5390960105
O   O2        1.0  0.99268  0.89317  0.10402  1.0000 -0.5390960105
O   O3        1.0  0.49268  0.10683  0.10402  1.0000 -0.5390960105
O   O4        1.0  0.00732  0.10683  0.89598  1.0000 -0.5390960105
O   O5        1.0  0.46024  0.58740  0.90267  1.0000 -0.5390960105
O   O6        1.0  0.03976  0.58740  0.09733  1.0000 -0.5390960105
O   O7        1.0  0.53976  0.41260  0.09733  1.0000 -0.5390960105
O   O8        1.0  0.96024  0.41260  0.90267  1.0000 -0.5390960105
O   O9        1.0  0.21085  0.40941  0.91420  1.0000 -0.5214037923
O   O10       1.0  0.28915  0.40941  0.08580  1.0000 -0.5214037923
O   O11       1.0  0.78915  0.59059  0.08580  1.0000 -0.5214037923
O   O12       1.0  0.71085  0.59059  0.91420  1.0000 -0.5214037923
O   O13       1.0  0.15798  0.10000  0.90026  1.0000 -0.5390960105
O   O14       1.0  0.34202  0.10000  0.09974  1.0000 -0.5390960105
O   O15       1.0  0.84202  0.90000  0.09974  1.0000 -0.5390960105
O   O16       1.0  0.65798  0.90000  0.90026  1.0000 -0.5390960105
O   O17       1.0  0.59279  0.25190  0.92241  1.0000 -0.642293009
O   O18       1.0  0.90721  0.25190  0.07759  1.0000 -0.642293009
O   O19       1.0  0.40721  0.74810  0.07759  1.0000 -0.642293009
O   O20       1.0  0.09279  0.74810  0.92241  1.0000 -0.642293009
