# DDEC6 charges by PACMAN v1.1 (https://github.com/mtap-research/PACMAN-charge/)
data_2024[Cu][pcu]3[FSR]3
_chemical_formula_sum              "Cu8 H128 C120 N8 O32"
_cell_length_a       14.0161
_cell_length_b       14.5103
_cell_length_c       15.424
_cell_angle_alpha    90
_cell_angle_beta     90
_cell_angle_gamma    90

_symmetry_space_group_name_H-M    "P 1"
_symmetry_Int_Tables_number       1

loop_
  _symmetry_equiv_pos_as_xyz
  'x, y, z'

loop_
  _atom_site_type_symbol
  _atom_site_label
  _atom_site_symmetry_multiplicity
  _atom_site_fract_x
  _atom_site_fract_y
  _atom_site_fract_z
  _atom_site_occupancy
  _atom_site_charge
Cu  Cu1       1.0  0.81028  0.50000  0.25000  1.0000 0.7666450029
Cu  Cu2       1.0  0.81028  0.00000  0.75000  1.0000 0.7666450029
Cu  Cu3       1.0  0.62421  0.00000  0.75000  1.0000 0.7509872949
Cu  Cu4       1.0  0.62421  0.50000  0.25000  1.0000 0.7509872949
Cu  Cu5       1.0  0.18972  0.00000  0.25000  1.0000 0.7666450029
Cu  Cu6       1.0  0.18972  0.50000  0.75000  1.0000 0.7666450029
Cu  Cu7       1.0  0.37579  0.50000  0.75000  1.0000 0.7509872949
Cu  Cu8       1.0  0.37579  0.00000  0.25000  1.0000 0.7509872949
H   H1        1.0  0.45423  0.93343  0.86172  1.0000 0.1089266361
H   H2        1.0  0.45423  0.06657  0.63828  1.0000 0.1089266361
H   H3        1.0  0.45423  0.43343  0.13828  1.0000 0.1089266361
H   H4        1.0  0.45423  0.56657  0.36172  1.0000 0.1089266361
H   H5        1.0  0.29014  0.93489  0.86571  1.0000 0.129196096
H   H6        1.0  0.29014  0.06511  0.63429  1.0000 0.129196096
H   H7        1.0  0.29014  0.43489  0.13429  1.0000 0.129196096
H   H8        1.0  0.29014  0.56511  0.36571  1.0000 0.129196096
H   H9        1.0  0.60493  0.08724  0.46579  1.0000 0.1020319359
H   H10       1.0  0.60493  0.91276  0.03421  1.0000 0.1020319359
H   H11       1.0  0.60493  0.58724  0.53421  1.0000 0.1020319359
H   H12       1.0  0.60493  0.41276  0.96579  1.0000 0.1020319359
H   H13       1.0  0.56765  0.17631  0.51736  1.0000 0.1089266361
H   H14       1.0  0.56765  0.82369  0.98264  1.0000 0.1089266361
H   H15       1.0  0.56765  0.67631  0.48264  1.0000 0.1089266361
H   H16       1.0  0.56765  0.32369  0.01736  1.0000 0.1089266361
H   H17       1.0  0.57256  0.24734  0.38850  1.0000 0.1089266361
H   H18       1.0  0.57256  0.75266  0.11150  1.0000 0.1089266361
H   H19       1.0  0.57256  0.74734  0.61150  1.0000 0.1089266361
H   H20       1.0  0.57256  0.25266  0.88850  1.0000 0.1089266361
H   H21       1.0  0.63994  0.16957  0.34721  1.0000 0.1020319359
H   H22       1.0  0.63994  0.83043  0.15279  1.0000 0.1020319359
H   H23       1.0  0.63994  0.66957  0.65279  1.0000 0.1020319359
H   H24       1.0  0.63994  0.33043  0.84721  1.0000 0.1020319359
H   H25       1.0  0.85738  0.12814  0.50324  1.0000 0.1020319359
H   H26       1.0  0.85738  0.87186  0.99676  1.0000 0.1020319359
H   H27       1.0  0.85738  0.62814  0.49676  1.0000 0.1020319359
H   H28       1.0  0.85738  0.37186  0.00324  1.0000 0.1020319359
H   H29       1.0  0.78532  0.07734  0.43812  1.0000 0.0874001801
H   H30       1.0  0.78532  0.92266  0.06188  1.0000 0.0874001801
H   H31       1.0  0.78532  0.57734  0.56188  1.0000 0.0874001801
H   H32       1.0  0.78532  0.42266  0.93812  1.0000 0.0874001801
H   H33       1.0  0.68051  0.26361  0.61573  1.0000 0.1020319359
H   H34       1.0  0.68051  0.73639  0.88427  1.0000 0.1020319359
H   H35       1.0  0.68051  0.76361  0.38427  1.0000 0.1020319359
H   H36       1.0  0.68051  0.23639  0.11573  1.0000 0.1020319359
H   H37       1.0  0.79183  0.26039  0.59179  1.0000 0.1020319359
H   H38       1.0  0.79183  0.73961  0.90821  1.0000 0.1020319359
H   H39       1.0  0.79183  0.76039  0.40821  1.0000 0.1020319359
H   H40       1.0  0.79183  0.23961  0.09179  1.0000 0.1020319359
H   H41       1.0  0.81831  0.19117  0.34578  1.0000 0.1020319359
H   H42       1.0  0.81831  0.80883  0.15422  1.0000 0.1020319359
H   H43       1.0  0.81831  0.69117  0.65422  1.0000 0.1020319359
H   H44       1.0  0.81831  0.30883  0.84578  1.0000 0.1020319359
H   H45       1.0  0.86376  0.25410  0.42065  1.0000 0.1089266361
H   H46       1.0  0.86376  0.74590  0.07935  1.0000 0.1089266361
H   H47       1.0  0.86376  0.75410  0.57935  1.0000 0.1089266361
H   H48       1.0  0.86376  0.24590  0.92065  1.0000 0.1089266361
H   H49       1.0  0.97985  0.90004  0.83383  1.0000 0.1170049885
H   H50       1.0  0.97985  0.09996  0.66617  1.0000 0.1170049885
H   H51       1.0  0.97985  0.40004  0.16617  1.0000 0.1170049885
H   H52       1.0  0.97985  0.59996  0.33383  1.0000 0.1170049885
H   H53       1.0  0.14474  0.89466  0.83323  1.0000 0.1402139401
H   H54       1.0  0.14474  0.10534  0.66677  1.0000 0.1402139401
H   H55       1.0  0.14474  0.39466  0.16677  1.0000 0.1402139401
H   H56       1.0  0.14474  0.60534  0.33323  1.0000 0.1402139401
H   H57       1.0  0.75790  0.37336  0.49867  1.0000 0.1020319359
H   H58       1.0  0.75790  0.62664  0.00133  1.0000 0.1020319359
H   H59       1.0  0.75790  0.87336  0.50133  1.0000 0.1020319359
H   H60       1.0  0.75790  0.12664  0.99867  1.0000 0.1020319359
H   H61       1.0  0.64573  0.35160  0.50143  1.0000 0.1089266361
H   H62       1.0  0.64573  0.64840  0.99857  1.0000 0.1020319359
H   H63       1.0  0.64573  0.85160  0.49857  1.0000 0.1089266361
H   H64       1.0  0.64573  0.14840  0.00143  1.0000 0.1089266361
H   H65       1.0  0.54577  0.56657  0.86172  1.0000 0.1089266361
H   H66       1.0  0.54577  0.43343  0.63828  1.0000 0.1089266361
H   H67       1.0  0.54577  0.06657  0.13828  1.0000 0.1089266361
H   H68       1.0  0.54577  0.93343  0.36172  1.0000 0.1089266361
H   H69       1.0  0.70986  0.56511  0.86571  1.0000 0.129196096
H   H70       1.0  0.70986  0.43489  0.63429  1.0000 0.129196096
H   H71       1.0  0.70986  0.06511  0.13429  1.0000 0.129196096
H   H72       1.0  0.70986  0.93489  0.36571  1.0000 0.129196096
H   H73       1.0  0.39507  0.41276  0.46579  1.0000 0.1020319359
H   H74       1.0  0.39507  0.58724  0.03421  1.0000 0.1020319359
H   H75       1.0  0.39507  0.91276  0.53421  1.0000 0.1020319359
H   H76       1.0  0.39507  0.08724  0.96579  1.0000 0.1020319359
H   H77       1.0  0.43235  0.32369  0.51736  1.0000 0.1089266361
H   H78       1.0  0.43235  0.67631  0.98264  1.0000 0.1089266361
H   H79       1.0  0.43235  0.82369  0.48264  1.0000 0.1089266361
H   H80       1.0  0.43235  0.17631  0.01736  1.0000 0.1089266361
H   H81       1.0  0.42744  0.25266  0.38850  1.0000 0.1089266361
H   H82       1.0  0.42744  0.74734  0.11150  1.0000 0.1089266361
H   H83       1.0  0.42744  0.75266  0.61150  1.0000 0.1089266361
H   H84       1.0  0.42744  0.24734  0.88850  1.0000 0.1089266361
H   H85       1.0  0.36006  0.33043  0.34721  1.0000 0.1020319359
H   H86       1.0  0.36006  0.66957  0.15279  1.0000 0.1020319359
H   H87       1.0  0.36006  0.83043  0.65279  1.0000 0.1020319359
H   H88       1.0  0.36006  0.16957  0.84721  1.0000 0.1020319359
H   H89       1.0  0.14262  0.37186  0.50324  1.0000 0.1020319359
H   H90       1.0  0.14262  0.62814  0.99676  1.0000 0.1020319359
H   H91       1.0  0.14262  0.87186  0.49676  1.0000 0.1020319359
H   H92       1.0  0.14262  0.12814  0.00324  1.0000 0.1020319359
H   H93       1.0  0.21468  0.42266  0.43812  1.0000 0.0874001801
H   H94       1.0  0.21468  0.57734  0.06188  1.0000 0.0874001801
H   H95       1.0  0.21468  0.92266  0.56188  1.0000 0.0874001801
H   H96       1.0  0.21468  0.07734  0.93812  1.0000 0.0874001801
H   H97       1.0  0.31949  0.23639  0.61573  1.0000 0.1020319359
H   H98       1.0  0.31949  0.76361  0.88427  1.0000 0.1020319359
H   H99       1.0  0.31949  0.73639  0.38427  1.0000 0.1020319359
H   H100      1.0  0.31949  0.26361  0.11573  1.0000 0.1020319359
H   H101      1.0  0.20817  0.23961  0.59179  1.0000 0.1020319359
H   H102      1.0  0.20817  0.76039  0.90821  1.0000 0.1020319359
H   H103      1.0  0.20817  0.73961  0.40821  1.0000 0.1020319359
H   H104      1.0  0.20817  0.26039  0.09179  1.0000 0.1020319359
H   H105      1.0  0.18169  0.30883  0.34578  1.0000 0.1020319359
H   H106      1.0  0.18169  0.69117  0.15422  1.0000 0.1020319359
H   H107      1.0  0.18169  0.80883  0.65422  1.0000 0.1020319359
H   H108      1.0  0.18169  0.19117  0.84578  1.0000 0.1020319359
H   H109      1.0  0.13624  0.24590  0.42065  1.0000 0.1089266361
H   H110      1.0  0.13624  0.75410  0.07935  1.0000 0.1089266361
H   H111      1.0  0.13624  0.74590  0.57935  1.0000 0.1089266361
H   H112      1.0  0.13624  0.25410  0.92065  1.0000 0.1089266361
H   H113      1.0  0.02015  0.59996  0.83383  1.0000 0.1170049885
H   H114      1.0  0.02015  0.40004  0.66617  1.0000 0.1170049885
H   H115      1.0  0.02015  0.09996  0.16617  1.0000 0.1170049885
H   H116      1.0  0.02015  0.90004  0.33383  1.0000 0.1170049885
H   H117      1.0  0.85526  0.60534  0.83323  1.0000 0.1402139401
H   H118      1.0  0.85526  0.39466  0.66677  1.0000 0.1402139401
H   H119      1.0  0.85526  0.10534  0.16677  1.0000 0.1402139401
H   H120      1.0  0.85526  0.89466  0.33323  1.0000 0.1402139401
H   H121      1.0  0.24210  0.12664  0.49867  1.0000 0.1020319359
H   H122      1.0  0.24210  0.87336  0.00133  1.0000 0.1020319359
H   H123      1.0  0.24210  0.62664  0.50133  1.0000 0.1020319359
H   H124      1.0  0.24210  0.37336  0.99867  1.0000 0.1020319359
H   H125      1.0  0.35427  0.14840  0.50143  1.0000 0.1020319359
H   H126      1.0  0.35427  0.85160  0.99857  1.0000 0.1020319359
H   H127      1.0  0.35427  0.64840  0.49857  1.0000 0.1020319359
H   H128      1.0  0.35427  0.35160  0.00143  1.0000 0.1089266361
C   C1        1.0  0.42070  0.96160  0.81520  1.0000 0.0784212013
C   C2        1.0  0.42070  0.03840  0.68480  1.0000 0.0784212013
C   C3        1.0  0.42070  0.46160  0.18480  1.0000 0.0784212013
C   C4        1.0  0.42070  0.53840  0.31520  1.0000 0.0784212013
C   C5        1.0  0.26990  0.00000  0.75000  1.0000 0.1089266361
C   C6        1.0  0.26990  0.50000  0.25000  1.0000 0.1089266361
C   C7        1.0  0.32230  0.96150  0.81760  1.0000 -0.209007648
C   C8        1.0  0.32230  0.03850  0.68240  1.0000 -0.209007648
C   C9        1.0  0.32230  0.46150  0.18240  1.0000 -0.209007648
C   C10       1.0  0.32230  0.53850  0.31760  1.0000 -0.209007648
C   C11       1.0  0.71590  0.09090  0.60960  1.0000 0.5595059355
C   C12       1.0  0.71590  0.90910  0.89040  1.0000 0.5595059355
C   C13       1.0  0.71590  0.59090  0.39040  1.0000 0.5595059355
C   C14       1.0  0.71590  0.40910  0.10960  1.0000 0.5595059355
C   C15       1.0  0.16360  0.00000  0.75000  1.0000 0.1020319359
C   C16       1.0  0.16360  0.50000  0.25000  1.0000 0.1020319359
C   C17       1.0  0.71920  0.35150  0.33890  1.0000 0.5595059355
C   C18       1.0  0.71920  0.64850  0.16110  1.0000 0.5595059355
C   C19       1.0  0.71920  0.85150  0.66110  1.0000 0.5595059355
C   C20       1.0  0.71920  0.14850  0.83890  1.0000 0.5595059355
C   C21       1.0  0.62030  0.15170  0.48130  1.0000 -0.2022869881
C   C22       1.0  0.62030  0.84830  0.01870  1.0000 -0.2022869881
C   C23       1.0  0.62030  0.65170  0.51870  1.0000 -0.2022869881
C   C24       1.0  0.62030  0.34830  0.98130  1.0000 -0.2022869881
C   C25       1.0  0.71720  0.27510  0.40630  1.0000 0.0534154952
C   C26       1.0  0.71720  0.72490  0.09370  1.0000 0.0534154952
C   C27       1.0  0.71720  0.77510  0.59370  1.0000 0.0534154952
C   C28       1.0  0.71720  0.22490  0.90630  1.0000 0.0534154952
C   C29       1.0  0.71430  0.15500  0.53240  1.0000 0.0534154952
C   C30       1.0  0.71430  0.84500  0.96760  1.0000 0.0534154952
C   C31       1.0  0.71430  0.65500  0.46760  1.0000 0.0534154952
C   C32       1.0  0.71430  0.34500  0.03240  1.0000 0.0534154952
C   C33       1.0  0.63120  0.21060  0.39790  1.0000 -0.2022869881
C   C34       1.0  0.63120  0.78940  0.10210  1.0000 -0.2022869881
C   C35       1.0  0.63120  0.71060  0.60210  1.0000 -0.2022869881
C   C36       1.0  0.63120  0.28940  0.89790  1.0000 -0.2022869881
C   C37       1.0  0.79750  0.13540  0.46990  1.0000 -0.2022869881
C   C38       1.0  0.79750  0.86460  0.03010  1.0000 -0.2022869881
C   C39       1.0  0.79750  0.63540  0.53010  1.0000 -0.2022869881
C   C40       1.0  0.79750  0.36460  0.96990  1.0000 -0.2022869881
C   C41       1.0  0.72660  0.25290  0.56820  1.0000 -0.209007648
C   C42       1.0  0.72660  0.74710  0.93180  1.0000 -0.209007648
C   C43       1.0  0.72660  0.75290  0.43180  1.0000 -0.209007648
C   C44       1.0  0.72660  0.24710  0.06820  1.0000 -0.209007648
C   C45       1.0  0.80790  0.21590  0.40490  1.0000 -0.209007648
C   C46       1.0  0.80790  0.78410  0.09510  1.0000 -0.209007648
C   C47       1.0  0.80790  0.71590  0.59510  1.0000 -0.209007648
C   C48       1.0  0.80790  0.28410  0.90490  1.0000 -0.209007648
C   C49       1.0  0.01400  0.94190  0.79810  1.0000 0.0874001801
C   C50       1.0  0.01400  0.05810  0.70190  1.0000 0.0874001801
C   C51       1.0  0.01400  0.44190  0.20190  1.0000 0.0874001801
C   C52       1.0  0.01400  0.55810  0.29810  1.0000 0.0874001801
C   C53       1.0  0.11250  0.93910  0.79870  1.0000 -0.1916811729
C   C54       1.0  0.11250  0.06090  0.70130  1.0000 -0.1916811729
C   C55       1.0  0.11250  0.43910  0.20130  1.0000 -0.1916811729
C   C56       1.0  0.11250  0.56090  0.29870  1.0000 -0.1916811729
C   C57       1.0  0.70970  0.32360  0.49500  1.0000 -0.209007648
C   C58       1.0  0.70970  0.67640  0.00500  1.0000 -0.209007648
C   C59       1.0  0.70970  0.82360  0.50500  1.0000 -0.209007648
C   C60       1.0  0.70970  0.17640  0.99500  1.0000 -0.209007648
C   C61       1.0  0.57930  0.53840  0.81520  1.0000 0.0784212013
C   C62       1.0  0.57930  0.46160  0.68480  1.0000 0.0784212013
C   C63       1.0  0.57930  0.03840  0.18480  1.0000 0.0784212013
C   C64       1.0  0.57930  0.96160  0.31520  1.0000 0.0784212013
C   C65       1.0  0.73010  0.50000  0.75000  1.0000 0.1089266361
C   C66       1.0  0.73010  0.00000  0.25000  1.0000 0.1089266361
C   C67       1.0  0.67770  0.53850  0.81760  1.0000 -0.209007648
C   C68       1.0  0.67770  0.46150  0.68240  1.0000 -0.209007648
C   C69       1.0  0.67770  0.03850  0.18240  1.0000 -0.209007648
C   C70       1.0  0.67770  0.96150  0.31760  1.0000 -0.209007648
C   C71       1.0  0.28410  0.40910  0.60960  1.0000 0.5595059355
C   C72       1.0  0.28410  0.59090  0.89040  1.0000 0.5595059355
C   C73       1.0  0.28410  0.90910  0.39040  1.0000 0.5595059355
C   C74       1.0  0.28410  0.09090  0.10960  1.0000 0.5595059355
C   C75       1.0  0.83640  0.50000  0.75000  1.0000 0.1020319359
C   C76       1.0  0.83640  0.00000  0.25000  1.0000 0.1020319359
C   C77       1.0  0.28080  0.14850  0.33890  1.0000 0.5595059355
C   C78       1.0  0.28080  0.85150  0.16110  1.0000 0.5595059355
C   C79       1.0  0.28080  0.64850  0.66110  1.0000 0.5595059355
C   C80       1.0  0.28080  0.35150  0.83890  1.0000 0.5595059355
C   C81       1.0  0.37970  0.34830  0.48130  1.0000 -0.2022869881
C   C82       1.0  0.37970  0.65170  0.01870  1.0000 -0.2022869881
C   C83       1.0  0.37970  0.84830  0.51870  1.0000 -0.2022869881
C   C84       1.0  0.37970  0.15170  0.98130  1.0000 -0.2022869881
C   C85       1.0  0.28280  0.22490  0.40630  1.0000 0.0534154952
C   C86       1.0  0.28280  0.77510  0.09370  1.0000 0.0534154952
C   C87       1.0  0.28280  0.72490  0.59370  1.0000 0.0534154952
C   C88       1.0  0.28280  0.27510  0.90630  1.0000 0.0534154952
C   C89       1.0  0.28570  0.34500  0.53240  1.0000 0.0534154952
C   C90       1.0  0.28570  0.65500  0.96760  1.0000 0.0534154952
C   C91       1.0  0.28570  0.84500  0.46760  1.0000 0.0534154952
C   C92       1.0  0.28570  0.15500  0.03240  1.0000 0.0534154952
C   C93       1.0  0.36880  0.28940  0.39790  1.0000 -0.2022869881
C   C94       1.0  0.36880  0.71060  0.10210  1.0000 -0.2022869881
C   C95       1.0  0.36880  0.78940  0.60210  1.0000 -0.2022869881
C   C96       1.0  0.36880  0.21060  0.89790  1.0000 -0.2022869881
C   C97       1.0  0.20250  0.36460  0.46990  1.0000 -0.2022869881
C   C98       1.0  0.20250  0.63540  0.03010  1.0000 -0.2022869881
C   C99       1.0  0.20250  0.86460  0.53010  1.0000 -0.2022869881
C   C100      1.0  0.20250  0.13540  0.96990  1.0000 -0.2022869881
C   C101      1.0  0.27340  0.24710  0.56820  1.0000 -0.209007648
C   C102      1.0  0.27340  0.75290  0.93180  1.0000 -0.209007648
C   C103      1.0  0.27340  0.74710  0.43180  1.0000 -0.209007648
C   C104      1.0  0.27340  0.25290  0.06820  1.0000 -0.209007648
C   C105      1.0  0.19210  0.28410  0.40490  1.0000 -0.209007648
C   C106      1.0  0.19210  0.71590  0.09510  1.0000 -0.209007648
C   C107      1.0  0.19210  0.78410  0.59510  1.0000 -0.209007648
C   C108      1.0  0.19210  0.21590  0.90490  1.0000 -0.209007648
C   C109      1.0  0.98600  0.55810  0.79810  1.0000 0.0874001801
C   C110      1.0  0.98600  0.44190  0.70190  1.0000 0.0874001801
C   C111      1.0  0.98600  0.05810  0.20190  1.0000 0.0874001801
C   C112      1.0  0.98600  0.94190  0.29810  1.0000 0.0874001801
C   C113      1.0  0.88750  0.56090  0.79870  1.0000 -0.1916811729
C   C114      1.0  0.88750  0.43910  0.70130  1.0000 -0.1916811729
C   C115      1.0  0.88750  0.06090  0.20130  1.0000 -0.1916811729
C   C116      1.0  0.88750  0.93910  0.29870  1.0000 -0.1916811729
C   C117      1.0  0.29030  0.17640  0.49500  1.0000 -0.209007648
C   C118      1.0  0.29030  0.82360  0.00500  1.0000 -0.209007648
C   C119      1.0  0.29030  0.67640  0.50500  1.0000 -0.209007648
C   C120      1.0  0.29030  0.32360  0.99500  1.0000 -0.209007648
N   N1        1.0  0.47200  0.00000  0.75000  1.0000 -0.2417973394
N   N2        1.0  0.47200  0.50000  0.25000  1.0000 -0.2417973394
N   N3        1.0  0.96590  0.00000  0.75000  1.0000 -0.2280795837
N   N4        1.0  0.96590  0.50000  0.25000  1.0000 -0.2280795837
N   N5        1.0  0.52800  0.50000  0.75000  1.0000 -0.2417973394
N   N6        1.0  0.52800  0.00000  0.25000  1.0000 -0.2417973394
N   N7        1.0  0.03410  0.50000  0.75000  1.0000 -0.2280795837
N   N8        1.0  0.03410  0.00000  0.25000  1.0000 -0.2280795837
O   O1        1.0  0.63720  0.05690  0.63540  1.0000 -0.5316144491
O   O2        1.0  0.63720  0.94310  0.86460  1.0000 -0.5316144491
O   O3        1.0  0.63720  0.55690  0.36460  1.0000 -0.5316144491
O   O4        1.0  0.63720  0.44310  0.13540  1.0000 -0.5316144491
O   O5        1.0  0.64100  0.37570  0.30440  1.0000 -0.5208297262
O   O6        1.0  0.64100  0.62430  0.19560  1.0000 -0.5208297262
O   O7        1.0  0.64100  0.87570  0.69560  1.0000 -0.5208297262
O   O8        1.0  0.64100  0.12430  0.80440  1.0000 -0.5208297262
O   O9        1.0  0.79480  0.07880  0.64780  1.0000 -0.5316144491
O   O10       1.0  0.79480  0.92120  0.85220  1.0000 -0.5316144491
O   O11       1.0  0.79480  0.57880  0.35220  1.0000 -0.5316144491
O   O12       1.0  0.79480  0.42120  0.14780  1.0000 -0.5316144491
O   O13       1.0  0.79860  0.39150  0.32670  1.0000 -0.5316144491
O   O14       1.0  0.79860  0.60850  0.17330  1.0000 -0.5316144491
O   O15       1.0  0.79860  0.89150  0.67330  1.0000 -0.5316144491
O   O16       1.0  0.79860  0.10850  0.82670  1.0000 -0.5316144491
O   O17       1.0  0.36280  0.44310  0.63540  1.0000 -0.5316144491
O   O18       1.0  0.36280  0.55690  0.86460  1.0000 -0.5316144491
O   O19       1.0  0.36280  0.94310  0.36460  1.0000 -0.5316144491
O   O20       1.0  0.36280  0.05690  0.13540  1.0000 -0.5316144491
O   O21       1.0  0.35900  0.12430  0.30440  1.0000 -0.5208297262
O   O22       1.0  0.35900  0.87570  0.19560  1.0000 -0.5208297262
O   O23       1.0  0.35900  0.62430  0.69560  1.0000 -0.5208297262
O   O24       1.0  0.35900  0.37570  0.80440  1.0000 -0.5208297262
O   O25       1.0  0.20520  0.42120  0.64780  1.0000 -0.5316144491
O   O26       1.0  0.20520  0.57880  0.85220  1.0000 -0.5316144491
O   O27       1.0  0.20520  0.92120  0.35220  1.0000 -0.5316144491
O   O28       1.0  0.20520  0.07880  0.14780  1.0000 -0.5316144491
O   O29       1.0  0.20140  0.10850  0.32670  1.0000 -0.5316144491
O   O30       1.0  0.20140  0.89150  0.17330  1.0000 -0.5316144491
O   O31       1.0  0.20140  0.60850  0.67330  1.0000 -0.5316144491
O   O32       1.0  0.20140  0.39150  0.82670  1.0000 -0.5316144491
