# DDEC6 charges by PACMAN v1.1 (https://github.com/mtap-research/PACMAN-charge/)
data_2024[La][nan]3[FSR]2
_chemical_formula_sum              "La4 H64 C84 N4 O32"
_cell_length_a       9.3685
_cell_length_b       12.8587
_cell_length_c       24.9247
_cell_angle_alpha    90
_cell_angle_beta     105.764
_cell_angle_gamma    90

_symmetry_space_group_name_H-M    "P 1"
_symmetry_Int_Tables_number       1

loop_
  _symmetry_equiv_pos_as_xyz
  'x, y, z'

loop_
  _atom_site_type_symbol
  _atom_site_label
  _atom_site_symmetry_multiplicity
  _atom_site_fract_x
  _atom_site_fract_y
  _atom_site_fract_z
  _atom_site_occupancy
  _atom_site_charge
La  La1       1.0  0.21655  0.52093  0.47979  1.0000 1.8855502375
La  La2       1.0  0.78345  0.02093  0.02021  1.0000 1.8855502375
La  La3       1.0  0.78345  0.47907  0.52021  1.0000 1.8855502375
La  La4       1.0  0.21655  0.97907  0.97979  1.0000 1.8855502375
H   H1        1.0  0.39917  0.54729  0.39487  1.0000 0.3687705018
H   H2        1.0  0.60083  0.04729  0.10513  1.0000 0.3687705018
H   H3        1.0  0.60083  0.45271  0.60513  1.0000 0.3687705018
H   H4        1.0  0.39917  0.95271  0.89487  1.0000 0.3687705018
H   H5        1.0  0.26225  0.51177  0.36216  1.0000 0.3300225467
H   H6        1.0  0.73775  0.01177  0.13784  1.0000 0.3300225467
H   H7        1.0  0.73775  0.48823  0.63784  1.0000 0.3300225467
H   H8        1.0  0.26225  0.98823  0.86216  1.0000 0.3300225467
H   H9        1.0  0.95156  0.40802  0.39654  1.0000 0.3687705018
H   H10       1.0  0.04844  0.90802  0.10346  1.0000 0.3687705018
H   H11       1.0  0.04844  0.59198  0.60346  1.0000 0.3687705018
H   H12       1.0  0.95156  0.09198  0.89654  1.0000 0.3687705018
H   H13       1.0  0.00935  0.46740  0.36155  1.0000 0.3300225467
H   H14       1.0  0.99065  0.96740  0.13845  1.0000 0.3300225467
H   H15       1.0  0.99065  0.53260  0.63845  1.0000 0.3300225467
H   H16       1.0  0.00935  0.03260  0.86155  1.0000 0.3300225467
H   H17       1.0  0.31378  0.81072  0.51793  1.0000 0.129804855
H   H18       1.0  0.68622  0.31072  0.98207  1.0000 0.129804855
H   H19       1.0  0.68622  0.18928  0.48207  1.0000 0.129804855
H   H20       1.0  0.31378  0.68928  0.01793  1.0000 0.129804855
H   H21       1.0  0.68506  0.89041  0.67943  1.0000 0.1227776419
H   H22       1.0  0.31494  0.39041  0.82057  1.0000 0.1227776419
H   H23       1.0  0.31494  0.10959  0.32057  1.0000 0.1227776419
H   H24       1.0  0.68506  0.60959  0.17943  1.0000 0.1227776419
H   H25       1.0  0.70718  0.74598  0.62735  1.0000 0.1227776419
H   H26       1.0  0.29282  0.24598  0.87265  1.0000 0.1227776419
H   H27       1.0  0.29282  0.25402  0.37265  1.0000 0.1227776419
H   H28       1.0  0.70718  0.75402  0.12735  1.0000 0.1227776419
H   H29       1.0  0.26603  0.11400  0.69609  1.0000 0.1227776419
H   H30       1.0  0.73397  0.61400  0.80391  1.0000 0.1227776419
H   H31       1.0  0.73397  0.88600  0.30391  1.0000 0.1227776419
H   H32       1.0  0.26603  0.38600  0.19609  1.0000 0.129804855
H   H33       1.0  0.08520  0.23335  0.65112  1.0000 0.1227776419
H   H34       1.0  0.91480  0.73335  0.84888  1.0000 0.1227776419
H   H35       1.0  0.91480  0.76665  0.34888  1.0000 0.1227776419
H   H36       1.0  0.08520  0.26665  0.15112  1.0000 0.1227776419
H   H37       1.0  0.53460  0.88528  0.82782  1.0000 0.1227776419
H   H38       1.0  0.46540  0.38528  0.67218  1.0000 0.1227776419
H   H39       1.0  0.46540  0.11472  0.17218  1.0000 0.1227776419
H   H40       1.0  0.53460  0.61472  0.32782  1.0000 0.1227776419
H   H41       1.0  0.69590  0.17662  0.82291  1.0000 0.1227776419
H   H42       1.0  0.30410  0.67662  0.67709  1.0000 0.1227776419
H   H43       1.0  0.30410  0.82338  0.17709  1.0000 0.1227776419
H   H44       1.0  0.69590  0.32338  0.32291  1.0000 0.1227776419
H   H45       1.0  0.28488  0.26099  0.52667  1.0000 0.129804855
H   H46       1.0  0.71512  0.76099  0.97333  1.0000 0.129804855
H   H47       1.0  0.71512  0.73901  0.47333  1.0000 0.129804855
H   H48       1.0  0.28488  0.23901  0.02667  1.0000 0.129804855
H   H49       1.0  0.29118  0.95743  0.56876  1.0000 0.129804855
H   H50       1.0  0.70882  0.45743  0.93124  1.0000 0.1227776419
H   H51       1.0  0.70882  0.04257  0.43124  1.0000 0.1227776419
H   H52       1.0  0.29118  0.54257  0.06876  1.0000 0.129804855
H   H53       1.0  0.45795  0.88221  0.73076  1.0000 0.129804855
H   H54       1.0  0.54205  0.38221  0.76924  1.0000 0.129804855
H   H55       1.0  0.54205  0.11779  0.26924  1.0000 0.1227776419
H   H56       1.0  0.45795  0.61779  0.23076  1.0000 0.129804855
H   H57       1.0  0.46238  0.14099  0.57075  1.0000 0.129804855
H   H58       1.0  0.53762  0.64099  0.92925  1.0000 0.129804855
H   H59       1.0  0.53762  0.85901  0.42925  1.0000 0.129804855
H   H60       1.0  0.46238  0.35901  0.07075  1.0000 0.1352124878
H   H61       1.0  0.61958  0.16972  0.72622  1.0000 0.129804855
H   H62       1.0  0.38042  0.66972  0.77378  1.0000 0.129804855
H   H63       1.0  0.38042  0.83028  0.27378  1.0000 0.129804855
H   H64       1.0  0.61958  0.33028  0.22622  1.0000 0.129804855
C   C1        1.0  0.62200  0.03130  0.83510  1.0000 -0.0503330656
C   C2        1.0  0.37800  0.53130  0.66490  1.0000 -0.0503330656
C   C3        1.0  0.37800  0.96870  0.16490  1.0000 -0.0503330656
C   C4        1.0  0.62200  0.46870  0.33510  1.0000 -0.0503330656
C   C5        1.0  0.53210  0.67250  0.53290  1.0000 0.6096719422
C   C6        1.0  0.46790  0.17250  0.96710  1.0000 0.6096719422
C   C7        1.0  0.46790  0.32750  0.46710  1.0000 0.6096719422
C   C8        1.0  0.53210  0.82750  0.03290  1.0000 0.6096719422
C   C9        1.0  0.51550  0.76460  0.56640  1.0000 -0.0633158206
C   C10       1.0  0.48450  0.26460  0.93360  1.0000 -0.0633158206
C   C11       1.0  0.48450  0.23540  0.43360  1.0000 -0.0633158206
C   C12       1.0  0.51550  0.73540  0.06640  1.0000 -0.0633158206
C   C13       1.0  0.48740  0.94130  0.62890  1.0000 0.1900352401
C   C14       1.0  0.51260  0.44130  0.87110  1.0000 0.1900352401
C   C15       1.0  0.51260  0.05870  0.37110  1.0000 0.1900352401
C   C16       1.0  0.48740  0.55870  0.12890  1.0000 0.1900352401
C   C17       1.0  0.39060  0.82780  0.55030  1.0000 -0.0729042224
C   C18       1.0  0.60940  0.32780  0.94970  1.0000 -0.0729042224
C   C19       1.0  0.60940  0.17220  0.44970  1.0000 -0.0729042224
C   C20       1.0  0.39060  0.67220  0.05030  1.0000 -0.0729042224
C   C21       1.0  0.04250  0.32620  0.55370  1.0000 0.5893764266
C   C22       1.0  0.95750  0.82620  0.94630  1.0000 0.5893764266
C   C23       1.0  0.95750  0.67380  0.44630  1.0000 0.5893764266
C   C24       1.0  0.04250  0.17380  0.05370  1.0000 0.5893764266
C   C25       1.0  0.37590  0.11060  0.63560  1.0000 0.1900352401
C   C26       1.0  0.62410  0.61060  0.86440  1.0000 0.1900352401
C   C27       1.0  0.62410  0.88940  0.36440  1.0000 0.1900352401
C   C28       1.0  0.37590  0.38940  0.13560  1.0000 0.1900352401
C   C29       1.0  0.61010  0.87550  0.64610  1.0000 -0.190263601
C   C30       1.0  0.38990  0.37550  0.85390  1.0000 -0.190263601
C   C31       1.0  0.38990  0.12450  0.35390  1.0000 -0.190263601
C   C32       1.0  0.61010  0.62450  0.14610  1.0000 -0.190263601
C   C33       1.0  0.66930  0.03350  0.89700  1.0000 0.5513419875
C   C34       1.0  0.33070  0.53350  0.60300  1.0000 0.5513419875
C   C35       1.0  0.33070  0.96650  0.10300  1.0000 0.5513419875
C   C36       1.0  0.66930  0.46650  0.39700  1.0000 0.5513419875
C   C37       1.0  0.62270  0.78960  0.61510  1.0000 -0.0861186466
C   C38       1.0  0.37730  0.28960  0.88490  1.0000 -0.0861186466
C   C39       1.0  0.37730  0.21040  0.38490  1.0000 -0.0861186466
C   C40       1.0  0.62270  0.71040  0.11510  1.0000 -0.0861186466
C   C41       1.0  0.26720  0.14170  0.66090  1.0000 -0.190263601
C   C42       1.0  0.73280  0.64170  0.83910  1.0000 -0.190263601
C   C43       1.0  0.73280  0.85830  0.33910  1.0000 -0.190263601
C   C44       1.0  0.26720  0.35830  0.16090  1.0000 -0.190263601
C   C45       1.0  0.16380  0.25620  0.58350  1.0000 -0.0503330656
C   C46       1.0  0.83620  0.75620  0.91650  1.0000 -0.0503330656
C   C47       1.0  0.83620  0.74380  0.41650  1.0000 -0.0503330656
C   C48       1.0  0.16380  0.24380  0.08350  1.0000 -0.0503330656
C   C49       1.0  0.16080  0.21340  0.63440  1.0000 -0.0824486173
C   C50       1.0  0.83920  0.71340  0.86560  1.0000 -0.0824486173
C   C51       1.0  0.83920  0.78660  0.36560  1.0000 -0.0824486173
C   C52       1.0  0.16080  0.28660  0.13440  1.0000 -0.0824486173
C   C53       1.0  0.55140  0.94400  0.80720  1.0000 -0.1009461831
C   C54       1.0  0.44860  0.44400  0.69280  1.0000 -0.1009461831
C   C55       1.0  0.44860  0.05600  0.19280  1.0000 -0.1009461831
C   C56       1.0  0.55140  0.55600  0.30720  1.0000 -0.1009461831
C   C57       1.0  0.64730  0.11640  0.80450  1.0000 -0.1009461831
C   C58       1.0  0.35270  0.61640  0.69550  1.0000 -0.1009461831
C   C59       1.0  0.35270  0.88360  0.19550  1.0000 -0.1009461831
C   C60       1.0  0.64730  0.38360  0.30450  1.0000 -0.1009461831
C   C61       1.0  0.52980  0.02870  0.72010  1.0000 0.1704666161
C   C62       1.0  0.47020  0.52870  0.77990  1.0000 0.1704666161
C   C63       1.0  0.47020  0.97130  0.27990  1.0000 0.1704666161
C   C64       1.0  0.52980  0.47130  0.22010  1.0000 0.1704666161
C   C65       1.0  0.27900  0.22950  0.56050  1.0000 -0.0729042224
C   C66       1.0  0.72100  0.72950  0.93950  1.0000 -0.0729042224
C   C67       1.0  0.72100  0.77050  0.43950  1.0000 -0.0729042224
C   C68       1.0  0.27900  0.27050  0.06050  1.0000 -0.0729042224
C   C69       1.0  0.37680  0.91480  0.58070  1.0000 -0.190263601
C   C70       1.0  0.62320  0.41480  0.91930  1.0000 -0.190263601
C   C71       1.0  0.62320  0.08520  0.41930  1.0000 -0.190263601
C   C72       1.0  0.37680  0.58520  0.08070  1.0000 -0.190263601
C   C73       1.0  0.50560  0.94210  0.74980  1.0000 -0.1789893411
C   C74       1.0  0.49440  0.44210  0.75020  1.0000 -0.1789893411
C   C75       1.0  0.49440  0.05790  0.25020  1.0000 -0.1789893411
C   C76       1.0  0.50560  0.55790  0.24980  1.0000 -0.1789893411
C   C77       1.0  0.38370  0.15810  0.58650  1.0000 -0.190263601
C   C78       1.0  0.61630  0.65810  0.91350  1.0000 -0.190263601
C   C79       1.0  0.61630  0.84190  0.41350  1.0000 -0.190263601
C   C80       1.0  0.38370  0.34190  0.08650  1.0000 -0.190263601
C   C81       1.0  0.60090  0.11210  0.74720  1.0000 -0.1722378514
C   C82       1.0  0.39910  0.61210  0.75280  1.0000 -0.1722378514
C   C83       1.0  0.39910  0.88790  0.25280  1.0000 -0.1722378514
C   C84       1.0  0.60090  0.38790  0.24720  1.0000 -0.1722378514
N   N1        1.0  0.47620  0.03170  0.66010  1.0000 -0.190263601
N   N2        1.0  0.52380  0.53170  0.83990  1.0000 -0.190263601
N   N3        1.0  0.52380  0.96830  0.33990  1.0000 -0.190263601
N   N4        1.0  0.47620  0.46830  0.16010  1.0000 -0.1789893411
O   O1        1.0  0.06260  0.39580  0.52060  1.0000 -0.6610364102
O   O2        1.0  0.93740  0.89580  0.97940  1.0000 -0.6610364102
O   O3        1.0  0.93740  0.60420  0.47940  1.0000 -0.6610364102
O   O4        1.0  0.06260  0.10420  0.02060  1.0000 -0.6610364102
O   O5        1.0  0.77334  0.09390  0.92214  1.0000 -0.593508803
O   O6        1.0  0.22666  0.59390  0.57786  1.0000 -0.593508803
O   O7        1.0  0.22666  0.90610  0.07786  1.0000 -0.593508803
O   O8        1.0  0.77334  0.40610  0.42214  1.0000 -0.593508803
O   O9        1.0  0.42143  0.64070  0.49533  1.0000 -0.6133501164
O   O10       1.0  0.57857  0.14070  0.00467  1.0000 -0.6133501164
O   O11       1.0  0.57857  0.35930  0.50467  1.0000 -0.6133501164
O   O12       1.0  0.42143  0.85930  0.99533  1.0000 -0.6133501164
O   O13       1.0  0.65789  0.63110  0.54319  1.0000 -0.6301455132
O   O14       1.0  0.34211  0.13110  0.95681  1.0000 -0.6301455132
O   O15       1.0  0.34211  0.36890  0.45681  1.0000 -0.6301455132
O   O16       1.0  0.65789  0.86890  0.04319  1.0000 -0.6301455132
O   O17       1.0  0.30231  0.55800  0.38831  1.0000 -0.7110385529
O   O18       1.0  0.69769  0.05800  0.11169  1.0000 -0.7110385529
O   O19       1.0  0.69769  0.44200  0.61169  1.0000 -0.7110385529
O   O20       1.0  0.30231  0.94200  0.88831  1.0000 -0.7110385529
O   O21       1.0  0.02563  0.44870  0.39623  1.0000 -0.7352772585
O   O22       1.0  0.97437  0.94870  0.10377  1.0000 -0.7346659533
O   O23       1.0  0.97437  0.55130  0.60377  1.0000 -0.7352772585
O   O24       1.0  0.02563  0.05130  0.89623  1.0000 -0.7346659533
O   O25       1.0  0.60630  0.97350  0.92400  1.0000 -0.593508803
O   O26       1.0  0.39370  0.47350  0.57600  1.0000 -0.593508803
O   O27       1.0  0.39370  0.02650  0.07600  1.0000 -0.593508803
O   O28       1.0  0.60630  0.52650  0.42400  1.0000 -0.593508803
O   O29       1.0  0.91696  0.31520  0.56236  1.0000 -0.579860606
O   O30       1.0  0.08304  0.81520  0.93764  1.0000 -0.579860606
O   O31       1.0  0.08304  0.68480  0.43764  1.0000 -0.579860606
O   O32       1.0  0.91696  0.18480  0.06236  1.0000 -0.579860606
