# DDEC6 charges by PACMAN v1.1 (https://github.com/mtap-research/PACMAN-charge/)
data_2024[Ni][sql]2[FSR]6
_chemical_formula_sum              "Ni2 H28 C32 N8 O12"
_cell_length_a       6.5606
_cell_length_b       18.0108
_cell_length_c       12.3788
_cell_angle_alpha    90
_cell_angle_beta     117.959
_cell_angle_gamma    90

_symmetry_space_group_name_H-M    "P 1"
_symmetry_Int_Tables_number       1

loop_
  _symmetry_equiv_pos_as_xyz
  'x, y, z'

loop_
  _atom_site_type_symbol
  _atom_site_label
  _atom_site_symmetry_multiplicity
  _atom_site_fract_x
  _atom_site_fract_y
  _atom_site_fract_z
  _atom_site_occupancy
  _atom_site_charge
Ni  Ni1       1.0  0.50000  0.00000  0.50000  1.0000 0.811094776
Ni  Ni2       1.0  0.50000  0.50000  0.00000  1.0000 0.811094776
H   H1        1.0  0.17530  0.87000  0.29690  1.0000 0.1277700217
H   H2        1.0  0.82470  0.37000  0.20310  1.0000 0.1277700217
H   H3        1.0  0.82470  0.13000  0.70310  1.0000 0.1277700217
H   H4        1.0  0.17530  0.63000  0.79690  1.0000 0.1277700217
H   H5        1.0  0.17760  0.72890  0.17500  1.0000 0.1277700217
H   H6        1.0  0.82240  0.22890  0.32500  1.0000 0.1277700217
H   H7        1.0  0.82240  0.27110  0.82500  1.0000 0.1277700217
H   H8        1.0  0.17760  0.77110  0.67500  1.0000 0.1277700217
H   H9        1.0  0.98820  0.75910  0.41380  1.0000 0.1399372818
H   H10       1.0  0.01180  0.25910  0.08620  1.0000 0.1399372818
H   H11       1.0  0.01180  0.24090  0.58620  1.0000 0.1399372818
H   H12       1.0  0.98820  0.74090  0.91380  1.0000 0.1399372818
H   H13       1.0  0.83320  0.65710  0.28520  1.0000 0.1277700217
H   H14       1.0  0.16680  0.15710  0.21480  1.0000 0.1277700217
H   H15       1.0  0.16680  0.34290  0.71480  1.0000 0.1277700217
H   H16       1.0  0.83320  0.84290  0.78520  1.0000 0.1277700217
H   H17       1.0  0.84140  0.88700  0.48560  1.0000 0.2987668069
H   H18       1.0  0.15860  0.38700  0.01440  1.0000 0.2987668069
H   H19       1.0  0.15860  0.11300  0.51440  1.0000 0.2987668069
H   H20       1.0  0.84140  0.61300  0.98560  1.0000 0.2987668069
H   H21       1.0  0.93890  0.00990  0.65130  1.0000 0.2927857639
H   H22       1.0  0.06110  0.50990  0.84870  1.0000 0.2927857639
H   H23       1.0  0.06110  0.99010  0.34870  1.0000 0.2927857639
H   H24       1.0  0.93890  0.49010  0.15130  1.0000 0.2927857639
H   H25       1.0  0.89540  0.03690  0.54740  1.0000 0.3108861522
H   H26       1.0  0.10460  0.53690  0.95260  1.0000 0.3108861522
H   H27       1.0  0.10460  0.96310  0.45260  1.0000 0.3108861522
H   H28       1.0  0.89540  0.46310  0.04740  1.0000 0.3108861522
C   C1        1.0  0.33550  0.85980  0.33000  1.0000 -0.0377295565
C   C2        1.0  0.66450  0.35980  0.17000  1.0000 -0.0377295565
C   C3        1.0  0.66450  0.14020  0.67000  1.0000 -0.0377295565
C   C4        1.0  0.33550  0.64020  0.83000  1.0000 -0.0377295565
C   C5        1.0  0.42950  0.79627  0.30120  1.0000 -0.0005166364
C   C6        1.0  0.57050  0.29627  0.19880  1.0000 -0.0005166364
C   C7        1.0  0.57050  0.20373  0.69880  1.0000 -0.0005166364
C   C8        1.0  0.42950  0.70373  0.80120  1.0000 -0.0005166364
C   C9        1.0  0.67000  0.80478  0.37100  1.0000 0.1484032275
C   C10       1.0  0.33000  0.30478  0.12900  1.0000 0.1484032275
C   C11       1.0  0.33000  0.19522  0.62900  1.0000 0.1484032275
C   C12       1.0  0.67000  0.69522  0.87100  1.0000 0.1484032275
C   C13       1.0  0.33946  0.73498  0.22326  1.0000 -0.1575151829
C   C14       1.0  0.66054  0.23498  0.27674  1.0000 -0.1575151829
C   C15       1.0  0.66054  0.26502  0.77674  1.0000 -0.1575151829
C   C16       1.0  0.33946  0.76502  0.72326  1.0000 -0.1575151829
C   C17       1.0  0.82610  0.75305  0.36640  1.0000 -0.1784223465
C   C18       1.0  0.17390  0.25305  0.13360  1.0000 -0.1784223465
C   C19       1.0  0.17390  0.24695  0.63360  1.0000 -0.1784223465
C   C20       1.0  0.82610  0.74695  0.86640  1.0000 -0.1784223465
C   C21       1.0  0.49079  0.68359  0.21809  1.0000 -0.0217057227
C   C22       1.0  0.50921  0.18359  0.28191  1.0000 -0.0217057227
C   C23       1.0  0.50921  0.31641  0.78191  1.0000 -0.0217057227
C   C24       1.0  0.49079  0.81641  0.71809  1.0000 -0.0217057227
C   C25       1.0  0.73240  0.69329  0.29000  1.0000 -0.1056343055
C   C26       1.0  0.26760  0.19329  0.21000  1.0000 -0.1056343055
C   C27       1.0  0.26760  0.30671  0.71000  1.0000 -0.1056343055
C   C28       1.0  0.73240  0.80671  0.79000  1.0000 -0.1056343055
C   C29       1.0  0.39667  0.61808  0.13337  1.0000 0.5710880907
C   C30       1.0  0.60333  0.11808  0.36663  1.0000 0.5710880907
C   C31       1.0  0.60333  0.38192  0.86663  1.0000 0.5710880907
C   C32       1.0  0.39667  0.88192  0.63337  1.0000 0.5710880907
N   N1        1.0  0.50098  0.90250  0.40888  1.0000 -0.1541176586
N   N2        1.0  0.49902  0.40250  0.09112  1.0000 -0.1541176586
N   N3        1.0  0.49902  0.09750  0.59112  1.0000 -0.1541176586
N   N4        1.0  0.50098  0.59750  0.90888  1.0000 -0.1541176586
N   N5        1.0  0.70481  0.86919  0.43451  1.0000 -0.1341240404
N   N6        1.0  0.29519  0.36919  0.06549  1.0000 -0.1341240404
N   N7        1.0  0.29519  0.13081  0.56549  1.0000 -0.1341240404
N   N8        1.0  0.70481  0.63081  0.93451  1.0000 -0.1341240404
O   O1        1.0  0.18627  0.61854  0.05727  1.0000 -0.5692971198
O   O2        1.0  0.81373  0.11854  0.44273  1.0000 -0.5692971198
O   O3        1.0  0.81373  0.38146  0.94273  1.0000 -0.5692971198
O   O4        1.0  0.18627  0.88146  0.55727  1.0000 -0.5692971198
O   O5        1.0  0.53789  0.56704  0.14419  1.0000 -0.5457076131
O   O6        1.0  0.46211  0.06704  0.35581  1.0000 -0.5457076131
O   O7        1.0  0.46211  0.43296  0.85581  1.0000 -0.5457076131
O   O8        1.0  0.53789  0.93296  0.64419  1.0000 -0.5457076131
O   O9        1.0  0.85355  0.99987  0.57335  1.0000 -0.6459545938
O   O10       1.0  0.14645  0.49987  0.92665  1.0000 -0.6459545938
O   O11       1.0  0.14645  0.00013  0.42665  1.0000 -0.6459545938
O   O12       1.0  0.85355  0.50013  0.07335  1.0000 -0.6459545938
