# DDEC6 charges by PACMAN v1.1 (https://github.com/mtap-research/PACMAN-charge/)
data_2024[La][sql]2[FSR]2
_chemical_formula_sum              "La2 H46 C48 N10 O16"
_cell_length_a       10.7028
_cell_length_b       11.989
_cell_length_c       13.1876
_cell_angle_alpha    89.083
_cell_angle_beta     107.235
_cell_angle_gamma    104.819

_symmetry_space_group_name_H-M    "P 1"
_symmetry_Int_Tables_number       1

loop_
  _symmetry_equiv_pos_as_xyz
  'x, y, z'

loop_
  _atom_site_type_symbol
  _atom_site_label
  _atom_site_symmetry_multiplicity
  _atom_site_fract_x
  _atom_site_fract_y
  _atom_site_fract_z
  _atom_site_occupancy
  _atom_site_charge
La  La1       1.0  0.98668  0.12358  0.60403  1.0000 1.8385793302
La  La2       1.0  0.01332  0.87642  0.39597  1.0000 1.8385793302
H   H1        1.0  0.59803  0.12376  0.26737  1.0000 0.1203299384
H   H2        1.0  0.40197  0.87624  0.73263  1.0000 0.1203299384
H   H3        1.0  0.66178  0.63181  0.45366  1.0000 0.1394568771
H   H4        1.0  0.33822  0.36819  0.54634  1.0000 0.1394568771
H   H5        1.0  0.41358  0.17292  0.92094  1.0000 0.1307730678
H   H6        1.0  0.58642  0.82708  0.07906  1.0000 0.1307730678
H   H7        1.0  0.94027  0.13772  0.19027  1.0000 0.1394568771
H   H8        1.0  0.05973  0.86228  0.80973  1.0000 0.1394568771
H   H9        1.0  0.87383  0.37140  0.56572  1.0000 0.0980990315
H   H10       1.0  0.12617  0.62860  0.43428  1.0000 0.0980990315
H   H11       1.0  0.82656  0.17109  0.01849  1.0000 0.0980990315
H   H12       1.0  0.17344  0.82891  0.98151  1.0000 0.0980990315
H   H13       1.0  0.64426  0.07637  0.62080  1.0000 0.1059582882
H   H14       1.0  0.35574  0.92363  0.37920  1.0000 0.1059582882
H   H15       1.0  0.06632  0.09815  0.00118  1.0000 0.1307730678
H   H16       1.0  0.93368  0.90185  0.99882  1.0000 0.1307730678
H   H17       1.0  0.59751  0.85025  0.65101  1.0000 0.1203299384
H   H18       1.0  0.40249  0.14975  0.34899  1.0000 0.1203299384
H   H19       1.0  0.19073  0.07347  0.17269  1.0000 0.1059582882
H   H20       1.0  0.80927  0.92653  0.82731  1.0000 0.1059582882
H   H21       1.0  0.81500  0.53059  0.58931  1.0000 0.1307730678
H   H22       1.0  0.18500  0.46941  0.41069  1.0000 0.1307730678
H   H23       1.0  0.92851  0.64436  0.58219  1.0000 0.1394568771
H   H24       1.0  0.07149  0.35564  0.41781  1.0000 0.1394568771
H   H25       1.0  0.90815  0.60919  0.69494  1.0000 0.1394568771
H   H26       1.0  0.09185  0.39081  0.30506  1.0000 0.1394568771
H   H27       1.0  0.45025  0.07434  0.65665  1.0000 0.1307730678
H   H28       1.0  0.54975  0.92566  0.34335  1.0000 0.1307730678
H   H29       1.0  0.43511  0.19380  0.69740  1.0000 0.1476788852
H   H30       1.0  0.56489  0.80620  0.30260  1.0000 0.1476788852
H   H31       1.0  0.49404  0.10818  0.78148  1.0000 0.1307730678
H   H32       1.0  0.50596  0.89182  0.21852  1.0000 0.1307730678
H   H33       1.0  0.43855  0.69606  0.68642  1.0000 0.0980990315
H   H34       1.0  0.56145  0.30394  0.31358  1.0000 0.0980990315
H   H35       1.0  0.69919  0.28936  0.84838  1.0000 0.1307730678
H   H36       1.0  0.30081  0.71064  0.15162  1.0000 0.1307730678
H   H37       1.0  0.63918  0.35905  0.74927  1.0000 0.1307730678
H   H38       1.0  0.36082  0.64095  0.25073  1.0000 0.1307730678
H   H39       1.0  0.78366  0.33374  0.76705  1.0000 0.1307730678
H   H40       1.0  0.21634  0.66626  0.23295  1.0000 0.1307730678
H   H41       1.0  0.19851  0.51253  0.70617  1.0000 0.1476788852
H   H42       1.0  0.80149  0.48747  0.29383  1.0000 0.1476788852
H   H43       1.0  0.14973  0.60002  0.76660  1.0000 0.1307730678
H   H44       1.0  0.85027  0.39998  0.23340  1.0000 0.1307730678
H   H45       1.0  0.17858  0.63148  0.65584  1.0000 0.1307730678
H   H46       1.0  0.82142  0.36852  0.34416  1.0000 0.1307730678
C   C1        1.0  0.84770  0.11570  0.36370  1.0000 0.58242223
C   C2        1.0  0.15230  0.88430  0.63630  1.0000 0.58242223
C   C3        1.0  0.78100  0.12790  0.24850  1.0000 0.0162759978
C   C4        1.0  0.21900  0.87210  0.75150  1.0000 0.0091235994
C   C5        1.0  0.14660  0.14170  0.82800  1.0000 0.5457641218
C   C6        1.0  0.85340  0.85830  0.17200  1.0000 0.5457641218
C   C7        1.0  0.64600  0.12960  0.21650  1.0000 -0.1909766536
C   C8        1.0  0.35400  0.87040  0.78350  1.0000 -0.1909766536
C   C9        1.0  0.76210  0.85080  0.52960  1.0000 0.6003724668
C   C10       1.0  0.23790  0.14920  0.47040  1.0000 0.6003724668
C   C11       1.0  0.64910  0.75730  0.54990  1.0000 0.0091235994
C   C12       1.0  0.35090  0.24270  0.45010  1.0000 0.0091235994
C   C13       1.0  0.61660  0.64710  0.50180  1.0000 -0.1795287397
C   C14       1.0  0.38340  0.35290  0.49820  1.0000 -0.1795287397
C   C15       1.0  0.36530  0.15020  0.97110  1.0000 -0.1680202041
C   C16       1.0  0.63470  0.84980  0.02890  1.0000 -0.1680202041
C   C17       1.0  0.84840  0.14060  0.17230  1.0000 -0.1680202041
C   C18       1.0  0.15160  0.85940  0.82770  1.0000 -0.1680202041
C   C19       1.0  0.58100  0.13980  0.11040  1.0000 0.1737880144
C   C20       1.0  0.41900  0.86020  0.88960  1.0000 0.1737880144
C   C21       1.0  0.96690  0.40370  0.60300  1.0000 0.2922014032
C   C22       1.0  0.03310  0.59630  0.39700  1.0000 0.2922014032
C   C23       1.0  0.43330  0.13180  0.07460  1.0000 0.16296697
C   C24       1.0  0.56670  0.86820  0.92540  1.0000 0.16296697
C   C25       1.0  0.22630  0.13500  0.94180  1.0000 0.0162759978
C   C26       1.0  0.77370  0.86500  0.05820  1.0000 0.0162759978
C   C27       1.0  0.77830  0.15760  0.06940  1.0000 0.0701852307
C   C28       1.0  0.22170  0.84240  0.93060  1.0000 0.0701852307
C   C29       1.0  0.69140  0.14880  0.65910  1.0000 0.3040503744
C   C30       1.0  0.30860  0.85120  0.34090  1.0000 0.3040503744
C   C31       1.0  0.51830  0.56000  0.52450  1.0000 0.16296697
C   C32       1.0  0.48170  0.44000  0.47550  1.0000 0.16296697
C   C33       1.0  0.16120  0.10700  0.01830  1.0000 -0.1628791098
C   C34       1.0  0.83880  0.89300  0.98170  1.0000 -0.1628791098
C   C35       1.0  0.58010  0.77560  0.61820  1.0000 -0.1628791098
C   C36       1.0  0.41990  0.22440  0.38180  1.0000 -0.1628791098
C   C37       1.0  0.23610  0.09210  0.12030  1.0000 0.0701852307
C   C38       1.0  0.76390  0.90790  0.87970  1.0000 0.0701852307
C   C39       1.0  0.90590  0.57950  0.62550  1.0000 -0.3570875194
C   C40       1.0  0.09410  0.42050  0.37450  1.0000 -0.3570875194
C   C41       1.0  0.49050  0.13830  0.71140  1.0000 -0.3429190185
C   C42       1.0  0.50950  0.86170  0.28860  1.0000 -0.3429190185
C   C43       1.0  0.48460  0.68290  0.63810  1.0000 0.076606888
C   C44       1.0  0.51540  0.31710  0.36190  1.0000 0.076606888
C   C45       1.0  0.69260  0.30310  0.77370  1.0000 -0.3213394549
C   C46       1.0  0.30740  0.69690  0.22630  1.0000 -0.3213394549
C   C47       1.0  0.14400  0.56850  0.69680  1.0000 -0.3429190185
C   C48       1.0  0.85600  0.43150  0.30320  1.0000 -0.3429190185
N   N1        1.0  0.64700  0.15630  0.03682  1.0000 -0.2873545553
N   N2        1.0  0.35300  0.84370  0.96318  1.0000 -0.2873545553
N   N3        1.0  0.36950  0.10250  0.14861  1.0000 -0.2952541377
N   N4        1.0  0.63050  0.89750  0.85139  1.0000 -0.2952541377
N   N5        1.0  0.62720  0.19570  0.70970  1.0000 0.0304564681
N   N6        1.0  0.37280  0.80430  0.29030  1.0000 0.0304564681
N   N7        1.0  0.00410  0.51170  0.64020  1.0000 0.0379230935
N   N8        1.0  0.99590  0.48830  0.35980  1.0000 0.0379230935
N   N9        1.0  0.45320  0.57590  0.59360  1.0000 -0.2873545553
N   N10       1.0  0.54680  0.42410  0.40640  1.0000 -0.2873545553
O   O1        1.0  0.78723  0.95009  0.57277  1.0000 -0.6201648381
O   O2        1.0  0.21277  0.04991  0.42723  1.0000 -0.6201648381
O   O3        1.0  0.92527  0.04919  0.38948  1.0000 -0.6487468149
O   O4        1.0  0.07473  0.95081  0.61052  1.0000 -0.6487468149
O   O5        1.0  0.82285  0.82062  0.47130  1.0000 -0.6031532403
O   O6        1.0  0.17715  0.17938  0.52870  1.0000 -0.6031532403
O   O7        1.0  0.02045  0.09417  0.80039  1.0000 -0.6031532403
O   O8        1.0  0.97955  0.90583  0.19961  1.0000 -0.6031532403
O   O9        1.0  0.04570  0.34054  0.61335  1.0000 -0.5022651371
O   O10       1.0  0.95430  0.65946  0.38665  1.0000 -0.5022651371
O   O11       1.0  0.20620  0.18917  0.76361  1.0000 -0.5710290041
O   O12       1.0  0.79380  0.81083  0.23639  1.0000 -0.5710290041
O   O13       1.0  0.80840  0.19147  0.65739  1.0000 -0.5022651371
O   O14       1.0  0.19160  0.80853  0.34261  1.0000 -0.5022651371
O   O15       1.0  0.82530  0.17291  0.43142  1.0000 -0.5770480004
O   O16       1.0  0.17470  0.82709  0.56858  1.0000 -0.5770480004
