# DDEC6 charges by PACMAN v1.1 (https://github.com/mtap-research/PACMAN-charge/)
data_1999[Co][pcu]3[ION]1
_chemical_formula_sum              "Co4 H120 C60 N12 Cl8 O12"
_cell_length_a       13.1942
_cell_length_b       13.1942
_cell_length_c       20.3262
_cell_angle_alpha    77.8702
_cell_angle_beta     102.13
_cell_angle_gamma    129.286

_symmetry_space_group_name_H-M    "P 1"
_symmetry_Int_Tables_number       1

loop_
  _symmetry_equiv_pos_as_xyz
  'x, y, z'

loop_
  _atom_site_type_symbol
  _atom_site_label
  _atom_site_symmetry_multiplicity
  _atom_site_fract_x
  _atom_site_fract_y
  _atom_site_fract_z
  _atom_site_occupancy
  _atom_site_charge
Co  Co1       1.0  0.50000  0.00000  0.00000  1.0000 1.0400447044
Co  Co2       1.0  0.00000  0.50000  0.50000  1.0000 1.0400447044
Co  Co3       1.0  0.80672  0.80672  0.75000  1.0000 0.7042756769
Co  Co4       1.0  0.19328  0.19328  0.25000  1.0000 0.7042756769
H   H1        1.0  0.77790  0.10990  0.85220  1.0000 0.1525299878
H   H2        1.0  0.10990  0.77790  0.64780  1.0000 0.1525299878
H   H3        1.0  0.22210  0.89010  0.14780  1.0000 0.1525299878
H   H4        1.0  0.89010  0.22210  0.35220  1.0000 0.1525299878
H   H5        1.0  0.67490  0.13250  0.85320  1.0000 0.1699612839
H   H6        1.0  0.13250  0.67490  0.64680  1.0000 0.1699612839
H   H7        1.0  0.32510  0.86750  0.14680  1.0000 0.1699612839
H   H8        1.0  0.86750  0.32510  0.35320  1.0000 0.1699612839
H   H9        1.0  0.77070  0.14850  0.91810  1.0000 0.1638261513
H   H10       1.0  0.14850  0.77070  0.58190  1.0000 0.1638261513
H   H11       1.0  0.22930  0.85150  0.08190  1.0000 0.1638261513
H   H12       1.0  0.85150  0.22930  0.41810  1.0000 0.1638261513
H   H13       1.0  0.68720  0.90280  0.85540  1.0000 0.2779094782
H   H14       1.0  0.90280  0.68720  0.64460  1.0000 0.2779094782
H   H15       1.0  0.31280  0.09720  0.14460  1.0000 0.2779094782
H   H16       1.0  0.09720  0.31280  0.35540  1.0000 0.2779094782
H   H17       1.0  0.44660  0.70640  0.89780  1.0000 0.0945103709
H   H18       1.0  0.70640  0.44660  0.60220  1.0000 0.0945103709
H   H19       1.0  0.55340  0.29360  0.10220  1.0000 0.0945103709
H   H20       1.0  0.29360  0.55340  0.39780  1.0000 0.0945103709
H   H21       1.0  0.52190  0.68790  0.85720  1.0000 0.1021833209
H   H22       1.0  0.68790  0.52190  0.64280  1.0000 0.1021833209
H   H23       1.0  0.47810  0.31210  0.14280  1.0000 0.1021833209
H   H24       1.0  0.31210  0.47810  0.35720  1.0000 0.1021833209
H   H25       1.0  0.66180  0.70820  0.95760  1.0000 0.1096144471
H   H26       1.0  0.70820  0.66180  0.54240  1.0000 0.1096144471
H   H27       1.0  0.33820  0.29180  0.04240  1.0000 0.1096144471
H   H28       1.0  0.29180  0.33820  0.45760  1.0000 0.1096144471
H   H29       1.0  0.57690  0.71550  0.99740  1.0000 0.1096144471
H   H30       1.0  0.71550  0.57690  0.50260  1.0000 0.1096144471
H   H31       1.0  0.42310  0.28450  0.00260  1.0000 0.1096144471
H   H32       1.0  0.28450  0.42310  0.49740  1.0000 0.1096144471
H   H33       1.0  0.39210  0.50170  0.97540  1.0000 0.1021833209
H   H34       1.0  0.50170  0.39210  0.52460  1.0000 0.1021833209
H   H35       1.0  0.60790  0.49830  0.02460  1.0000 0.1021833209
H   H36       1.0  0.49830  0.60790  0.47540  1.0000 0.1021833209
H   H37       1.0  0.46800  0.49440  0.92900  1.0000 0.1021833209
H   H38       1.0  0.49440  0.46800  0.57100  1.0000 0.1021833209
H   H39       1.0  0.53200  0.50560  0.07100  1.0000 0.1021833209
H   H40       1.0  0.50560  0.53200  0.42900  1.0000 0.1021833209
H   H41       1.0  0.24150  0.55010  0.03620  1.0000 0.1525299878
H   H42       1.0  0.55010  0.24150  0.46380  1.0000 0.1525299878
H   H43       1.0  0.75850  0.44990  0.96380  1.0000 0.1525299878
H   H44       1.0  0.44990  0.75850  0.53620  1.0000 0.1525299878
H   H45       1.0  0.20840  0.64720  0.02920  1.0000 0.1699612839
H   H46       1.0  0.64720  0.20840  0.47080  1.0000 0.1699612839
H   H47       1.0  0.79160  0.35280  0.97080  1.0000 0.1699612839
H   H48       1.0  0.35280  0.79160  0.52920  1.0000 0.1699612839
H   H49       1.0  0.30110  0.67070  0.98070  1.0000 0.1699612839
H   H50       1.0  0.67070  0.30110  0.51930  1.0000 0.1699612839
H   H51       1.0  0.69890  0.32930  0.01930  1.0000 0.1699612839
H   H52       1.0  0.32930  0.69890  0.48070  1.0000 0.1699612839
H   H53       1.0  0.39470  0.58070  0.11740  1.0000 0.2779094782
H   H54       1.0  0.58070  0.39470  0.38260  1.0000 0.2779094782
H   H55       1.0  0.60530  0.41930  0.88260  1.0000 0.2779094782
H   H56       1.0  0.41930  0.60530  0.61740  1.0000 0.2779094782
H   H57       1.0  0.48730  0.69870  0.21970  1.0000 0.1096144471
H   H58       1.0  0.69870  0.48730  0.28030  1.0000 0.1096144471
H   H59       1.0  0.51270  0.30130  0.78030  1.0000 0.1096144471
H   H60       1.0  0.30130  0.51270  0.71970  1.0000 0.1096144471
H   H61       1.0  0.57270  0.82510  0.16910  1.0000 0.1096144471
H   H62       1.0  0.82510  0.57270  0.33090  1.0000 0.1096144471
H   H63       1.0  0.42730  0.17490  0.83090  1.0000 0.1021833209
H   H64       1.0  0.17490  0.42730  0.66910  1.0000 0.1021833209
H   H65       1.0  0.56830  0.60790  0.18980  1.0000 0.1096144471
H   H66       1.0  0.60790  0.56830  0.31020  1.0000 0.1096144471
H   H67       1.0  0.43170  0.39210  0.81020  1.0000 0.1096144471
H   H68       1.0  0.39210  0.43170  0.68980  1.0000 0.1096144471
H   H69       1.0  0.65160  0.73220  0.13740  1.0000 0.1096144471
H   H70       1.0  0.73220  0.65160  0.36260  1.0000 0.1096144471
H   H71       1.0  0.34840  0.26780  0.86260  1.0000 0.1096144471
H   H72       1.0  0.26780  0.34840  0.63740  1.0000 0.1096144471
H   H73       1.0  0.77781  0.86939  0.22040  1.0000 0.1096144471
H   H74       1.0  0.86939  0.77781  0.27960  1.0000 0.1096144471
H   H75       1.0  0.22219  0.13061  0.77960  1.0000 0.1096144471
H   H76       1.0  0.13061  0.22219  0.72040  1.0000 0.1096144471
H   H77       1.0  0.67112  0.77408  0.27190  1.0000 0.0945103709
H   H78       1.0  0.77408  0.67112  0.22810  1.0000 0.0945103709
H   H79       1.0  0.32888  0.22592  0.72810  1.0000 0.0945103709
H   H80       1.0  0.22592  0.32888  0.77190  1.0000 0.0945103709
H   H81       1.0  0.75860  0.11800  0.20050  1.0000 0.1525299878
H   H82       1.0  0.11800  0.75860  0.29950  1.0000 0.1525299878
H   H83       1.0  0.24140  0.88200  0.79950  1.0000 0.1525299878
H   H84       1.0  0.88200  0.24140  0.70050  1.0000 0.1525299878
H   H85       1.0  0.68150  0.16530  0.15440  1.0000 0.1699612839
H   H86       1.0  0.16530  0.68150  0.34560  1.0000 0.1699612839
H   H87       1.0  0.31850  0.83470  0.84560  1.0000 0.1699612839
H   H88       1.0  0.83470  0.31850  0.65440  1.0000 0.1699612839
H   H89       1.0  0.61610  0.01490  0.16720  1.0000 0.1638261513
H   H90       1.0  0.01490  0.61610  0.33280  1.0000 0.1638261513
H   H91       1.0  0.38390  0.98510  0.83280  1.0000 0.1699612839
H   H92       1.0  0.98510  0.38390  0.66720  1.0000 0.1638261513
H   H93       1.0  0.90890  0.15350  0.15220  1.0000 0.2725193296
H   H94       1.0  0.15350  0.90890  0.34780  1.0000 0.2725193296
H   H95       1.0  0.09110  0.84650  0.84780  1.0000 0.2725193296
H   H96       1.0  0.84650  0.09110  0.65220  1.0000 0.2725193296
H   H97       1.0  0.91310  0.18850  0.01620  1.0000 0.1021833209
H   H98       1.0  0.18850  0.91310  0.48380  1.0000 0.1021833209
H   H99       1.0  0.08690  0.81150  0.98380  1.0000 0.1021833209
H   H100      1.0  0.81150  0.08690  0.51620  1.0000 0.1021833209
H   H101      1.0  0.03600  0.23300  0.06930  1.0000 0.1021833209
H   H102      1.0  0.23300  0.03600  0.43070  1.0000 0.1021833209
H   H103      1.0  0.96400  0.76700  0.93070  1.0000 0.1021833209
H   H104      1.0  0.76700  0.96400  0.56930  1.0000 0.1021833209
H   H105      1.0  0.95160  0.01160  0.09790  1.0000 0.1173404287
H   H106      1.0  0.01160  0.95160  0.40210  1.0000 0.1173404287
H   H107      1.0  0.04840  0.98840  0.90210  1.0000 0.1173404287
H   H108      1.0  0.98840  0.04840  0.59790  1.0000 0.1173404287
H   H109      1.0  0.83070  0.96850  0.04370  1.0000 0.1096144471
H   H110      1.0  0.96850  0.83070  0.45630  1.0000 0.1096144471
H   H111      1.0  0.16930  0.03150  0.95630  1.0000 0.1096144471
H   H112      1.0  0.03150  0.16930  0.54370  1.0000 0.1096144471
H   H113      1.0  0.09080  0.13440  0.00760  1.0000 0.1096144471
H   H114      1.0  0.13440  0.09080  0.49240  1.0000 0.1096144471
H   H115      1.0  0.90920  0.86560  0.99240  1.0000 0.1096144471
H   H116      1.0  0.86560  0.90920  0.50760  1.0000 0.1096144471
H   H117      1.0  0.96370  0.07170  0.95650  1.0000 0.1021833209
H   H118      1.0  0.07170  0.96370  0.54350  1.0000 0.1021833209
H   H119      1.0  0.03630  0.92830  0.04350  1.0000 0.1021833209
H   H120      1.0  0.92830  0.03630  0.45650  1.0000 0.1021833209
C   C1        1.0  0.72020  0.09980  0.87950  1.0000 -0.58211477
C   C2        1.0  0.09980  0.72020  0.62050  1.0000 -0.58211477
C   C3        1.0  0.27980  0.90020  0.12050  1.0000 -0.58211477
C   C4        1.0  0.90020  0.27980  0.37950  1.0000 -0.58211477
C   C5        1.0  0.62090  0.95570  0.90300  1.0000 0.5815465767
C   C6        1.0  0.95570  0.62090  0.59700  1.0000 0.5815465767
C   C7        1.0  0.37910  0.04430  0.09700  1.0000 0.5815465767
C   C8        1.0  0.04430  0.37910  0.40300  1.0000 0.5815465767
C   C9        1.0  0.53170  0.73010  0.89430  1.0000 -0.0500395838
C   C10       1.0  0.73010  0.53170  0.60570  1.0000 -0.0500395838
C   C11       1.0  0.46830  0.26990  0.10570  1.0000 -0.0500395838
C   C12       1.0  0.26990  0.46830  0.39430  1.0000 -0.0500395838
C   C13       1.0  0.57420  0.67960  0.95940  1.0000 -0.1999054011
C   C14       1.0  0.67960  0.57420  0.54060  1.0000 -0.1999054011
C   C15       1.0  0.42580  0.32040  0.04060  1.0000 -0.1999054011
C   C16       1.0  0.32040  0.42580  0.45940  1.0000 -0.1999054011
C   C17       1.0  0.47760  0.52920  0.96940  1.0000 -0.1582155271
C   C18       1.0  0.52920  0.47760  0.53060  1.0000 -0.1582155271
C   C19       1.0  0.52240  0.47080  0.03060  1.0000 -0.1582155271
C   C20       1.0  0.47080  0.52240  0.46940  1.0000 -0.1582155271
C   C21       1.0  0.27530  0.64030  0.02590  1.0000 -0.5860766633
C   C22       1.0  0.64030  0.27530  0.47410  1.0000 -0.5860766633
C   C23       1.0  0.72470  0.35970  0.97410  1.0000 -0.5860766633
C   C24       1.0  0.35970  0.72470  0.52590  1.0000 -0.58211477
C   C25       1.0  0.39160  0.72220  0.07460  1.0000 0.5815465767
C   C26       1.0  0.72220  0.39160  0.42540  1.0000 0.5815465767
C   C27       1.0  0.60840  0.27780  0.92540  1.0000 0.5815465767
C   C28       1.0  0.27780  0.60840  0.57460  1.0000 0.5815465767
C   C29       1.0  0.52740  0.73100  0.17770  1.0000 -0.0680123679
C   C30       1.0  0.73100  0.52740  0.32230  1.0000 -0.0680123679
C   C31       1.0  0.47260  0.26900  0.82230  1.0000 -0.0680123679
C   C32       1.0  0.26900  0.47260  0.67770  1.0000 -0.0680123679
C   C33       1.0  0.61250  0.70150  0.17960  1.0000 -0.1999054011
C   C34       1.0  0.70150  0.61250  0.32040  1.0000 -0.1999054011
C   C35       1.0  0.38750  0.29850  0.82040  1.0000 -0.1999054011
C   C36       1.0  0.29850  0.38750  0.67960  1.0000 -0.1999054011
C   C37       1.0  0.71325  0.77795  0.23670  1.0000 -0.1582155271
C   C38       1.0  0.77795  0.71325  0.26330  1.0000 -0.1582155271
C   C39       1.0  0.28675  0.22205  0.76330  1.0000 -0.1582155271
C   C40       1.0  0.22205  0.28675  0.73670  1.0000 -0.1582155271
C   C41       1.0  0.69740  0.10200  0.16110  1.0000 -0.5860766633
C   C42       1.0  0.10200  0.69740  0.33890  1.0000 -0.5860766633
C   C43       1.0  0.30260  0.89800  0.83890  1.0000 -0.5860766633
C   C44       1.0  0.89800  0.30260  0.66110  1.0000 -0.5860766633
C   C45       1.0  0.75340  0.11400  0.10070  1.0000 0.5704034063
C   C46       1.0  0.11400  0.75340  0.39930  1.0000 0.5704034063
C   C47       1.0  0.24660  0.88600  0.89930  1.0000 0.5704034063
C   C48       1.0  0.88600  0.24660  0.60070  1.0000 0.5704034063
C   C49       1.0  0.94300  0.16260  0.05940  1.0000 -0.0553337578
C   C50       1.0  0.16260  0.94300  0.44060  1.0000 -0.0553337578
C   C51       1.0  0.05700  0.83740  0.94060  1.0000 -0.0553337578
C   C52       1.0  0.83740  0.05700  0.55940  1.0000 -0.0500395838
C   C53       1.0  0.92350  0.03830  0.05440  1.0000 -0.1933351662
C   C54       1.0  0.03830  0.92350  0.44560  1.0000 -0.1933351662
C   C55       1.0  0.07650  0.96170  0.94560  1.0000 -0.1933351662
C   C56       1.0  0.96170  0.07650  0.55440  1.0000 -0.1933351662
C   C57       1.0  0.00030  0.05630  0.00050  1.0000 -0.1582155271
C   C58       1.0  0.05630  0.00030  0.49950  1.0000 -0.1582155271
C   C59       1.0  0.99970  0.94370  0.99950  1.0000 -0.1582155271
C   C60       1.0  0.94370  0.99970  0.50050  1.0000 -0.1582155271
N   N1        1.0  0.62570  0.87170  0.88000  1.0000 -0.3196880575
N   N2        1.0  0.87170  0.62570  0.62000  1.0000 -0.3196880575
N   N3        1.0  0.37430  0.12830  0.12000  1.0000 -0.3196880575
N   N4        1.0  0.12830  0.37430  0.38000  1.0000 -0.3196880575
N   N5        1.0  0.42820  0.66060  0.12070  1.0000 -0.3453787174
N   N6        1.0  0.66060  0.42820  0.37930  1.0000 -0.3453787174
N   N7        1.0  0.57180  0.33940  0.87930  1.0000 -0.3453787174
N   N8        1.0  0.33940  0.57180  0.62070  1.0000 -0.3453787174
N   N9        1.0  0.87180  0.14420  0.11130  1.0000 -0.3196880575
N   N10       1.0  0.14420  0.87180  0.38870  1.0000 -0.3196880575
N   N11       1.0  0.12820  0.85580  0.88870  1.0000 -0.3140323367
N   N12       1.0  0.85580  0.12820  0.61130  1.0000 -0.3140323367
Cl  Cl1       1.0  0.73247  0.65641  0.84175  1.0000 -0.5655931439
Cl  Cl2       1.0  0.65641  0.73247  0.65825  1.0000 -0.5655931439
Cl  Cl3       1.0  0.85207  0.99371  0.77486  1.0000 -0.58211477
Cl  Cl4       1.0  0.99371  0.85207  0.72514  1.0000 -0.58211477
Cl  Cl5       1.0  0.26753  0.34359  0.15825  1.0000 -0.5655931439
Cl  Cl6       1.0  0.34359  0.26753  0.34175  1.0000 -0.5655931439
Cl  Cl7       1.0  0.14793  0.00629  0.22514  1.0000 -0.58211477
Cl  Cl8       1.0  0.00629  0.14793  0.27486  1.0000 -0.58211477
O   O1        1.0  0.53485  0.91575  0.93905  1.0000 -0.5600415176
O   O2        1.0  0.91575  0.53485  0.56095  1.0000 -0.5600415176
O   O3        1.0  0.46515  0.08425  0.06095  1.0000 -0.5600415176
O   O4        1.0  0.08425  0.46515  0.43905  1.0000 -0.5600415176
O   O5        1.0  0.45434  0.84266  0.07280  1.0000 -0.5600415176
O   O6        1.0  0.84266  0.45434  0.42720  1.0000 -0.5600415176
O   O7        1.0  0.54566  0.15734  0.92720  1.0000 -0.5600415176
O   O8        1.0  0.15734  0.54566  0.57280  1.0000 -0.5600415176
O   O9        1.0  0.69580  0.09840  0.04310  1.0000 -0.5600415176
O   O10       1.0  0.09840  0.69580  0.45690  1.0000 -0.5600415176
O   O11       1.0  0.30420  0.90160  0.95690  1.0000 -0.5600415176
O   O12       1.0  0.90160  0.30420  0.54310  1.0000 -0.5600415176
