# DDEC6 charges by PACMAN v1.1 (https://github.com/mtap-research/PACMAN-charge/)
data_1999[Zn][nan]3[ION]1
_chemical_formula_sum              "Zn18 P18 H102 C36 N12 O72"
_cell_length_a       19.5285
_cell_length_b       19.5285
_cell_length_c       19.5285
_cell_angle_alpha    117.56
_cell_angle_beta     117.56
_cell_angle_gamma    117.56

_symmetry_space_group_name_H-M    "P 1"
_symmetry_Int_Tables_number       1

loop_
  _symmetry_equiv_pos_as_xyz
  'x, y, z'

loop_
  _atom_site_type_symbol
  _atom_site_label
  _atom_site_symmetry_multiplicity
  _atom_site_fract_x
  _atom_site_fract_y
  _atom_site_fract_z
  _atom_site_occupancy
  _atom_site_charge
Zn  Zn1       1.0  0.91656  0.40578  0.57933  1.0000 1.0336307041
Zn  Zn2       1.0  0.40578  0.57933  0.91656  1.0000 1.0336307041
Zn  Zn3       1.0  0.57933  0.91656  0.40578  1.0000 1.0336307041
Zn  Zn4       1.0  0.59422  0.42067  0.08344  1.0000 1.0336307041
Zn  Zn5       1.0  0.42067  0.08344  0.59422  1.0000 1.0336307041
Zn  Zn6       1.0  0.08344  0.59422  0.42067  1.0000 1.0336307041
Zn  Zn7       1.0  0.33813  0.84234  0.93026  1.0000 1.0744591705
Zn  Zn8       1.0  0.84234  0.93026  0.33813  1.0000 1.0744591705
Zn  Zn9       1.0  0.93026  0.33813  0.84234  1.0000 1.0744591705
Zn  Zn10      1.0  0.15766  0.06974  0.66187  1.0000 1.0744591705
Zn  Zn11      1.0  0.06974  0.66187  0.15766  1.0000 1.0744591705
Zn  Zn12      1.0  0.66187  0.15766  0.06974  1.0000 1.0744591705
Zn  Zn13      1.0  0.91691  0.12906  0.58474  1.0000 1.0619678251
Zn  Zn14      1.0  0.12906  0.58474  0.91691  1.0000 1.0619678251
Zn  Zn15      1.0  0.58474  0.91691  0.12906  1.0000 1.0619678251
Zn  Zn16      1.0  0.87094  0.41526  0.08309  1.0000 1.0619678251
Zn  Zn17      1.0  0.41526  0.08309  0.87094  1.0000 1.0619678251
Zn  Zn18      1.0  0.08309  0.87094  0.41526  1.0000 1.0619678251
P   P1        1.0  0.82919  0.23595  0.59686  1.0000 1.5311373226
P   P2        1.0  0.23595  0.59686  0.82919  1.0000 1.5311373226
P   P3        1.0  0.59686  0.82919  0.23595  1.0000 1.5311373226
P   P4        1.0  0.76405  0.40314  0.17081  1.0000 1.5311373226
P   P5        1.0  0.40314  0.17081  0.76405  1.0000 1.5311373226
P   P6        1.0  0.17081  0.76405  0.40314  1.0000 1.5311373226
P   P7        1.0  0.70601  0.17998  0.25641  1.0000 1.514418935
P   P8        1.0  0.17998  0.25641  0.70601  1.0000 1.514418935
P   P9        1.0  0.25641  0.70601  0.17998  1.0000 1.514418935
P   P10       1.0  0.82002  0.74359  0.29399  1.0000 1.514418935
P   P11       1.0  0.74359  0.29399  0.82002  1.0000 1.514418935
P   P12       1.0  0.29399  0.82002  0.74359  1.0000 1.514418935
P   P13       1.0  0.09694  0.69657  0.85699  1.0000 1.4864993326
P   P14       1.0  0.69657  0.85699  0.09694  1.0000 1.4864993326
P   P15       1.0  0.85699  0.09694  0.69657  1.0000 1.4864993326
P   P16       1.0  0.30343  0.14301  0.90306  1.0000 1.4864993326
P   P17       1.0  0.14301  0.90306  0.30343  1.0000 1.4864993326
P   P18       1.0  0.90306  0.30343  0.14301  1.0000 1.4849078409
H   H1        1.0  0.08270  0.79630  0.87110  1.0000 0.3914197735
H   H2        1.0  0.79630  0.87110  0.08270  1.0000 0.3914197735
H   H3        1.0  0.87110  0.08270  0.79630  1.0000 0.3914197735
H   H4        1.0  0.20370  0.12890  0.91730  1.0000 0.3914197735
H   H5        1.0  0.12890  0.91730  0.20370  1.0000 0.3914197735
H   H6        1.0  0.91730  0.20370  0.12890  1.0000 0.3914197735
H   H7        1.0  0.08410  0.76920  0.57770  1.0000 0.3129367582
H   H8        1.0  0.05280  0.84000  0.57720  1.0000 0.3129367582
H   H9        1.0  0.90850  0.64700  0.40750  1.0000 0.3193328432
H   H10       1.0  0.86090  0.45210  0.44600  1.0000 0.3346843473
H   H11       1.0  0.93620  0.54080  0.44700  1.0000 0.3193328432
H   H12       1.0  0.02790  0.64010  0.60700  1.0000 0.3193328432
H   H13       1.0  0.03230  0.78880  0.66510  1.0000 0.1069806146
H   H14       1.0  0.75450  0.47650  0.35670  1.0000 0.1069806146
H   H15       1.0  0.72570  0.43160  0.43940  1.0000 0.1364493199
H   H16       1.0  0.87530  0.60740  0.60360  1.0000 0.1178727698
H   H17       1.0  0.66790  0.51100  0.47900  1.0000 0.1069806146
H   H18       1.0  0.60680  0.43930  0.34390  1.0000 0.1178727698
H   H19       1.0  0.73030  0.66410  0.49960  1.0000 0.1069806146
H   H20       1.0  0.87660  0.75510  0.64330  1.0000 0.1069806146
H   H21       1.0  0.91460  0.79890  0.56660  1.0000 0.1364493199
H   H22       1.0  0.76710  0.62410  0.40230  1.0000 0.1271600402
H   H23       1.0  0.57770  0.08410  0.76920  1.0000 0.3129367582
H   H24       1.0  0.57720  0.05280  0.84000  1.0000 0.3129367582
H   H25       1.0  0.40750  0.90850  0.64700  1.0000 0.3193328432
H   H26       1.0  0.44600  0.86090  0.45210  1.0000 0.3346843473
H   H27       1.0  0.44700  0.93620  0.54080  1.0000 0.3193328432
H   H28       1.0  0.60700  0.02790  0.64010  1.0000 0.3193328432
H   H29       1.0  0.66510  0.03230  0.78880  1.0000 0.1069806146
H   H30       1.0  0.35670  0.75450  0.47650  1.0000 0.1069806146
H   H31       1.0  0.43940  0.72570  0.43160  1.0000 0.1364493199
H   H32       1.0  0.60360  0.87530  0.60740  1.0000 0.1178727698
H   H33       1.0  0.47900  0.66790  0.51100  1.0000 0.1069806146
H   H34       1.0  0.34390  0.60680  0.43930  1.0000 0.1178727698
H   H35       1.0  0.49960  0.73030  0.66410  1.0000 0.1069806146
H   H36       1.0  0.64330  0.87660  0.75510  1.0000 0.1069806146
H   H37       1.0  0.56660  0.91460  0.79890  1.0000 0.1364493199
H   H38       1.0  0.40230  0.76710  0.62410  1.0000 0.1271600402
H   H39       1.0  0.76920  0.57770  0.08410  1.0000 0.3129367582
H   H40       1.0  0.84000  0.57720  0.05280  1.0000 0.3129367582
H   H41       1.0  0.64700  0.40750  0.90850  1.0000 0.3193328432
H   H42       1.0  0.45210  0.44600  0.86090  1.0000 0.3346843473
H   H43       1.0  0.54080  0.44700  0.93620  1.0000 0.3193328432
H   H44       1.0  0.64010  0.60700  0.02790  1.0000 0.3193328432
H   H45       1.0  0.78880  0.66510  0.03230  1.0000 0.1069806146
H   H46       1.0  0.47650  0.35670  0.75450  1.0000 0.1069806146
H   H47       1.0  0.43160  0.43940  0.72570  1.0000 0.1364493199
H   H48       1.0  0.60740  0.60360  0.87530  1.0000 0.1178727698
H   H49       1.0  0.51100  0.47900  0.66790  1.0000 0.1069806146
H   H50       1.0  0.43930  0.34390  0.60680  1.0000 0.1178727698
H   H51       1.0  0.66410  0.49960  0.73030  1.0000 0.1069806146
H   H52       1.0  0.75510  0.64330  0.87660  1.0000 0.1069806146
H   H53       1.0  0.79890  0.56660  0.91460  1.0000 0.1364493199
H   H54       1.0  0.62410  0.40230  0.76710  1.0000 0.1271600402
H   H55       1.0  0.42230  0.91590  0.23080  1.0000 0.3129367582
H   H56       1.0  0.42280  0.94720  0.16000  1.0000 0.3129367582
H   H57       1.0  0.59250  0.09150  0.35300  1.0000 0.3193328432
H   H58       1.0  0.55400  0.13910  0.54790  1.0000 0.3346843473
H   H59       1.0  0.55300  0.06380  0.45920  1.0000 0.3193328432
H   H60       1.0  0.39300  0.97210  0.35990  1.0000 0.3193328432
H   H61       1.0  0.33490  0.96770  0.21120  1.0000 0.1069806146
H   H62       1.0  0.64330  0.24550  0.52350  1.0000 0.1069806146
H   H63       1.0  0.56060  0.27430  0.56840  1.0000 0.1364493199
H   H64       1.0  0.39640  0.12470  0.39260  1.0000 0.1178727698
H   H65       1.0  0.52100  0.33210  0.48900  1.0000 0.1069806146
H   H66       1.0  0.65610  0.39320  0.56070  1.0000 0.1178727698
H   H67       1.0  0.50040  0.26970  0.33590  1.0000 0.1069806146
H   H68       1.0  0.35670  0.12340  0.24490  1.0000 0.1069806146
H   H69       1.0  0.43340  0.08540  0.20110  1.0000 0.1364493199
H   H70       1.0  0.59770  0.23290  0.37590  1.0000 0.1271600402
H   H71       1.0  0.23080  0.42230  0.91590  1.0000 0.3129367582
H   H72       1.0  0.16000  0.42280  0.94720  1.0000 0.3129367582
H   H73       1.0  0.35300  0.59250  0.09150  1.0000 0.3193328432
H   H74       1.0  0.54790  0.55400  0.13910  1.0000 0.3346843473
H   H75       1.0  0.45920  0.55300  0.06380  1.0000 0.3193328432
H   H76       1.0  0.35990  0.39300  0.97210  1.0000 0.3193328432
H   H77       1.0  0.21120  0.33490  0.96770  1.0000 0.1069806146
H   H78       1.0  0.52350  0.64330  0.24550  1.0000 0.1069806146
H   H79       1.0  0.56840  0.56060  0.27430  1.0000 0.1364493199
H   H80       1.0  0.39260  0.39640  0.12470  1.0000 0.1178727698
H   H81       1.0  0.48900  0.52100  0.33210  1.0000 0.1069806146
H   H82       1.0  0.56070  0.65610  0.39320  1.0000 0.1178727698
H   H83       1.0  0.33590  0.50040  0.26970  1.0000 0.1069806146
H   H84       1.0  0.24490  0.35670  0.12340  1.0000 0.1069806146
H   H85       1.0  0.20110  0.43340  0.08540  1.0000 0.1364493199
H   H86       1.0  0.37590  0.59770  0.23290  1.0000 0.1271600402
H   H87       1.0  0.91590  0.23080  0.42230  1.0000 0.3129367582
H   H88       1.0  0.94720  0.16000  0.42280  1.0000 0.3129367582
H   H89       1.0  0.09150  0.35300  0.59250  1.0000 0.3193328432
H   H90       1.0  0.13910  0.54790  0.55400  1.0000 0.3346843473
H   H91       1.0  0.06380  0.45920  0.55300  1.0000 0.3193328432
H   H92       1.0  0.97210  0.35990  0.39300  1.0000 0.3193328432
H   H93       1.0  0.96770  0.21120  0.33490  1.0000 0.1069806146
H   H94       1.0  0.24550  0.52350  0.64330  1.0000 0.1069806146
H   H95       1.0  0.27430  0.56840  0.56060  1.0000 0.1364493199
H   H96       1.0  0.12470  0.39260  0.39640  1.0000 0.1178727698
H   H97       1.0  0.33210  0.48900  0.52100  1.0000 0.1069806146
H   H98       1.0  0.39320  0.56070  0.65610  1.0000 0.1178727698
H   H99       1.0  0.26970  0.33590  0.50040  1.0000 0.1069806146
H   H100      1.0  0.12340  0.24490  0.35670  1.0000 0.1069806146
H   H101      1.0  0.08540  0.20110  0.43340  1.0000 0.1364493199
H   H102      1.0  0.23290  0.37590  0.59770  1.0000 0.1271600402
C   C1        1.0  0.94550  0.70810  0.55660  1.0000 0.1069806146
C   C2        1.0  0.84360  0.55570  0.46470  1.0000 0.0973720491
C   C3        1.0  0.78900  0.52780  0.49620  1.0000 -0.2370920428
C   C4        1.0  0.69800  0.52440  0.45260  1.0000 -0.152004505
C   C5        1.0  0.79240  0.67150  0.53510  1.0000 -0.152004505
C   C6        1.0  0.85200  0.70320  0.50980  1.0000 -0.2287785856
C   C7        1.0  0.55660  0.94550  0.70810  1.0000 0.1069806146
C   C8        1.0  0.46470  0.84360  0.55570  1.0000 0.0973720491
C   C9        1.0  0.49620  0.78900  0.52780  1.0000 -0.2370920428
C   C10       1.0  0.45260  0.69800  0.52440  1.0000 -0.152004505
C   C11       1.0  0.53510  0.79240  0.67150  1.0000 -0.152004505
C   C12       1.0  0.50980  0.85200  0.70320  1.0000 -0.2287785856
C   C13       1.0  0.70810  0.55660  0.94550  1.0000 0.1069806146
C   C14       1.0  0.55570  0.46470  0.84360  1.0000 0.0973720491
C   C15       1.0  0.52780  0.49620  0.78900  1.0000 -0.2370920428
C   C16       1.0  0.52440  0.45260  0.69800  1.0000 -0.152004505
C   C17       1.0  0.67150  0.53510  0.79240  1.0000 -0.152004505
C   C18       1.0  0.70320  0.50980  0.85200  1.0000 -0.2287785856
C   C19       1.0  0.44340  0.05450  0.29190  1.0000 0.1069806146
C   C20       1.0  0.53530  0.15640  0.44430  1.0000 0.0973720491
C   C21       1.0  0.50380  0.21100  0.47220  1.0000 -0.2370920428
C   C22       1.0  0.54740  0.30200  0.47560  1.0000 -0.152004505
C   C23       1.0  0.46490  0.20760  0.32850  1.0000 -0.152004505
C   C24       1.0  0.49020  0.14800  0.29680  1.0000 -0.2287785856
C   C25       1.0  0.29190  0.44340  0.05450  1.0000 0.1069806146
C   C26       1.0  0.44430  0.53530  0.15640  1.0000 0.0973720491
C   C27       1.0  0.47220  0.50380  0.21100  1.0000 -0.2370920428
C   C28       1.0  0.47560  0.54740  0.30200  1.0000 -0.152004505
C   C29       1.0  0.32850  0.46490  0.20760  1.0000 -0.152004505
C   C30       1.0  0.29680  0.49020  0.14800  1.0000 -0.2287785856
C   C31       1.0  0.05450  0.29190  0.44340  1.0000 0.1069806146
C   C32       1.0  0.15640  0.44430  0.53530  1.0000 0.0973720491
C   C33       1.0  0.21100  0.47220  0.50380  1.0000 -0.2370920428
C   C34       1.0  0.30200  0.47560  0.54740  1.0000 -0.152004505
C   C35       1.0  0.20760  0.32850  0.46490  1.0000 -0.152004505
C   C36       1.0  0.14800  0.29680  0.49020  1.0000 -0.2287785856
N   N1        1.0  0.00170  0.74370  0.52780  1.0000 -0.4545823433
N   N2        1.0  0.92310  0.54610  0.49380  1.0000 -0.4930558153
N   N3        1.0  0.52780  0.00170  0.74370  1.0000 -0.4545823433
N   N4        1.0  0.49380  0.92310  0.54610  1.0000 -0.4930558153
N   N5        1.0  0.74370  0.52780  0.00170  1.0000 -0.4545823433
N   N6        1.0  0.54610  0.49380  0.92310  1.0000 -0.4930558153
N   N7        1.0  0.47220  0.99830  0.25630  1.0000 -0.4545823433
N   N8        1.0  0.50620  0.07690  0.45390  1.0000 -0.4930558153
N   N9        1.0  0.25630  0.47220  0.99830  1.0000 -0.4545823433
N   N10       1.0  0.45390  0.50620  0.07690  1.0000 -0.4930558153
N   N11       1.0  0.99830  0.25630  0.47220  1.0000 -0.4545823433
N   N12       1.0  0.07690  0.45390  0.50620  1.0000 -0.4930558153
O   O1        1.0  0.53910  0.05830  0.12260  1.0000 -0.838092716
O   O2        1.0  0.05830  0.12260  0.53910  1.0000 -0.838092716
O   O3        1.0  0.12260  0.53910  0.05830  1.0000 -0.838092716
O   O4        1.0  0.94170  0.87740  0.46090  1.0000 -0.838092716
O   O5        1.0  0.87740  0.46090  0.94170  1.0000 -0.838092716
O   O6        1.0  0.46090  0.94170  0.87740  1.0000 -0.838092716
O   O7        1.0  0.79800  0.32020  0.40340  1.0000 -0.807480585
O   O8        1.0  0.32020  0.40340  0.79800  1.0000 -0.807480585
O   O9        1.0  0.40340  0.79800  0.32020  1.0000 -0.807480585
O   O10       1.0  0.67980  0.59660  0.20200  1.0000 -0.807480585
O   O11       1.0  0.59660  0.20200  0.67980  1.0000 -0.807480585
O   O12       1.0  0.20200  0.67980  0.59660  1.0000 -0.807480585
O   O13       1.0  0.89650  0.21800  0.59670  1.0000 -0.807480585
O   O14       1.0  0.21800  0.59670  0.89650  1.0000 -0.807480585
O   O15       1.0  0.59670  0.89650  0.21800  1.0000 -0.807480585
O   O16       1.0  0.78200  0.40330  0.10350  1.0000 -0.807480585
O   O17       1.0  0.40330  0.10350  0.78200  1.0000 -0.807480585
O   O18       1.0  0.10350  0.78200  0.40330  1.0000 -0.807480585
O   O19       1.0  0.07440  0.64200  0.89180  1.0000 -0.7956040449
O   O20       1.0  0.64200  0.89180  0.07440  1.0000 -0.7956040449
O   O21       1.0  0.89180  0.07440  0.64200  1.0000 -0.7956040449
O   O22       1.0  0.35800  0.10820  0.92560  1.0000 -0.7956040449
O   O23       1.0  0.10820  0.92560  0.35800  1.0000 -0.7956040449
O   O24       1.0  0.92560  0.35800  0.10820  1.0000 -0.7956040449
O   O25       1.0  0.07280  0.76530  0.88890  1.0000 -0.6301555284
O   O26       1.0  0.76530  0.88890  0.07280  1.0000 -0.6301555284
O   O27       1.0  0.88890  0.07280  0.76530  1.0000 -0.6301555284
O   O28       1.0  0.23470  0.11110  0.92720  1.0000 -0.6301555284
O   O29       1.0  0.11110  0.92720  0.23470  1.0000 -0.6301555284
O   O30       1.0  0.92720  0.23470  0.11110  1.0000 -0.6301555284
O   O31       1.0  0.76670  0.22870  0.23370  1.0000 -0.8300156575
O   O32       1.0  0.22870  0.23370  0.76670  1.0000 -0.8300156575
O   O33       1.0  0.23370  0.76670  0.22870  1.0000 -0.8300156575
O   O34       1.0  0.77130  0.76630  0.23330  1.0000 -0.8300156575
O   O35       1.0  0.76630  0.23330  0.77130  1.0000 -0.8300156575
O   O36       1.0  0.23330  0.77130  0.76630  1.0000 -0.8300156575
O   O37       1.0  0.80410  0.26890  0.54040  1.0000 -0.807480585
O   O38       1.0  0.26890  0.54040  0.80410  1.0000 -0.807480585
O   O39       1.0  0.54040  0.80410  0.26890  1.0000 -0.807480585
O   O40       1.0  0.73110  0.45960  0.19590  1.0000 -0.807480585
O   O41       1.0  0.45960  0.19590  0.73110  1.0000 -0.807480585
O   O42       1.0  0.19590  0.73110  0.45960  1.0000 -0.807480585
O   O43       1.0  0.98050  0.56690  0.69120  1.0000 -0.8168399183
O   O44       1.0  0.56690  0.69120  0.98050  1.0000 -0.8168399183
O   O45       1.0  0.69120  0.98050  0.56690  1.0000 -0.8168399183
O   O46       1.0  0.43310  0.30880  0.01950  1.0000 -0.8168399183
O   O47       1.0  0.30880  0.01950  0.43310  1.0000 -0.8168399183
O   O48       1.0  0.01950  0.43310  0.30880  1.0000 -0.8168399183
O   O49       1.0  0.73080  0.12300  0.27630  1.0000 -0.8300156575
O   O50       1.0  0.12300  0.27630  0.73080  1.0000 -0.8300156575
O   O51       1.0  0.27630  0.73080  0.12300  1.0000 -0.8300156575
O   O52       1.0  0.87700  0.72370  0.26920  1.0000 -0.8300156575
O   O53       1.0  0.72370  0.26920  0.87700  1.0000 -0.8300156575
O   O54       1.0  0.26920  0.87700  0.72370  1.0000 -0.8300156575
O   O55       1.0  0.67670  0.09350  0.49760  1.0000 -0.838092716
O   O56       1.0  0.09350  0.49760  0.67670  1.0000 -0.838092716
O   O57       1.0  0.49760  0.67670  0.09350  1.0000 -0.838092716
O   O58       1.0  0.90650  0.50240  0.32330  1.0000 -0.838092716
O   O59       1.0  0.50240  0.32330  0.90650  1.0000 -0.838092716
O   O60       1.0  0.32330  0.90650  0.50240  1.0000 -0.838092716
O   O61       1.0  0.93690  0.36970  0.76010  1.0000 -0.838092716
O   O62       1.0  0.36970  0.76010  0.93690  1.0000 -0.838092716
O   O63       1.0  0.76010  0.93690  0.36970  1.0000 -0.838092716
O   O64       1.0  0.63030  0.23990  0.06310  1.0000 -0.838092716
O   O65       1.0  0.23990  0.06310  0.63030  1.0000 -0.838092716
O   O66       1.0  0.06310  0.63030  0.23990  1.0000 -0.838092716
O   O67       1.0  0.25890  0.82340  0.96660  1.0000 -0.8300156575
O   O68       1.0  0.82340  0.96660  0.25890  1.0000 -0.8300156575
O   O69       1.0  0.96660  0.25890  0.82340  1.0000 -0.8300156575
O   O70       1.0  0.17660  0.03340  0.74110  1.0000 -0.8300156575
O   O71       1.0  0.03340  0.74110  0.17660  1.0000 -0.8300156575
O   O72       1.0  0.74110  0.17660  0.03340  1.0000 -0.8300156575
