# DDEC6 charges by PACMAN v1.1 (https://github.com/mtap-research/PACMAN-charge/)
data_1999[Ag][dia]3[ION]1
_chemical_formula_sum              "Ag4 B4 H48 C92 N16 F16"
_cell_length_a       11.7135
_cell_length_b       11.7135
_cell_length_c       23.5469
_cell_angle_alpha    78.0902
_cell_angle_beta     101.91
_cell_angle_gamma    100.554

_symmetry_space_group_name_H-M    "P 1"
_symmetry_Int_Tables_number       1

loop_
  _symmetry_equiv_pos_as_xyz
  'x, y, z'

loop_
  _atom_site_type_symbol
  _atom_site_label
  _atom_site_symmetry_multiplicity
  _atom_site_fract_x
  _atom_site_fract_y
  _atom_site_fract_z
  _atom_site_occupancy
  _atom_site_charge
Ag  Ag1       1.0  0.88753  0.08975  0.77392  1.0000 0.5277361513
Ag  Ag2       1.0  0.91025  0.11247  0.27392  1.0000 0.5277361513
Ag  Ag3       1.0  0.08975  0.88753  0.72608  1.0000 0.5277361513
Ag  Ag4       1.0  0.11247  0.91025  0.22608  1.0000 0.5277361513
B   B1        1.0  0.85330  0.55850  0.14530  1.0000 1.0686885506
B   B2        1.0  0.55850  0.85330  0.35470  1.0000 1.0686885506
B   B3        1.0  0.14670  0.44150  0.85470  1.0000 1.0686885506
B   B4        1.0  0.44150  0.14670  0.64530  1.0000 1.0686885506
H   H1        1.0  0.54173  0.20847  0.78370  1.0000 0.1313196243
H   H2        1.0  0.79153  0.45827  0.28370  1.0000 0.1313196243
H   H3        1.0  0.33960  0.14280  0.76490  1.0000 0.1313196243
H   H4        1.0  0.85720  0.66040  0.26490  1.0000 0.1313196243
H   H5        1.0  0.31100  0.21260  0.92160  1.0000 0.1313196243
H   H6        1.0  0.78740  0.68900  0.42160  1.0000 0.1313196243
H   H7        1.0  0.51320  0.26960  0.94090  1.0000 0.1313196243
H   H8        1.0  0.73040  0.48680  0.44090  1.0000 0.1313196243
H   H9        1.0  0.54050  0.46330  0.84620  1.0000 0.1313196243
H   H10       1.0  0.53670  0.45950  0.34620  1.0000 0.1313196243
H   H11       1.0  0.59120  0.66667  0.82450  1.0000 0.1313196243
H   H12       1.0  0.33340  0.40880  0.32450  1.0000 0.1313196243
H   H13       1.0  0.92750  0.63050  0.82790  1.0000 0.1374555237
H   H14       1.0  0.36950  0.07250  0.32790  1.0000 0.1374555237
H   H15       1.0  0.87680  0.42720  0.85000  1.0000 0.1374555237
H   H16       1.0  0.57280  0.12320  0.35000  1.0000 0.1374555237
H   H17       1.0  0.77420  0.42980  0.95860  1.0000 0.1313196243
H   H18       1.0  0.57020  0.22580  0.45860  1.0000 0.1313196243
H   H19       1.0  0.83940  0.38180  0.05970  1.0000 0.1374555237
H   H20       1.0  0.61820  0.16060  0.55970  1.0000 0.1313196243
H   H21       1.0  0.76500  0.03740  0.04740  1.0000 0.1313196243
H   H22       1.0  0.96260  0.23500  0.54740  1.0000 0.1313196243
H   H23       1.0  0.70400  0.08680  0.94710  1.0000 0.1313196243
H   H24       1.0  0.91320  0.29600  0.44710  1.0000 0.1313196243
H   H25       1.0  0.20847  0.54173  0.71630  1.0000 0.1313196243
H   H26       1.0  0.45827  0.79153  0.21630  1.0000 0.1313196243
H   H27       1.0  0.14280  0.33960  0.73510  1.0000 0.1313196243
H   H28       1.0  0.66040  0.85720  0.23510  1.0000 0.1313196243
H   H29       1.0  0.21260  0.31100  0.57840  1.0000 0.1313196243
H   H30       1.0  0.68900  0.78740  0.07840  1.0000 0.1313196243
H   H31       1.0  0.26960  0.51320  0.55910  1.0000 0.1313196243
H   H32       1.0  0.48680  0.73040  0.05910  1.0000 0.1313196243
H   H33       1.0  0.46330  0.54050  0.65380  1.0000 0.1313196243
H   H34       1.0  0.45950  0.53670  0.15380  1.0000 0.1313196243
H   H35       1.0  0.66667  0.59120  0.67550  1.0000 0.1313196243
H   H36       1.0  0.40880  0.33340  0.17550  1.0000 0.1313196243
H   H37       1.0  0.63050  0.92750  0.67210  1.0000 0.1374555237
H   H38       1.0  0.07250  0.36950  0.17210  1.0000 0.1374555237
H   H39       1.0  0.42720  0.87680  0.65000  1.0000 0.1374555237
H   H40       1.0  0.12320  0.57280  0.15000  1.0000 0.1374555237
H   H41       1.0  0.42980  0.77420  0.54140  1.0000 0.1313196243
H   H42       1.0  0.22580  0.57020  0.04140  1.0000 0.1313196243
H   H43       1.0  0.38180  0.83940  0.44030  1.0000 0.1313196243
H   H44       1.0  0.16060  0.61820  0.94030  1.0000 0.1313196243
H   H45       1.0  0.03740  0.76500  0.45260  1.0000 0.1313196243
H   H46       1.0  0.23500  0.96260  0.95260  1.0000 0.1313196243
H   H47       1.0  0.08680  0.70400  0.55290  1.0000 0.1313196243
H   H48       1.0  0.29600  0.91320  0.05290  1.0000 0.1313196243
C   C1        1.0  0.68040  0.29240  0.87640  1.0000 0.0094309916
C   C2        1.0  0.70760  0.31960  0.37640  1.0000 0.0094309916
C   C3        1.0  0.54710  0.24510  0.86440  1.0000 0.0701894282
C   C4        1.0  0.75490  0.45290  0.36440  1.0000 0.0701894282
C   C5        1.0  0.49550  0.20790  0.81150  1.0000 -0.1423939066
C   C6        1.0  0.79210  0.50450  0.31150  1.0000 -0.1423939066
C   C7        1.0  0.37440  0.16980  0.79990  1.0000 -0.0828425795
C   C8        1.0  0.83020  0.62560  0.29990  1.0000 -0.0828425795
C   C9        1.0  0.30580  0.17280  0.84140  1.0000 0.0399758081
C   C10       1.0  0.82720  0.69420  0.34140  1.0000 0.0399758081
C   C11       1.0  0.35710  0.21070  0.89410  1.0000 -0.0910156988
C   C12       1.0  0.78930  0.64290  0.39410  1.0000 -0.0910156988
C   C13       1.0  0.47810  0.24550  0.90530  1.0000 -0.1503166057
C   C14       1.0  0.75450  0.52190  0.40530  1.0000 -0.1503166057
C   C15       1.0  0.18060  0.14000  0.82730  1.0000 0.2986455873
C   C16       1.0  0.86000  0.81940  0.32730  1.0000 0.2986455873
C   C17       1.0  0.74190  0.23050  0.84500  1.0000 0.2808826655
C   C18       1.0  0.76950  0.25810  0.34500  1.0000 0.2808826655
C   C19       1.0  0.70660  0.42540  0.85270  1.0000 0.0757162958
C   C20       1.0  0.57460  0.29340  0.35270  1.0000 0.0757162958
C   C21       1.0  0.61810  0.49670  0.84350  1.0000 -0.1423939066
C   C22       1.0  0.50330  0.38190  0.34350  1.0000 -0.1423939066
C   C23       1.0  0.64880  0.61820  0.83040  1.0000 -0.110065617
C   C24       1.0  0.38180  0.35120  0.33040  1.0000 -0.110065617
C   C25       1.0  0.76380  0.66820  0.82590  1.0000 0.0399758081
C   C26       1.0  0.33180  0.23620  0.32590  1.0000 0.0399758081
C   C27       1.0  0.85080  0.59720  0.83240  1.0000 -0.0910156988
C   C28       1.0  0.40280  0.14920  0.33240  1.0000 -0.0910156988
C   C29       1.0  0.81990  0.47570  0.84570  1.0000 -0.1503166057
C   C30       1.0  0.52430  0.18010  0.34570  1.0000 -0.1503166057
C   C31       1.0  0.79370  0.79550  0.81520  1.0000 0.2986455873
C   C32       1.0  0.20450  0.20630  0.31520  1.0000 0.2986455873
C   C33       1.0  0.73070  0.26390  0.94280  1.0000 0.0701894282
C   C34       1.0  0.73610  0.26930  0.44280  1.0000 0.0701894282
C   C35       1.0  0.77250  0.35110  0.97650  1.0000 -0.1423939066
C   C36       1.0  0.64890  0.22750  0.47650  1.0000 -0.1423939066
C   C37       1.0  0.81210  0.32290  0.03710  1.0000 -0.0910156988
C   C38       1.0  0.67710  0.18790  0.53710  1.0000 -0.0910156988
C   C39       1.0  0.80990  0.20470  0.06290  1.0000 0.0461864393
C   C40       1.0  0.79530  0.19010  0.56290  1.0000 0.0461864393
C   C41       1.0  0.76770  0.11630  0.02950  1.0000 -0.110065617
C   C42       1.0  0.88370  0.23230  0.52950  1.0000 -0.110065617
C   C43       1.0  0.73010  0.14590  0.96980  1.0000 -0.1503166057
C   C44       1.0  0.85410  0.26990  0.46980  1.0000 -0.1503166057
C   C45       1.0  0.84750  0.17650  0.12580  1.0000 0.3051685929
C   C46       1.0  0.82350  0.15250  0.62580  1.0000 0.3051685929
C   C47       1.0  0.29240  0.68040  0.62360  1.0000 0.0094309916
C   C48       1.0  0.31960  0.70760  0.12360  1.0000 0.0094309916
C   C49       1.0  0.24510  0.54710  0.63560  1.0000 0.0701894282
C   C50       1.0  0.45290  0.75490  0.13560  1.0000 0.0701894282
C   C51       1.0  0.20790  0.49550  0.68850  1.0000 -0.1423939066
C   C52       1.0  0.50450  0.79210  0.18850  1.0000 -0.1423939066
C   C53       1.0  0.16980  0.37440  0.70010  1.0000 -0.0828425795
C   C54       1.0  0.62560  0.83020  0.20010  1.0000 -0.0828425795
C   C55       1.0  0.17280  0.30580  0.65860  1.0000 0.0399758081
C   C56       1.0  0.69420  0.82720  0.15860  1.0000 0.0399758081
C   C57       1.0  0.21070  0.35710  0.60590  1.0000 -0.0910156988
C   C58       1.0  0.64290  0.78930  0.10590  1.0000 -0.0910156988
C   C59       1.0  0.24550  0.47810  0.59470  1.0000 -0.1503166057
C   C60       1.0  0.52190  0.75450  0.09470  1.0000 -0.1503166057
C   C61       1.0  0.14000  0.18060  0.67270  1.0000 0.2986455873
C   C62       1.0  0.81940  0.86000  0.17270  1.0000 0.2986455873
C   C63       1.0  0.23050  0.74190  0.65500  1.0000 0.2808826655
C   C64       1.0  0.25810  0.76950  0.15500  1.0000 0.2808826655
C   C65       1.0  0.42540  0.70660  0.64730  1.0000 0.0757162958
C   C66       1.0  0.29340  0.57460  0.14730  1.0000 0.0757162958
C   C67       1.0  0.49670  0.61810  0.65650  1.0000 -0.1423939066
C   C68       1.0  0.38190  0.50330  0.15650  1.0000 -0.1423939066
C   C69       1.0  0.61820  0.64880  0.66960  1.0000 -0.110065617
C   C70       1.0  0.35120  0.38180  0.16960  1.0000 -0.110065617
C   C71       1.0  0.66820  0.76380  0.67410  1.0000 0.0399758081
C   C72       1.0  0.23620  0.33180  0.17410  1.0000 0.0399758081
C   C73       1.0  0.59720  0.85080  0.66760  1.0000 -0.0910156988
C   C74       1.0  0.14920  0.40280  0.16760  1.0000 -0.0910156988
C   C75       1.0  0.47570  0.81990  0.65430  1.0000 -0.1503166057
C   C76       1.0  0.18010  0.52430  0.15430  1.0000 -0.1503166057
C   C77       1.0  0.79550  0.79370  0.68480  1.0000 0.2986455873
C   C78       1.0  0.20630  0.20450  0.18480  1.0000 0.2986455873
C   C79       1.0  0.26390  0.73070  0.55720  1.0000 0.0701894282
C   C80       1.0  0.26930  0.73610  0.05720  1.0000 0.0701894282
C   C81       1.0  0.35110  0.77250  0.52350  1.0000 -0.1423939066
C   C82       1.0  0.22750  0.64890  0.02350  1.0000 -0.1423939066
C   C83       1.0  0.32290  0.81210  0.46290  1.0000 -0.0910156988
C   C84       1.0  0.18790  0.67710  0.96290  1.0000 -0.0910156988
C   C85       1.0  0.20470  0.80990  0.43710  1.0000 0.0461864393
C   C86       1.0  0.19010  0.79530  0.93710  1.0000 0.0461864393
C   C87       1.0  0.11630  0.76770  0.47050  1.0000 -0.110065617
C   C88       1.0  0.23230  0.88370  0.97050  1.0000 -0.110065617
C   C89       1.0  0.14590  0.73010  0.53020  1.0000 -0.1503166057
C   C90       1.0  0.26990  0.85410  0.03020  1.0000 -0.1503166057
C   C91       1.0  0.17650  0.84750  0.37420  1.0000 0.3051685929
C   C92       1.0  0.15250  0.82350  0.87420  1.0000 0.3051685929
N   N1        1.0  0.08020  0.11580  0.81440  1.0000 -0.3598122805
N   N2        1.0  0.88420  0.91980  0.31440  1.0000 -0.3598122805
N   N3        1.0  0.81690  0.89490  0.80640  1.0000 -0.3658846974
N   N4        1.0  0.10510  0.18310  0.30640  1.0000 -0.3658846974
N   N5        1.0  0.87590  0.15350  0.17560  1.0000 -0.3598122805
N   N6        1.0  0.84650  0.12410  0.67560  1.0000 -0.3598122805
N   N7        1.0  0.78780  0.18480  0.82010  1.0000 -0.3237756252
N   N8        1.0  0.81520  0.21220  0.32010  1.0000 -0.3237756252
N   N9        1.0  0.11580  0.08020  0.68560  1.0000 -0.3598122805
N   N10       1.0  0.91980  0.88420  0.18560  1.0000 -0.3598122805
N   N11       1.0  0.89490  0.81690  0.69360  1.0000 -0.3658846974
N   N12       1.0  0.18310  0.10510  0.19360  1.0000 -0.3658846974
N   N13       1.0  0.15350  0.87590  0.32440  1.0000 -0.3598122805
N   N14       1.0  0.12410  0.84650  0.82440  1.0000 -0.3598122805
N   N15       1.0  0.18480  0.78780  0.67990  1.0000 -0.3237756252
N   N16       1.0  0.21220  0.81520  0.17990  1.0000 -0.3237756252
F   F1        1.0  0.75770  0.55910  0.16830  1.0000 -0.4499258384
F   F2        1.0  0.88230  0.44830  0.15370  1.0000 -0.4692364767
F   F3        1.0  0.81940  0.59000  0.08410  1.0000 -0.4692364767
F   F4        1.0  0.94380  0.63600  0.16790  1.0000 -0.4692364767
F   F5        1.0  0.55910  0.75770  0.33170  1.0000 -0.4499258384
F   F6        1.0  0.44830  0.88230  0.34630  1.0000 -0.4692364767
F   F7        1.0  0.59000  0.81940  0.41590  1.0000 -0.4692364767
F   F8        1.0  0.63600  0.94380  0.33210  1.0000 -0.4692364767
F   F9        1.0  0.24230  0.44090  0.83170  1.0000 -0.4499258384
F   F10       1.0  0.11770  0.55170  0.84630  1.0000 -0.4692364767
F   F11       1.0  0.18060  0.41000  0.91590  1.0000 -0.4692364767
F   F12       1.0  0.05620  0.36400  0.83210  1.0000 -0.4692364767
F   F13       1.0  0.44090  0.24230  0.66830  1.0000 -0.4499258384
F   F14       1.0  0.55170  0.11770  0.65370  1.0000 -0.4692364767
F   F15       1.0  0.41000  0.18060  0.58410  1.0000 -0.4692364767
F   F16       1.0  0.36400  0.05620  0.66790  1.0000 -0.4692364767
