# DDEC6 charges by PACMAN v1.1 (https://github.com/mtap-research/PACMAN-charge/)
data_1999[Ag][nan]3[ION]1
_chemical_formula_sum              "Ag16 H144 C80 N32 O32"
_cell_length_a       12.12
_cell_length_b       12.9889
_cell_length_c       22.7015
_cell_angle_alpha    90
_cell_angle_beta     90
_cell_angle_gamma    90

_symmetry_space_group_name_H-M    "P 1"
_symmetry_Int_Tables_number       1

loop_
  _symmetry_equiv_pos_as_xyz
  'x, y, z'

loop_
  _atom_site_type_symbol
  _atom_site_label
  _atom_site_symmetry_multiplicity
  _atom_site_fract_x
  _atom_site_fract_y
  _atom_site_fract_z
  _atom_site_occupancy
  _atom_site_charge
Ag  Ag1       1.0  0.50977  0.04679  0.05811  1.0000 0.3413613007
Ag  Ag2       1.0  0.00977  0.45321  0.55811  1.0000 0.3413613007
Ag  Ag3       1.0  0.49023  0.54679  0.05811  1.0000 0.3413613007
Ag  Ag4       1.0  0.00977  0.04679  0.44189  1.0000 0.3413613007
Ag  Ag5       1.0  0.49023  0.95321  0.94189  1.0000 0.3413613007
Ag  Ag6       1.0  0.99023  0.54679  0.44189  1.0000 0.3413613007
Ag  Ag7       1.0  0.50977  0.45321  0.94189  1.0000 0.3413613007
Ag  Ag8       1.0  0.99023  0.95321  0.55811  1.0000 0.3413613007
Ag  Ag9       1.0  0.25008  0.79954  0.25157  1.0000 0.3468728565
Ag  Ag10      1.0  0.75008  0.70046  0.75157  1.0000 0.3468728565
Ag  Ag11      1.0  0.74992  0.29954  0.25157  1.0000 0.3468728565
Ag  Ag12      1.0  0.75008  0.79954  0.24843  1.0000 0.3468728565
Ag  Ag13      1.0  0.74992  0.20046  0.74843  1.0000 0.3468728565
Ag  Ag14      1.0  0.24992  0.29954  0.24843  1.0000 0.3468728565
Ag  Ag15      1.0  0.25008  0.70046  0.74843  1.0000 0.3468728565
Ag  Ag16      1.0  0.24992  0.20046  0.75157  1.0000 0.3468728565
H   H1        1.0  0.09620  0.64250  0.32210  1.0000 0.1193742356
H   H2        1.0  0.59620  0.85750  0.82210  1.0000 0.1193742356
H   H3        1.0  0.90380  0.14250  0.32210  1.0000 0.1193742356
H   H4        1.0  0.59620  0.64250  0.17790  1.0000 0.1193742356
H   H5        1.0  0.90380  0.35750  0.67790  1.0000 0.1193742356
H   H6        1.0  0.40380  0.14250  0.17790  1.0000 0.1193742356
H   H7        1.0  0.09620  0.85750  0.67790  1.0000 0.1193742356
H   H8        1.0  0.40380  0.35750  0.82210  1.0000 0.1193742356
H   H9        1.0  0.16070  0.70090  0.37180  1.0000 0.1193742356
H   H10       1.0  0.66070  0.79910  0.87180  1.0000 0.1193742356
H   H11       1.0  0.83930  0.20090  0.37180  1.0000 0.1193742356
H   H12       1.0  0.66070  0.70090  0.12820  1.0000 0.1193742356
H   H13       1.0  0.83930  0.29910  0.62820  1.0000 0.1193742356
H   H14       1.0  0.33930  0.20090  0.12820  1.0000 0.1193742356
H   H15       1.0  0.16070  0.79910  0.62820  1.0000 0.1193742356
H   H16       1.0  0.33930  0.29910  0.87180  1.0000 0.1193742356
H   H17       1.0  0.60110  0.94950  0.17540  1.0000 0.1193742356
H   H18       1.0  0.10110  0.55050  0.67540  1.0000 0.1193742356
H   H19       1.0  0.39890  0.44950  0.17540  1.0000 0.1193742356
H   H20       1.0  0.10110  0.94950  0.32460  1.0000 0.1193742356
H   H21       1.0  0.39890  0.05050  0.82460  1.0000 0.1193742356
H   H22       1.0  0.89890  0.44950  0.32460  1.0000 0.1193742356
H   H23       1.0  0.60110  0.55050  0.82460  1.0000 0.1193742356
H   H24       1.0  0.89890  0.05050  0.67540  1.0000 0.1252096609
H   H25       1.0  0.66380  0.88680  0.12670  1.0000 0.1193742356
H   H26       1.0  0.16380  0.61320  0.62670  1.0000 0.1193742356
H   H27       1.0  0.33620  0.38680  0.12670  1.0000 0.1193742356
H   H28       1.0  0.16380  0.88680  0.37330  1.0000 0.1193742356
H   H29       1.0  0.33620  0.11320  0.87330  1.0000 0.1193742356
H   H30       1.0  0.83620  0.38680  0.37330  1.0000 0.1193742356
H   H31       1.0  0.66380  0.61320  0.87330  1.0000 0.1193742356
H   H32       1.0  0.83620  0.11320  0.62670  1.0000 0.1193742356
H   H33       1.0  0.93210  0.79540  0.44670  1.0000 0.1193742356
H   H34       1.0  0.43210  0.70460  0.94670  1.0000 0.1193742356
H   H35       1.0  0.06790  0.29540  0.44670  1.0000 0.1193742356
H   H36       1.0  0.43210  0.79540  0.05330  1.0000 0.1193742356
H   H37       1.0  0.06790  0.20460  0.55330  1.0000 0.1193742356
H   H38       1.0  0.56790  0.29540  0.05330  1.0000 0.1193742356
H   H39       1.0  0.93210  0.70460  0.55330  1.0000 0.1193742356
H   H40       1.0  0.56790  0.20460  0.94670  1.0000 0.1193742356
H   H41       1.0  0.06160  0.79360  0.44720  1.0000 0.1193742356
H   H42       1.0  0.56160  0.70640  0.94720  1.0000 0.1193742356
H   H43       1.0  0.93840  0.29360  0.44720  1.0000 0.1193742356
H   H44       1.0  0.56160  0.79360  0.05280  1.0000 0.1193742356
H   H45       1.0  0.93840  0.20640  0.55280  1.0000 0.1193742356
H   H46       1.0  0.43840  0.29360  0.05280  1.0000 0.1193742356
H   H47       1.0  0.06160  0.70640  0.55280  1.0000 0.1193742356
H   H48       1.0  0.43840  0.20640  0.94720  1.0000 0.1193742356
H   H49       1.0  0.89610  0.64480  0.32100  1.0000 0.1252096609
H   H50       1.0  0.39610  0.85520  0.82100  1.0000 0.1193742356
H   H51       1.0  0.10390  0.14480  0.32100  1.0000 0.1193742356
H   H52       1.0  0.39610  0.64480  0.17900  1.0000 0.1193742356
H   H53       1.0  0.10390  0.35520  0.67900  1.0000 0.1193742356
H   H54       1.0  0.60390  0.14480  0.17900  1.0000 0.1193742356
H   H55       1.0  0.89610  0.85520  0.67900  1.0000 0.1252096609
H   H56       1.0  0.60390  0.35520  0.82100  1.0000 0.1252096609
H   H57       1.0  0.83150  0.70490  0.37010  1.0000 0.1193742356
H   H58       1.0  0.33150  0.79510  0.87010  1.0000 0.1193742356
H   H59       1.0  0.16850  0.20490  0.37010  1.0000 0.1193742356
H   H60       1.0  0.33150  0.70490  0.12990  1.0000 0.1193742356
H   H61       1.0  0.16850  0.29510  0.62990  1.0000 0.1193742356
H   H62       1.0  0.66850  0.20490  0.12990  1.0000 0.1193742356
H   H63       1.0  0.83150  0.79510  0.62990  1.0000 0.1193742356
H   H64       1.0  0.66850  0.29510  0.87010  1.0000 0.1193742356
H   H65       1.0  0.99980  0.85950  0.24740  1.0000 0.1193742356
H   H66       1.0  0.49980  0.64050  0.74740  1.0000 0.1193742356
H   H67       1.0  0.00020  0.35950  0.24740  1.0000 0.1193742356
H   H68       1.0  0.49980  0.85950  0.25260  1.0000 0.1193742356
H   H69       1.0  0.00020  0.14050  0.75260  1.0000 0.1193742356
H   H70       1.0  0.50020  0.35950  0.25260  1.0000 0.1193742356
H   H71       1.0  0.99980  0.64050  0.75260  1.0000 0.1193742356
H   H72       1.0  0.50020  0.14050  0.74740  1.0000 0.1193742356
H   H73       1.0  0.99820  0.73860  0.24650  1.0000 0.1193742356
H   H74       1.0  0.49820  0.76140  0.74650  1.0000 0.1193742356
H   H75       1.0  0.00180  0.23860  0.24650  1.0000 0.1193742356
H   H76       1.0  0.49820  0.73860  0.25350  1.0000 0.1193742356
H   H77       1.0  0.00180  0.26140  0.75350  1.0000 0.1193742356
H   H78       1.0  0.50180  0.23860  0.25350  1.0000 0.1193742356
H   H79       1.0  0.99820  0.76140  0.75350  1.0000 0.1193742356
H   H80       1.0  0.50180  0.26140  0.74650  1.0000 0.1193742356
H   H81       1.0  0.40070  0.95290  0.17660  1.0000 0.1193742356
H   H82       1.0  0.90070  0.54710  0.67660  1.0000 0.1193742356
H   H83       1.0  0.59930  0.45290  0.17660  1.0000 0.1193742356
H   H84       1.0  0.90070  0.95290  0.32340  1.0000 0.1193742356
H   H85       1.0  0.59930  0.04710  0.82340  1.0000 0.1193742356
H   H86       1.0  0.09930  0.45290  0.32340  1.0000 0.1193742356
H   H87       1.0  0.40070  0.54710  0.82340  1.0000 0.1193742356
H   H88       1.0  0.09930  0.04710  0.67660  1.0000 0.1193742356
H   H89       1.0  0.33390  0.89260  0.12840  1.0000 0.1193742356
H   H90       1.0  0.83390  0.60740  0.62840  1.0000 0.1193742356
H   H91       1.0  0.66610  0.39260  0.12840  1.0000 0.1193742356
H   H92       1.0  0.83390  0.89260  0.37160  1.0000 0.1193742356
H   H93       1.0  0.66610  0.10740  0.87160  1.0000 0.1193742356
H   H94       1.0  0.16610  0.39260  0.37160  1.0000 0.1193742356
H   H95       1.0  0.33390  0.60740  0.87160  1.0000 0.1193742356
H   H96       1.0  0.16610  0.10740  0.62840  1.0000 0.1193742356
H   H97       1.0  0.86260  0.92920  0.96310  1.0000 0.1492934531
H   H98       1.0  0.36260  0.57080  0.46310  1.0000 0.1492934531
H   H99       1.0  0.13740  0.42920  0.96310  1.0000 0.1492934531
H   H100      1.0  0.36260  0.92920  0.53690  1.0000 0.1492934531
H   H101      1.0  0.13740  0.07080  0.03690  1.0000 0.1492934531
H   H102      1.0  0.63740  0.42920  0.53690  1.0000 0.1492934531
H   H103      1.0  0.86260  0.57080  0.03690  1.0000 0.1492934531
H   H104      1.0  0.63740  0.07080  0.46310  1.0000 0.1492934531
H   H105      1.0  0.88530  0.01020  0.01280  1.0000 0.1492934531
H   H106      1.0  0.38530  0.48980  0.51280  1.0000 0.1492934531
H   H107      1.0  0.11470  0.51020  0.01280  1.0000 0.1492934531
H   H108      1.0  0.38530  0.01020  0.48720  1.0000 0.1492934531
H   H109      1.0  0.11470  0.98980  0.98720  1.0000 0.1492934531
H   H110      1.0  0.61470  0.51020  0.48720  1.0000 0.1492934531
H   H111      1.0  0.88530  0.48980  0.98720  1.0000 0.1492934531
H   H112      1.0  0.61470  0.98980  0.51280  1.0000 0.1492934531
H   H113      1.0  0.85970  0.04720  0.94850  1.0000 0.1492934531
H   H114      1.0  0.35970  0.45280  0.44850  1.0000 0.1492934531
H   H115      1.0  0.14030  0.54720  0.94850  1.0000 0.1492934531
H   H116      1.0  0.35970  0.04720  0.55150  1.0000 0.1492934531
H   H117      1.0  0.14030  0.95280  0.05150  1.0000 0.1492934531
H   H118      1.0  0.64030  0.54720  0.55150  1.0000 0.1492934531
H   H119      1.0  0.85970  0.45280  0.05150  1.0000 0.1492934531
H   H120      1.0  0.64030  0.95280  0.44850  1.0000 0.1492934531
H   H121      1.0  0.95650  0.45270  0.87310  1.0000 0.1492934531
H   H122      1.0  0.83580  0.41140  0.88070  1.0000 0.1414894459
H   H123      1.0  0.85730  0.53010  0.87580  1.0000 0.1414894459
H   H124      1.0  0.54350  0.95270  0.62690  1.0000 0.1492934531
H   H125      1.0  0.66420  0.91140  0.61930  1.0000 0.1414894459
H   H126      1.0  0.64270  0.03010  0.62420  1.0000 0.1414894459
H   H127      1.0  0.95650  0.04730  0.12690  1.0000 0.1492934531
H   H128      1.0  0.83580  0.08860  0.11930  1.0000 0.1414894459
H   H129      1.0  0.85730  0.96990  0.12420  1.0000 0.1414894459
H   H130      1.0  0.45650  0.45270  0.62690  1.0000 0.1492934531
H   H131      1.0  0.33580  0.41140  0.61930  1.0000 0.1414894459
H   H132      1.0  0.35730  0.53010  0.62420  1.0000 0.1414894459
H   H133      1.0  0.04350  0.54730  0.12690  1.0000 0.1492934531
H   H134      1.0  0.16420  0.58860  0.11930  1.0000 0.1414894459
H   H135      1.0  0.14270  0.46990  0.12420  1.0000 0.1414894459
H   H136      1.0  0.45650  0.04730  0.37310  1.0000 0.1492934531
H   H137      1.0  0.33580  0.08860  0.38070  1.0000 0.1414894459
H   H138      1.0  0.35730  0.96990  0.37580  1.0000 0.1414894459
H   H139      1.0  0.04350  0.95270  0.87310  1.0000 0.1492934531
H   H140      1.0  0.16420  0.91140  0.88070  1.0000 0.1414894459
H   H141      1.0  0.14270  0.03010  0.87580  1.0000 0.1414894459
H   H142      1.0  0.54350  0.54730  0.37310  1.0000 0.1492934531
H   H143      1.0  0.66420  0.58860  0.38070  1.0000 0.1414894459
H   H144      1.0  0.64270  0.46990  0.37580  1.0000 0.1414894459
C   C1        1.0  0.59570  0.70330  0.15300  1.0000 -0.0326465874
C   C2        1.0  0.09570  0.79670  0.65300  1.0000 -0.0326465874
C   C3        1.0  0.40430  0.20330  0.15300  1.0000 -0.0326465874
C   C4        1.0  0.09570  0.70330  0.34700  1.0000 -0.0326465874
C   C5        1.0  0.40430  0.29670  0.84700  1.0000 -0.0326465874
C   C6        1.0  0.90430  0.20330  0.34700  1.0000 -0.0326465874
C   C7        1.0  0.59570  0.79670  0.84700  1.0000 -0.0326465874
C   C8        1.0  0.90430  0.29670  0.65300  1.0000 -0.0326465874
C   C9        1.0  0.59870  0.88750  0.15160  1.0000 -0.0326465874
C   C10       1.0  0.09870  0.61250  0.65160  1.0000 -0.0326465874
C   C11       1.0  0.40130  0.38750  0.15160  1.0000 -0.0326465874
C   C12       1.0  0.09870  0.88750  0.34840  1.0000 -0.0326465874
C   C13       1.0  0.40130  0.11250  0.84840  1.0000 -0.0326465874
C   C14       1.0  0.90130  0.38750  0.34840  1.0000 -0.0326465874
C   C15       1.0  0.59870  0.61250  0.84840  1.0000 -0.0326465874
C   C16       1.0  0.90130  0.11250  0.65160  1.0000 -0.0326465874
C   C17       1.0  0.99720  0.79520  0.42180  1.0000 -0.0326465874
C   C18       1.0  0.49720  0.70480  0.92180  1.0000 -0.0326465874
C   C19       1.0  0.00280  0.29520  0.42180  1.0000 -0.0326465874
C   C20       1.0  0.49720  0.79520  0.07820  1.0000 -0.0326465874
C   C21       1.0  0.00280  0.20480  0.57820  1.0000 -0.0326465874
C   C22       1.0  0.50280  0.29520  0.07820  1.0000 -0.0326465874
C   C23       1.0  0.99720  0.70480  0.57820  1.0000 -0.0326465874
C   C24       1.0  0.50280  0.20480  0.92180  1.0000 -0.0326465874
C   C25       1.0  0.89750  0.70550  0.34590  1.0000 -0.0326465874
C   C26       1.0  0.39750  0.79450  0.84590  1.0000 -0.0326465874
C   C27       1.0  0.10250  0.20550  0.34590  1.0000 -0.0326465874
C   C28       1.0  0.39750  0.70550  0.15410  1.0000 -0.0326465874
C   C29       1.0  0.10250  0.29450  0.65410  1.0000 -0.0326465874
C   C30       1.0  0.60250  0.20550  0.15410  1.0000 -0.0326465874
C   C31       1.0  0.89750  0.79450  0.65410  1.0000 -0.0326465874
C   C32       1.0  0.60250  0.29450  0.84590  1.0000 -0.0326465874
C   C33       1.0  0.49880  0.79850  0.22800  1.0000 -0.0365716412
C   C34       1.0  0.99880  0.70150  0.72800  1.0000 -0.0365716412
C   C35       1.0  0.50120  0.29850  0.22800  1.0000 -0.0365716412
C   C36       1.0  0.99880  0.79850  0.27200  1.0000 -0.0365716412
C   C37       1.0  0.50120  0.20150  0.77200  1.0000 -0.0365716412
C   C38       1.0  0.00120  0.29850  0.27200  1.0000 -0.0365716412
C   C39       1.0  0.49880  0.70150  0.77200  1.0000 -0.0365716412
C   C40       1.0  0.00120  0.20150  0.72800  1.0000 -0.0365716412
C   C41       1.0  0.40000  0.89120  0.15260  1.0000 -0.0326465874
C   C42       1.0  0.90000  0.60880  0.65260  1.0000 -0.0326465874
C   C43       1.0  0.60000  0.39120  0.15260  1.0000 -0.0326465874
C   C44       1.0  0.90000  0.89120  0.34740  1.0000 -0.0326465874
C   C45       1.0  0.60000  0.10880  0.84740  1.0000 -0.0326465874
C   C46       1.0  0.10000  0.39120  0.34740  1.0000 -0.0326465874
C   C47       1.0  0.40000  0.60880  0.84740  1.0000 -0.0326465874
C   C48       1.0  0.10000  0.10880  0.65260  1.0000 -0.0326465874
C   C49       1.0  0.72200  0.99880  0.99220  1.0000 0.6334542052
C   C50       1.0  0.22200  0.50120  0.49220  1.0000 0.6334542052
C   C51       1.0  0.27800  0.49880  0.99220  1.0000 0.6334542052
C   C52       1.0  0.22200  0.99880  0.50780  1.0000 0.6334542052
C   C53       1.0  0.27800  0.00120  0.00780  1.0000 0.6334542052
C   C54       1.0  0.77800  0.49880  0.50780  1.0000 0.6334542052
C   C55       1.0  0.72200  0.50120  0.00780  1.0000 0.6334542052
C   C56       1.0  0.77800  0.00120  0.49220  1.0000 0.6334542052
C   C57       1.0  0.84340  0.99610  0.97780  1.0000 -0.5925225823
C   C58       1.0  0.34340  0.50390  0.47780  1.0000 -0.5925225823
C   C59       1.0  0.15660  0.49610  0.97780  1.0000 -0.5925225823
C   C60       1.0  0.34340  0.99610  0.52220  1.0000 -0.5925225823
C   C61       1.0  0.15660  0.00390  0.02220  1.0000 -0.5925225823
C   C62       1.0  0.65660  0.49610  0.52220  1.0000 -0.5925225823
C   C63       1.0  0.84340  0.50390  0.02220  1.0000 -0.5925225823
C   C64       1.0  0.65660  0.00390  0.47780  1.0000 -0.5925225823
C   C65       1.0  0.86900  0.45690  0.79780  1.0000 0.6209753693
C   C66       1.0  0.88060  0.46330  0.86250  1.0000 -0.6197504833
C   C67       1.0  0.63100  0.95690  0.70220  1.0000 0.6209753693
C   C68       1.0  0.61940  0.96330  0.63750  1.0000 -0.6197504833
C   C69       1.0  0.86900  0.04310  0.20220  1.0000 0.6209753693
C   C70       1.0  0.88060  0.03670  0.13750  1.0000 -0.6197504833
C   C71       1.0  0.36900  0.45690  0.70220  1.0000 0.6209753693
C   C72       1.0  0.38060  0.46330  0.63750  1.0000 -0.6197504833
C   C73       1.0  0.13100  0.54310  0.20220  1.0000 0.6209753693
C   C74       1.0  0.11940  0.53670  0.13750  1.0000 -0.6197504833
C   C75       1.0  0.36900  0.04310  0.29780  1.0000 0.6209753693
C   C76       1.0  0.38060  0.03670  0.36250  1.0000 -0.6197504833
C   C77       1.0  0.13100  0.95690  0.79780  1.0000 0.6209753693
C   C78       1.0  0.11940  0.96330  0.86250  1.0000 -0.6197504833
C   C79       1.0  0.63100  0.54310  0.29780  1.0000 0.6209753693
C   C80       1.0  0.61940  0.53670  0.36250  1.0000 -0.6197504833
N   N1        1.0  0.49610  0.70210  0.11572  1.0000 -0.1417920424
N   N2        1.0  0.99610  0.79790  0.61572  1.0000 -0.1417920424
N   N3        1.0  0.50390  0.20210  0.11572  1.0000 -0.1417920424
N   N4        1.0  0.99610  0.70210  0.38428  1.0000 -0.1417920424
N   N5        1.0  0.50390  0.29790  0.88428  1.0000 -0.1417920424
N   N6        1.0  0.00390  0.20210  0.38428  1.0000 -0.1417920424
N   N7        1.0  0.49610  0.79790  0.88428  1.0000 -0.1417920424
N   N8        1.0  0.00390  0.29790  0.61572  1.0000 -0.1417920424
N   N9        1.0  0.60040  0.79660  0.19059  1.0000 -0.1239664325
N   N10       1.0  0.10040  0.70340  0.69059  1.0000 -0.1239664325
N   N11       1.0  0.39960  0.29660  0.19059  1.0000 -0.1239664325
N   N12       1.0  0.10040  0.79660  0.30941  1.0000 -0.1239664325
N   N13       1.0  0.39960  0.20340  0.80941  1.0000 -0.1239664325
N   N14       1.0  0.89960  0.29660  0.30941  1.0000 -0.1239664325
N   N15       1.0  0.60040  0.70340  0.80941  1.0000 -0.1239664325
N   N16       1.0  0.89960  0.20340  0.69059  1.0000 -0.1239664325
N   N17       1.0  0.49920  0.88990  0.11393  1.0000 -0.146413645
N   N18       1.0  0.99920  0.61010  0.61393  1.0000 -0.146413645
N   N19       1.0  0.50080  0.38990  0.11393  1.0000 -0.146413645
N   N20       1.0  0.99920  0.88990  0.38607  1.0000 -0.146413645
N   N21       1.0  0.50080  0.11010  0.88607  1.0000 -0.146413645
N   N22       1.0  0.00080  0.38990  0.38607  1.0000 -0.146413645
N   N23       1.0  0.49920  0.61010  0.88607  1.0000 -0.146413645
N   N24       1.0  0.00080  0.11010  0.61393  1.0000 -0.146413645
N   N25       1.0  0.39790  0.79880  0.19128  1.0000 -0.1239664325
N   N26       1.0  0.89790  0.70120  0.69128  1.0000 -0.1239664325
N   N27       1.0  0.60210  0.29880  0.19128  1.0000 -0.1239664325
N   N28       1.0  0.89790  0.79880  0.30872  1.0000 -0.1239664325
N   N29       1.0  0.60210  0.20120  0.80872  1.0000 -0.1239664325
N   N30       1.0  0.10210  0.29880  0.30872  1.0000 -0.1239664325
N   N31       1.0  0.39790  0.70120  0.80872  1.0000 -0.1239664325
N   N32       1.0  0.10210  0.20120  0.69128  1.0000 -0.1239664325
O   O1        1.0  0.68140  0.07950  0.01205  1.0000 -0.5610299877
O   O2        1.0  0.18140  0.42050  0.51205  1.0000 -0.5610299877
O   O3        1.0  0.31860  0.57950  0.01205  1.0000 -0.5610299877
O   O4        1.0  0.18140  0.07950  0.48795  1.0000 -0.5610299877
O   O5        1.0  0.31860  0.92050  0.98795  1.0000 -0.5610299877
O   O6        1.0  0.81860  0.57950  0.48795  1.0000 -0.5610299877
O   O7        1.0  0.68140  0.42050  0.98795  1.0000 -0.5610299877
O   O8        1.0  0.81860  0.92050  0.51205  1.0000 -0.5610299877
O   O9        1.0  0.33200  0.08200  0.01710  1.0000 -0.5681983217
O   O10       1.0  0.83200  0.41800  0.51710  1.0000 -0.5681983217
O   O11       1.0  0.66800  0.58200  0.01710  1.0000 -0.5681983217
O   O12       1.0  0.83200  0.08200  0.48290  1.0000 -0.5681983217
O   O13       1.0  0.66800  0.91800  0.98290  1.0000 -0.5681983217
O   O14       1.0  0.16800  0.58200  0.48290  1.0000 -0.5681983217
O   O15       1.0  0.33200  0.41800  0.98290  1.0000 -0.5681983217
O   O16       1.0  0.16800  0.91800  0.51710  1.0000 -0.5681983217
O   O17       1.0  0.95660  0.45200  0.76620  1.0000 -0.6197504833
O   O18       1.0  0.77970  0.46790  0.77530  1.0000 -0.5610299877
O   O19       1.0  0.54340  0.95200  0.73380  1.0000 -0.6197504833
O   O20       1.0  0.72030  0.96790  0.72470  1.0000 -0.5610299877
O   O21       1.0  0.95660  0.04800  0.23380  1.0000 -0.6197504833
O   O22       1.0  0.77970  0.03210  0.22470  1.0000 -0.5610299877
O   O23       1.0  0.45660  0.45200  0.73380  1.0000 -0.6197504833
O   O24       1.0  0.27970  0.46790  0.72470  1.0000 -0.5610299877
O   O25       1.0  0.04340  0.54800  0.23380  1.0000 -0.6197504833
O   O26       1.0  0.22030  0.53210  0.22470  1.0000 -0.5610299877
O   O27       1.0  0.45660  0.04800  0.26620  1.0000 -0.6197504833
O   O28       1.0  0.27970  0.03210  0.27530  1.0000 -0.5610299877
O   O29       1.0  0.04340  0.95200  0.76620  1.0000 -0.6197504833
O   O30       1.0  0.22030  0.96790  0.77530  1.0000 -0.5610299877
O   O31       1.0  0.54340  0.54800  0.26620  1.0000 -0.6197504833
O   O32       1.0  0.72030  0.53210  0.27530  1.0000 -0.5610299877
