# DDEC6 charges by PACMAN v1.1 (https://github.com/mtap-research/PACMAN-charge/)
data_2000[Ag][srs]3[ION]2
_chemical_formula_sum              "Ag4 P4 H24 C32 N16 F24"
_cell_length_a       12.828
_cell_length_b       12.828
_cell_length_c       11.02
_cell_angle_alpha    90
_cell_angle_beta     90
_cell_angle_gamma    90

_symmetry_space_group_name_H-M    "P 1"
_symmetry_Int_Tables_number       1

loop_
  _symmetry_equiv_pos_as_xyz
  'x, y, z'

loop_
  _atom_site_type_symbol
  _atom_site_label
  _atom_site_symmetry_multiplicity
  _atom_site_fract_x
  _atom_site_fract_y
  _atom_site_fract_z
  _atom_site_occupancy
  _atom_site_charge
Ag  Ag1       1.0  0.84320  0.84320  0.00000  1.0000 0.3322715795
Ag  Ag2       1.0  0.15680  0.15680  0.50000  1.0000 0.3322715795
Ag  Ag3       1.0  0.34320  0.65680  0.75000  1.0000 0.3322715795
Ag  Ag4       1.0  0.65680  0.34320  0.25000  1.0000 0.3322715795
P   P1        1.0  0.11566  0.88434  0.25000  1.0000 1.4681865013
P   P2        1.0  0.88434  0.11566  0.75000  1.0000 1.4613320863
P   P3        1.0  0.61566  0.61566  0.50000  1.0000 1.4613320863
P   P4        1.0  0.38434  0.38434  0.00000  1.0000 1.4613320863
H   H1        1.0  0.60480  0.51640  0.05580  1.0000 0.1281154732
H   H2        1.0  0.39520  0.48360  0.55580  1.0000 0.1281154732
H   H3        1.0  0.01640  0.89520  0.80580  1.0000 0.1281154732
H   H4        1.0  0.98360  0.10480  0.30580  1.0000 0.1281154732
H   H5        1.0  0.10480  0.98360  0.69420  1.0000 0.1281154732
H   H6        1.0  0.89520  0.01640  0.19420  1.0000 0.1281154732
H   H7        1.0  0.51640  0.60480  0.94420  1.0000 0.1281154732
H   H8        1.0  0.48360  0.39520  0.44420  1.0000 0.1281154732
H   H9        1.0  0.83960  0.50510  0.28430  1.0000 0.117271304
H   H10       1.0  0.16040  0.49490  0.78430  1.0000 0.117271304
H   H11       1.0  0.00510  0.66040  0.03430  1.0000 0.117271304
H   H12       1.0  0.99490  0.33960  0.53430  1.0000 0.117271304
H   H13       1.0  0.33960  0.99490  0.46570  1.0000 0.117271304
H   H14       1.0  0.66040  0.00510  0.96570  1.0000 0.117271304
H   H15       1.0  0.50510  0.83960  0.71570  1.0000 0.117271304
H   H16       1.0  0.49490  0.16040  0.21570  1.0000 0.117271304
H   H17       1.0  0.89390  0.66720  0.21910  1.0000 0.1372403873
H   H18       1.0  0.10610  0.33280  0.71910  1.0000 0.1372403873
H   H19       1.0  0.16720  0.60610  0.96910  1.0000 0.1372403873
H   H20       1.0  0.83280  0.39390  0.46910  1.0000 0.1372403873
H   H21       1.0  0.39390  0.83280  0.53090  1.0000 0.1372403873
H   H22       1.0  0.60610  0.16720  0.03090  1.0000 0.1372403873
H   H23       1.0  0.66720  0.89390  0.78090  1.0000 0.1372403873
H   H24       1.0  0.33280  0.10610  0.28090  1.0000 0.1372403873
C   C1        1.0  0.69916  0.64283  0.04980  1.0000 0.1517220026
C   C2        1.0  0.30084  0.35717  0.54980  1.0000 0.1517220026
C   C3        1.0  0.14283  0.80084  0.79980  1.0000 0.1517220026
C   C4        1.0  0.85717  0.19916  0.29980  1.0000 0.1517220026
C   C5        1.0  0.19916  0.85717  0.70020  1.0000 0.1517220026
C   C6        1.0  0.80084  0.14283  0.20020  1.0000 0.1517220026
C   C7        1.0  0.64283  0.69916  0.95020  1.0000 0.1517220026
C   C8        1.0  0.35717  0.30084  0.45020  1.0000 0.1517220026
C   C9        1.0  0.66530  0.54677  0.09070  1.0000 0.0185126095
C   C10       1.0  0.33470  0.45323  0.59070  1.0000 0.0185126095
C   C11       1.0  0.04677  0.83470  0.84070  1.0000 0.0185126095
C   C12       1.0  0.95323  0.16530  0.34070  1.0000 0.0185126095
C   C13       1.0  0.16530  0.95323  0.65930  1.0000 0.0185126095
C   C14       1.0  0.83470  0.04677  0.15930  1.0000 0.0185126095
C   C15       1.0  0.54677  0.66530  0.90930  1.0000 0.0185126095
C   C16       1.0  0.45323  0.33470  0.40930  1.0000 0.0185126095
C   C17       1.0  0.80068  0.54020  0.22340  1.0000 0.0411731241
C   C18       1.0  0.19932  0.45980  0.72340  1.0000 0.0411731241
C   C19       1.0  0.04020  0.69932  0.97340  1.0000 0.0411731241
C   C20       1.0  0.95980  0.30068  0.47340  1.0000 0.0411731241
C   C21       1.0  0.30068  0.95980  0.52660  1.0000 0.0411731241
C   C22       1.0  0.69932  0.04020  0.02660  1.0000 0.0411731241
C   C23       1.0  0.54020  0.80068  0.77660  1.0000 0.0411731241
C   C24       1.0  0.45980  0.19932  0.27660  1.0000 0.0411731241
C   C25       1.0  0.83370  0.63691  0.18350  1.0000 0.0490116904
C   C26       1.0  0.16630  0.36309  0.68350  1.0000 0.0490116904
C   C27       1.0  0.13691  0.66630  0.93350  1.0000 0.0490116904
C   C28       1.0  0.86309  0.33370  0.43350  1.0000 0.0490116904
C   C29       1.0  0.33370  0.86309  0.56650  1.0000 0.0490116904
C   C30       1.0  0.66630  0.13691  0.06650  1.0000 0.0490116904
C   C31       1.0  0.63691  0.83370  0.81650  1.0000 0.0490116904
C   C32       1.0  0.36309  0.16630  0.31650  1.0000 0.0490116904
N   N1        1.0  0.78360  0.68877  0.09686  1.0000 -0.1869177354
N   N2        1.0  0.21640  0.31123  0.59686  1.0000 -0.1869177354
N   N3        1.0  0.18877  0.71640  0.84686  1.0000 -0.1869177354
N   N4        1.0  0.81123  0.28360  0.34686  1.0000 -0.1869177354
N   N5        1.0  0.28360  0.81123  0.65314  1.0000 -0.1869177354
N   N6        1.0  0.71640  0.18877  0.15314  1.0000 -0.1869177354
N   N7        1.0  0.68877  0.78360  0.90314  1.0000 -0.1869177354
N   N8        1.0  0.31123  0.21640  0.40314  1.0000 -0.1869177354
N   N9        1.0  0.71631  0.49553  0.17870  1.0000 -0.1065881114
N   N10       1.0  0.28369  0.50447  0.67870  1.0000 -0.1065881114
N   N11       1.0  0.99553  0.78369  0.92870  1.0000 -0.1065881114
N   N12       1.0  0.00447  0.21631  0.42870  1.0000 -0.1065881114
N   N13       1.0  0.21631  0.00447  0.57130  1.0000 -0.1065881114
N   N14       1.0  0.78369  0.99553  0.07130  1.0000 -0.1065881114
N   N15       1.0  0.49553  0.71631  0.82130  1.0000 -0.1065881114
N   N16       1.0  0.50447  0.28369  0.32130  1.0000 -0.1065881114
F   F1        1.0  0.16651  0.81348  0.35170  1.0000 -0.3874050827
F   F2        1.0  0.18652  0.83349  0.14830  1.0000 -0.3874050827
F   F3        1.0  0.20150  0.96970  0.27180  1.0000 -0.429434872
F   F4        1.0  0.03030  0.79850  0.22820  1.0000 -0.4368312919
F   F5        1.0  0.04520  0.93567  0.35123  1.0000 -0.429434872
F   F6        1.0  0.06433  0.95480  0.14877  1.0000 -0.429434872
F   F7        1.0  0.83349  0.18652  0.85170  1.0000 -0.3874050827
F   F8        1.0  0.81348  0.16651  0.64830  1.0000 -0.3874050827
F   F9        1.0  0.79850  0.03030  0.77180  1.0000 -0.429434872
F   F10       1.0  0.96970  0.20150  0.72820  1.0000 -0.429434872
F   F11       1.0  0.95480  0.06433  0.85123  1.0000 -0.429434872
F   F12       1.0  0.93567  0.04520  0.64877  1.0000 -0.429434872
F   F13       1.0  0.68652  0.66651  0.60170  1.0000 -0.3874050827
F   F14       1.0  0.66651  0.68652  0.39830  1.0000 -0.3874050827
F   F15       1.0  0.53030  0.70150  0.52180  1.0000 -0.429434872
F   F16       1.0  0.70150  0.53030  0.47820  1.0000 -0.429434872
F   F17       1.0  0.56433  0.54520  0.60123  1.0000 -0.429434872
F   F18       1.0  0.54520  0.56433  0.39877  1.0000 -0.429434872
F   F19       1.0  0.31348  0.33349  0.10170  1.0000 -0.3874050827
F   F20       1.0  0.33349  0.31348  0.89830  1.0000 -0.3874050827
F   F21       1.0  0.46970  0.29850  0.02180  1.0000 -0.429434872
F   F22       1.0  0.29850  0.46970  0.97820  1.0000 -0.429434872
F   F23       1.0  0.43567  0.45480  0.10123  1.0000 -0.429434872
F   F24       1.0  0.45480  0.43567  0.89877  1.0000 -0.429434872
