# DDEC6 charges by PACMAN v1.1 (https://github.com/mtap-research/PACMAN-charge/)
data_2000[Co][nan]3[ION]1
_chemical_formula_sum              "Co24 P32 H76 C16 N12 O128"
_cell_length_a       15.9195
_cell_length_b       8.3596
_cell_length_c       31.95
_cell_angle_alpha    90
_cell_angle_beta     96.645
_cell_angle_gamma    90

_symmetry_space_group_name_H-M    "P 1"
_symmetry_Int_Tables_number       1

loop_
  _symmetry_equiv_pos_as_xyz
  'x, y, z'

loop_
  _atom_site_type_symbol
  _atom_site_label
  _atom_site_symmetry_multiplicity
  _atom_site_fract_x
  _atom_site_fract_y
  _atom_site_fract_z
  _atom_site_occupancy
  _atom_site_charge
Co  Co1       1.0  0.94054  0.28094  0.87177  1.0000 1.2637959248
Co  Co2       1.0  0.44054  0.21906  0.87177  1.0000 1.2708828773
Co  Co3       1.0  0.05946  0.71906  0.12823  1.0000 1.2708828773
Co  Co4       1.0  0.55946  0.78094  0.12823  1.0000 1.2708828773
Co  Co5       1.0  0.08955  0.79193  0.62837  1.0000 1.2144347356
Co  Co6       1.0  0.58955  0.70807  0.62837  1.0000 1.2144347356
Co  Co7       1.0  0.91045  0.20807  0.37163  1.0000 1.2186953153
Co  Co8       1.0  0.41045  0.29193  0.37163  1.0000 1.2144347356
Co  Co9       1.0  0.89116  0.49495  0.75050  1.0000 1.3054296201
Co  Co10      1.0  0.39116  0.00505  0.75050  1.0000 1.3054296201
Co  Co11      1.0  0.10884  0.50505  0.24950  1.0000 1.3054296201
Co  Co12      1.0  0.60884  0.99495  0.24950  1.0000 1.3054296201
Co  Co13      1.0  0.63328  0.51374  0.75353  1.0000 1.24242007
Co  Co14      1.0  0.13328  0.98626  0.75353  1.0000 1.24242007
Co  Co15      1.0  0.36672  0.48626  0.24647  1.0000 1.24242007
Co  Co16      1.0  0.86672  0.01374  0.24647  1.0000 1.2465829378
Co  Co17      1.0  0.01146  0.73808  0.49226  1.0000 1.1486057764
Co  Co18      1.0  0.51146  0.76192  0.49226  1.0000 1.1486057764
Co  Co19      1.0  0.98854  0.26192  0.50774  1.0000 1.1486057764
Co  Co20      1.0  0.48854  0.23808  0.50774  1.0000 1.1486057764
Co  Co21      1.0  0.98640  0.24121  0.00636  1.0000 1.2186953153
Co  Co22      1.0  0.48640  0.25879  0.00636  1.0000 1.2186953153
Co  Co23      1.0  0.01360  0.75879  0.99364  1.0000 1.2261489159
Co  Co24      1.0  0.51360  0.74121  0.99364  1.0000 1.2261489159
P   P1        1.0  0.79455  0.53200  0.83067  1.0000 1.3812337643
P   P2        1.0  0.29455  0.96800  0.83067  1.0000 1.3812337643
P   P3        1.0  0.20545  0.46800  0.16933  1.0000 1.3812337643
P   P4        1.0  0.70545  0.03200  0.16933  1.0000 1.3812337643
P   P5        1.0  0.00973  0.20710  0.78096  1.0000 1.4870305783
P   P6        1.0  0.50973  0.29290  0.78096  1.0000 1.4803748852
P   P7        1.0  0.99027  0.79290  0.21904  1.0000 1.4803748852
P   P8        1.0  0.49027  0.70710  0.21904  1.0000 1.4803748852
P   P9        1.0  0.89025  0.01730  0.93620  1.0000 1.3665644652
P   P10       1.0  0.39025  0.48270  0.93620  1.0000 1.3665644652
P   P11       1.0  0.10975  0.98270  0.06380  1.0000 1.3665644652
P   P12       1.0  0.60975  0.51730  0.06380  1.0000 1.3665644652
P   P13       1.0  0.05843  0.65510  0.71830  1.0000 1.5750480419
P   P14       1.0  0.55843  0.84490  0.71830  1.0000 1.5728779958
P   P15       1.0  0.94157  0.34490  0.28170  1.0000 1.5728779958
P   P16       1.0  0.44157  0.15510  0.28170  1.0000 1.5728779958
P   P17       1.0  0.94004  0.96290  0.56479  1.0000 1.5167271471
P   P18       1.0  0.44004  0.53710  0.56479  1.0000 1.5167271471
P   P19       1.0  0.05996  0.03710  0.43521  1.0000 1.5167271471
P   P20       1.0  0.55996  0.46290  0.43521  1.0000 1.5167271471
P   P21       1.0  0.08065  0.44520  0.94364  1.0000 1.3606913215
P   P22       1.0  0.58065  0.05480  0.94364  1.0000 1.3606913215
P   P23       1.0  0.91935  0.55480  0.05636  1.0000 1.3606913215
P   P24       1.0  0.41935  0.94520  0.05636  1.0000 1.3606913215
P   P25       1.0  0.12888  0.51900  0.55725  1.0000 1.5307259685
P   P26       1.0  0.62888  0.98100  0.55725  1.0000 1.5307259685
P   P27       1.0  0.87112  0.48100  0.44275  1.0000 1.5307259685
P   P28       1.0  0.37112  0.01900  0.44275  1.0000 1.5307259685
P   P29       1.0  0.72315  0.47010  0.67450  1.0000 1.5167271471
P   P30       1.0  0.22315  0.02990  0.67450  1.0000 1.5167271471
P   P31       1.0  0.27685  0.52990  0.32550  1.0000 1.5167271471
P   P32       1.0  0.77685  0.97010  0.32550  1.0000 1.5167271471
H   H1        1.0  0.76450  0.99380  0.93190  1.0000 0.4139932109
H   H2        1.0  0.26450  0.50620  0.93190  1.0000 0.4139932109
H   H3        1.0  0.23550  0.00620  0.06810  1.0000 0.4139932109
H   H4        1.0  0.73550  0.49380  0.06810  1.0000 0.4139932109
H   H5        1.0  0.13520  0.49380  0.69610  1.0000 0.4164608544
H   H6        1.0  0.63520  0.00620  0.69610  1.0000 0.4164608544
H   H7        1.0  0.86480  0.50620  0.30390  1.0000 0.4164608544
H   H8        1.0  0.36480  0.99380  0.30390  1.0000 0.4164608544
H   H9        1.0  0.81910  0.93510  0.57460  1.0000 0.4139932109
H   H10       1.0  0.31910  0.56490  0.57460  1.0000 0.4139932109
H   H11       1.0  0.18090  0.06490  0.42540  1.0000 0.4139932109
H   H12       1.0  0.68090  0.43510  0.42540  1.0000 0.4139932109
H   H13       1.0  0.17480  0.20740  0.50250  1.0000 0.3090878651
H   H14       1.0  0.25840  0.15300  0.49480  1.0000 0.3090878651
H   H15       1.0  0.24900  0.25890  0.53000  1.0000 0.3090878651
H   H16       1.0  0.35330  0.19800  0.57600  1.0000 0.3035976714
H   H17       1.0  0.30480  0.14540  0.60950  1.0000 0.3283497518
H   H18       1.0  0.57200  0.30160  0.65450  1.0000 0.3035976714
H   H19       1.0  0.55530  0.24100  0.61170  1.0000 0.3035976714
H   H20       1.0  0.57900  0.13140  0.64640  1.0000 0.2844085322
H   H21       1.0  0.19080  0.94760  0.52590  1.0000 0.1484604737
H   H22       1.0  0.18060  0.06190  0.56390  1.0000 0.1484604737
H   H23       1.0  0.29730  0.88610  0.58080  1.0000 0.1613916358
H   H24       1.0  0.34060  0.95580  0.54290  1.0000 0.1484604737
H   H25       1.0  0.46200  0.02310  0.59860  1.0000 0.1484604737
H   H26       1.0  0.40990  0.96960  0.63510  1.0000 0.1613916358
H   H27       1.0  0.42830  0.29600  0.63640  1.0000 0.143187908
H   H28       1.0  0.45390  0.17740  0.67390  1.0000 0.1484604737
H   H29       1.0  0.67480  0.29260  0.50250  1.0000 0.3090878651
H   H30       1.0  0.75840  0.34700  0.49480  1.0000 0.3090878651
H   H31       1.0  0.74900  0.24110  0.53000  1.0000 0.3090878651
H   H32       1.0  0.85330  0.30200  0.57600  1.0000 0.3035976714
H   H33       1.0  0.80480  0.35460  0.60950  1.0000 0.3283497518
H   H34       1.0  0.07200  0.19840  0.65450  1.0000 0.3035976714
H   H35       1.0  0.05530  0.25900  0.61170  1.0000 0.3035976714
H   H36       1.0  0.07900  0.36860  0.64640  1.0000 0.2844085322
H   H37       1.0  0.69080  0.55240  0.52590  1.0000 0.1484604737
H   H38       1.0  0.68060  0.43810  0.56390  1.0000 0.1484604737
H   H39       1.0  0.79730  0.61390  0.58080  1.0000 0.1613916358
H   H40       1.0  0.84060  0.54420  0.54290  1.0000 0.1484604737
H   H41       1.0  0.96200  0.47690  0.59860  1.0000 0.1484604737
H   H42       1.0  0.90990  0.53040  0.63510  1.0000 0.1613916358
H   H43       1.0  0.92830  0.20400  0.63640  1.0000 0.143187908
H   H44       1.0  0.95390  0.32260  0.67390  1.0000 0.1484604737
H   H45       1.0  0.82520  0.79260  0.49750  1.0000 0.3090878651
H   H46       1.0  0.74160  0.84700  0.50520  1.0000 0.3090878651
H   H47       1.0  0.75100  0.74110  0.47000  1.0000 0.3090878651
H   H48       1.0  0.64670  0.80200  0.42400  1.0000 0.3035976714
H   H49       1.0  0.69520  0.85460  0.39050  1.0000 0.3283497518
H   H50       1.0  0.42800  0.69840  0.34550  1.0000 0.3035976714
H   H51       1.0  0.44470  0.75900  0.38830  1.0000 0.3035976714
H   H52       1.0  0.42100  0.86860  0.35360  1.0000 0.2855605906
H   H53       1.0  0.80920  0.05240  0.47410  1.0000 0.1484604737
H   H54       1.0  0.81940  0.93810  0.43610  1.0000 0.1484604737
H   H55       1.0  0.70270  0.11390  0.41920  1.0000 0.1613916358
H   H56       1.0  0.65940  0.04420  0.45710  1.0000 0.1484604737
H   H57       1.0  0.53800  0.97690  0.40140  1.0000 0.1484604737
H   H58       1.0  0.59010  0.03040  0.36490  1.0000 0.1613916358
H   H59       1.0  0.57170  0.70400  0.36360  1.0000 0.143187908
H   H60       1.0  0.54610  0.82260  0.32610  1.0000 0.1484604737
H   H61       1.0  0.32520  0.70740  0.49750  1.0000 0.3090878651
H   H62       1.0  0.24160  0.65300  0.50520  1.0000 0.3090878651
H   H63       1.0  0.25100  0.75890  0.47000  1.0000 0.3090878651
H   H64       1.0  0.14670  0.69800  0.42400  1.0000 0.3035976714
H   H65       1.0  0.19520  0.64540  0.39050  1.0000 0.3283497518
H   H66       1.0  0.92800  0.80160  0.34550  1.0000 0.3035976714
H   H67       1.0  0.94470  0.74100  0.38830  1.0000 0.3035976714
H   H68       1.0  0.92100  0.63140  0.35360  1.0000 0.2844085322
H   H69       1.0  0.30920  0.44760  0.47410  1.0000 0.1484604737
H   H70       1.0  0.31940  0.56190  0.43610  1.0000 0.1484604737
H   H71       1.0  0.20270  0.38610  0.41920  1.0000 0.1613916358
H   H72       1.0  0.15940  0.45580  0.45710  1.0000 0.1484604737
H   H73       1.0  0.03800  0.52310  0.40140  1.0000 0.1484604737
H   H74       1.0  0.09010  0.46960  0.36490  1.0000 0.1613916358
H   H75       1.0  0.07170  0.79600  0.36360  1.0000 0.143187908
H   H76       1.0  0.04610  0.67740  0.32610  1.0000 0.1484604737
C   C1        1.0  0.21700  0.03490  0.54260  1.0000 -0.0207885547
C   C2        1.0  0.30370  0.98140  0.56410  1.0000 -0.0787226041
C   C3        1.0  0.42180  0.05870  0.61730  1.0000 -0.0787226041
C   C4        1.0  0.45930  0.19870  0.64450  1.0000 -0.0207885547
C   C5        1.0  0.71700  0.46510  0.54260  1.0000 -0.0207885547
C   C6        1.0  0.80370  0.51860  0.56410  1.0000 -0.0787226041
C   C7        1.0  0.92180  0.44130  0.61730  1.0000 -0.0787226041
C   C8        1.0  0.95930  0.30130  0.64450  1.0000 -0.0207885547
C   C9        1.0  0.78300  0.96510  0.45740  1.0000 -0.0207885547
C   C10       1.0  0.69630  0.01860  0.43590  1.0000 -0.0787226041
C   C11       1.0  0.57820  0.94130  0.38270  1.0000 -0.0787226041
C   C12       1.0  0.54070  0.80130  0.35550  1.0000 -0.0207885547
C   C13       1.0  0.28300  0.53490  0.45740  1.0000 -0.0207885547
C   C14       1.0  0.19630  0.48140  0.43590  1.0000 -0.0787226041
C   C15       1.0  0.07820  0.55870  0.38270  1.0000 -0.0787226041
C   C16       1.0  0.04070  0.69870  0.35550  1.0000 -0.0207885547
N   N1        1.0  0.22570  0.17830  0.51460  1.0000 -0.3823070326
N   N2        1.0  0.34200  0.11370  0.59200  1.0000 -0.1645395631
N   N3        1.0  0.55070  0.22040  0.63870  1.0000 -0.3680264676
N   N4        1.0  0.72570  0.32170  0.51460  1.0000 -0.3823070326
N   N5        1.0  0.84200  0.38630  0.59200  1.0000 -0.1645395631
N   N6        1.0  0.05070  0.27960  0.63870  1.0000 -0.3680264676
N   N7        1.0  0.77430  0.82170  0.48540  1.0000 -0.3823070326
N   N8        1.0  0.65800  0.88630  0.40800  1.0000 -0.1645395631
N   N9        1.0  0.44930  0.77960  0.36130  1.0000 -0.3680264676
N   N10       1.0  0.27430  0.67830  0.48540  1.0000 -0.3823070326
N   N11       1.0  0.15800  0.61370  0.40800  1.0000 -0.1645395631
N   N12       1.0  0.94930  0.72040  0.36130  1.0000 -0.3680264676
O   O1        1.0  0.01190  0.23090  0.82860  1.0000 -0.7298660153
O   O2        1.0  0.51190  0.26910  0.82860  1.0000 -0.7298660153
O   O3        1.0  0.98810  0.76910  0.17140  1.0000 -0.7298660153
O   O4        1.0  0.48810  0.73090  0.17140  1.0000 -0.7298660153
O   O5        1.0  0.83140  0.37570  0.85110  1.0000 -0.7010491415
O   O6        1.0  0.33140  0.12430  0.85110  1.0000 -0.7010491415
O   O7        1.0  0.16860  0.62430  0.14890  1.0000 -0.7010491415
O   O8        1.0  0.66860  0.87570  0.14890  1.0000 -0.7010491415
O   O9        1.0  0.99750  0.42280  0.91461  1.0000 -0.7706541443
O   O10       1.0  0.49750  0.07720  0.91461  1.0000 -0.7706541443
O   O11       1.0  0.00250  0.57720  0.08539  1.0000 -0.7706541443
O   O12       1.0  0.50250  0.92280  0.08539  1.0000 -0.7706541443
O   O13       1.0  0.89600  0.07100  0.89080  1.0000 -0.6759769046
O   O14       1.0  0.39600  0.42900  0.89080  1.0000 -0.6759769046
O   O15       1.0  0.10400  0.92900  0.10920  1.0000 -0.6759769046
O   O16       1.0  0.60400  0.57100  0.10920  1.0000 -0.6759769046
O   O17       1.0  0.02070  0.95270  0.59480  1.0000 -0.8002322702
O   O18       1.0  0.52070  0.54730  0.59480  1.0000 -0.8002322702
O   O19       1.0  0.97930  0.04730  0.40520  1.0000 -0.7901043733
O   O20       1.0  0.47930  0.45270  0.40520  1.0000 -0.8002322702
O   O21       1.0  0.02790  0.72990  0.67552  1.0000 -0.7901043733
O   O22       1.0  0.52790  0.77010  0.67552  1.0000 -0.7901043733
O   O23       1.0  0.97210  0.27010  0.32448  1.0000 -0.7901043733
O   O24       1.0  0.47210  0.22990  0.32448  1.0000 -0.7901043733
O   O25       1.0  0.11470  0.58860  0.60004  1.0000 -0.8195707971
O   O26       1.0  0.61470  0.91140  0.60004  1.0000 -0.8195707971
O   O27       1.0  0.88530  0.41140  0.39996  1.0000 -0.8195707971
O   O28       1.0  0.38530  0.08860  0.39996  1.0000 -0.8195707971
O   O29       1.0  0.70190  0.61760  0.64670  1.0000 -0.8002322702
O   O30       1.0  0.20190  0.88240  0.64670  1.0000 -0.8002322702
O   O31       1.0  0.29810  0.38240  0.35330  1.0000 -0.8002322702
O   O32       1.0  0.79810  0.11760  0.35330  1.0000 -0.8002322702
O   O33       1.0  0.80110  0.50860  0.70480  1.0000 -0.7901043733
O   O34       1.0  0.30110  0.99140  0.70480  1.0000 -0.7901043733
O   O35       1.0  0.19890  0.49140  0.29520  1.0000 -0.7901043733
O   O36       1.0  0.69890  0.00860  0.29520  1.0000 -0.7901043733
O   O37       1.0  0.98670  0.63730  0.74520  1.0000 -0.711397988
O   O38       1.0  0.48670  0.86270  0.74520  1.0000 -0.711397988
O   O39       1.0  0.01330  0.36270  0.25480  1.0000 -0.711397988
O   O40       1.0  0.51330  0.13730  0.25480  1.0000 -0.711397988
O   O41       1.0  0.85600  0.60150  0.80097  1.0000 -0.711397988
O   O42       1.0  0.35600  0.89850  0.80097  1.0000 -0.711397988
O   O43       1.0  0.14400  0.39850  0.19903  1.0000 -0.711397988
O   O44       1.0  0.64400  0.10150  0.19903  1.0000 -0.711397988
O   O45       1.0  0.92920  0.27430  0.75640  1.0000 -0.7901043733
O   O46       1.0  0.42920  0.22570  0.75640  1.0000 -0.7834309413
O   O47       1.0  0.07080  0.72570  0.24360  1.0000 -0.7834309413
O   O48       1.0  0.57080  0.77430  0.24360  1.0000 -0.7834309413
O   O49       1.0  0.13170  0.75150  0.74200  1.0000 -0.7390411967
O   O50       1.0  0.63170  0.74850  0.74200  1.0000 -0.7390411967
O   O51       1.0  0.86830  0.24850  0.25800  1.0000 -0.7390411967
O   O52       1.0  0.36830  0.25150  0.25800  1.0000 -0.7390411967
O   O53       1.0  0.64870  0.42140  0.69800  1.0000 -0.7901043733
O   O54       1.0  0.14870  0.07860  0.69800  1.0000 -0.7901043733
O   O55       1.0  0.35130  0.57860  0.30200  1.0000 -0.7901043733
O   O56       1.0  0.85130  0.92140  0.30200  1.0000 -0.7901043733
O   O57       1.0  0.71060  0.48930  0.80550  1.0000 -0.7207227
O   O58       1.0  0.21060  0.01070  0.80550  1.0000 -0.7207227
O   O59       1.0  0.28940  0.51070  0.19450  1.0000 -0.7207227
O   O60       1.0  0.78940  0.98930  0.19450  1.0000 -0.7207227
O   O61       1.0  0.01810  0.02750  0.77100  1.0000 -0.7010491415
O   O62       1.0  0.51810  0.47250  0.77100  1.0000 -0.7010491415
O   O63       1.0  0.98190  0.97250  0.22900  1.0000 -0.7010491415
O   O64       1.0  0.48190  0.52750  0.22900  1.0000 -0.7010491415
O   O65       1.0  0.11410  0.64510  0.52190  1.0000 -0.8334690803
O   O66       1.0  0.61410  0.85490  0.52190  1.0000 -0.8334690803
O   O67       1.0  0.88590  0.35490  0.47810  1.0000 -0.8334690803
O   O68       1.0  0.38590  0.14510  0.47810  1.0000 -0.8334690803
O   O69       1.0  0.93620  0.83600  0.52960  1.0000 -0.8195707971
O   O70       1.0  0.43620  0.66400  0.52960  1.0000 -0.8195707971
O   O71       1.0  0.06380  0.16400  0.47040  1.0000 -0.8195707971
O   O72       1.0  0.56380  0.33600  0.47040  1.0000 -0.8195707971
O   O73       1.0  0.92770  0.13140  0.54620  1.0000 -0.7901043733
O   O74       1.0  0.42770  0.36860  0.54620  1.0000 -0.7901043733
O   O75       1.0  0.07230  0.86860  0.45380  1.0000 -0.7901043733
O   O76       1.0  0.57230  0.63140  0.45380  1.0000 -0.7901043733
O   O77       1.0  0.06900  0.37530  0.54830  1.0000 -0.8195707971
O   O78       1.0  0.56900  0.12470  0.54830  1.0000 -0.8195707971
O   O79       1.0  0.93100  0.62470  0.45170  1.0000 -0.8195707971
O   O80       1.0  0.43100  0.87530  0.45170  1.0000 -0.8195707971
O   O81       1.0  0.08290  0.32680  0.98100  1.0000 -0.7390411967
O   O82       1.0  0.58290  0.17320  0.98100  1.0000 -0.7463417822
O   O83       1.0  0.91710  0.67320  0.01900  1.0000 -0.7390411967
O   O84       1.0  0.41710  0.82680  0.01900  1.0000 -0.7463417822
O   O85       1.0  0.95800  0.89260  0.94890  1.0000 -0.7010491415
O   O86       1.0  0.45800  0.60740  0.94890  1.0000 -0.7010491415
O   O87       1.0  0.04200  0.10740  0.05110  1.0000 -0.7010491415
O   O88       1.0  0.54200  0.39260  0.05110  1.0000 -0.7010491415
O   O89       1.0  0.89480  0.16270  0.96560  1.0000 -0.7207227
O   O90       1.0  0.39480  0.33730  0.96560  1.0000 -0.7207227
O   O91       1.0  0.10520  0.83730  0.03440  1.0000 -0.7207227
O   O92       1.0  0.60520  0.66270  0.03440  1.0000 -0.7207227
O   O93       1.0  0.08300  0.61840  0.96130  1.0000 -0.6697395468
O   O94       1.0  0.58300  0.88160  0.96130  1.0000 -0.6697395468
O   O95       1.0  0.91700  0.38160  0.03870  1.0000 -0.6697395468
O   O96       1.0  0.41700  0.11840  0.03870  1.0000 -0.6697395468
O   O97       1.0  0.78550  0.65760  0.86430  1.0000 -0.5512858951
O   O98       1.0  0.28550  0.84240  0.86430  1.0000 -0.5512858951
O   O99       1.0  0.21450  0.34240  0.13570  1.0000 -0.5512858951
O   O100      1.0  0.71450  0.15760  0.13570  1.0000 -0.5512858951
O   O101      1.0  0.09040  0.28650  0.76750  1.0000 -0.6624448919
O   O102      1.0  0.59040  0.21350  0.76750  1.0000 -0.6624448919
O   O103      1.0  0.90960  0.71350  0.23250  1.0000 -0.6624448919
O   O104      1.0  0.40960  0.78650  0.23250  1.0000 -0.6624448919
O   O105      1.0  0.80330  0.93080  0.93850  1.0000 -0.4863088751
O   O106      1.0  0.30330  0.56920  0.93850  1.0000 -0.4863088751
O   O107      1.0  0.19670  0.06920  0.06150  1.0000 -0.4863088751
O   O108      1.0  0.69670  0.43080  0.06150  1.0000 -0.4863088751
O   O109      1.0  0.09630  0.48490  0.71070  1.0000 -0.5236493522
O   O110      1.0  0.59630  0.01510  0.71070  1.0000 -0.5236493522
O   O111      1.0  0.90370  0.51510  0.28930  1.0000 -0.5236493522
O   O112      1.0  0.40370  0.98490  0.28930  1.0000 -0.5236493522
O   O113      1.0  0.86340  0.93000  0.59050  1.0000 -0.5587348366
O   O114      1.0  0.36340  0.57000  0.59050  1.0000 -0.5587348366
O   O115      1.0  0.13660  0.07000  0.40950  1.0000 -0.5587348366
O   O116      1.0  0.63660  0.43000  0.40950  1.0000 -0.5587348366
O   O117      1.0  0.15790  0.42260  0.92050  1.0000 -0.5587348366
O   O118      1.0  0.65790  0.07740  0.92050  1.0000 -0.5587348366
O   O119      1.0  0.84210  0.57740  0.07950  1.0000 -0.5587348366
O   O120      1.0  0.34210  0.92260  0.07950  1.0000 -0.5587348366
O   O121      1.0  0.22050  0.45910  0.55800  1.0000 -0.7390411967
O   O122      1.0  0.72050  0.04090  0.55800  1.0000 -0.7390411967
O   O123      1.0  0.77950  0.54090  0.44200  1.0000 -0.7390411967
O   O124      1.0  0.27950  0.95910  0.44200  1.0000 -0.7390411967
O   O125      1.0  0.73980  0.32520  0.64600  1.0000 -0.711397988
O   O126      1.0  0.23980  0.17480  0.64600  1.0000 -0.711397988
O   O127      1.0  0.26020  0.67480  0.35400  1.0000 -0.711397988
O   O128      1.0  0.76020  0.82520  0.35400  1.0000 -0.711397988
