# DDEC6 charges by PACMAN v1.1 (https://github.com/mtap-research/PACMAN-charge/)
data_2002[Zn][pts]3[ION]1
_chemical_formula_sum              "Zn2 H20 C20 N4 O16"
_cell_length_a       9.58655
_cell_length_b       9.58655
_cell_length_c       11.072
_cell_angle_alpha    88.8129
_cell_angle_beta     91.1871
_cell_angle_gamma    74.1223

_symmetry_space_group_name_H-M    "P 1"
_symmetry_Int_Tables_number       1

loop_
  _symmetry_equiv_pos_as_xyz
  'x, y, z'

loop_
  _atom_site_type_symbol
  _atom_site_label
  _atom_site_symmetry_multiplicity
  _atom_site_fract_x
  _atom_site_fract_y
  _atom_site_fract_z
  _atom_site_occupancy
  _atom_site_charge
Zn  Zn1       1.0  0.00505  0.00505  0.75000  1.0000 0.9125616697
Zn  Zn2       1.0  0.99495  0.99495  0.25000  1.0000 0.9125616697
H   H1        1.0  0.95000  0.55400  0.78800  1.0000 0.1344081907
H   H2        1.0  0.55400  0.95000  0.71200  1.0000 0.1344081907
H   H3        1.0  0.05000  0.44600  0.21200  1.0000 0.1344081907
H   H4        1.0  0.44600  0.05000  0.28800  1.0000 0.1344081907
H   H5        1.0  0.85600  0.40400  0.48000  1.0000 0.3040184973
H   H6        1.0  0.77900  0.26100  0.45600  1.0000 0.2539057581
H   H7        1.0  0.91900  0.25500  0.45400  1.0000 0.2372969946
H   H8        1.0  0.87800  0.26800  0.58800  1.0000 0.3182873203
H   H9        1.0  0.40400  0.85600  0.02000  1.0000 0.3040184973
H   H10       1.0  0.26100  0.77900  0.04400  1.0000 0.2553778438
H   H11       1.0  0.25500  0.91900  0.04600  1.0000 0.2372969946
H   H12       1.0  0.26800  0.87800  0.91200  1.0000 0.3182873203
H   H13       1.0  0.14400  0.59600  0.52000  1.0000 0.3040184973
H   H14       1.0  0.22100  0.73900  0.54400  1.0000 0.2553778438
H   H15       1.0  0.08100  0.74500  0.54600  1.0000 0.2372969946
H   H16       1.0  0.12200  0.73200  0.41200  1.0000 0.3182873203
H   H17       1.0  0.59600  0.14400  0.98000  1.0000 0.3040184973
H   H18       1.0  0.73900  0.22100  0.95600  1.0000 0.2539057581
H   H19       1.0  0.74500  0.08100  0.95400  1.0000 0.2372969946
H   H20       1.0  0.73200  0.12200  0.08800  1.0000 0.3182873203
C   C1        1.0  0.94798  0.79248  0.89966  1.0000 0.5681762544
C   C2        1.0  0.79248  0.94798  0.60034  1.0000 0.5681762544
C   C3        1.0  0.05202  0.20752  0.10034  1.0000 0.5681762544
C   C4        1.0  0.20752  0.05202  0.39966  1.0000 0.5681762544
C   C5        1.0  0.97862  0.64214  0.95565  1.0000 -0.0200087812
C   C6        1.0  0.64214  0.97862  0.54435  1.0000 -0.0200087812
C   C7        1.0  0.02138  0.35786  0.04435  1.0000 -0.0200087812
C   C8        1.0  0.35786  0.02138  0.45565  1.0000 -0.0200087812
C   C9        1.0  0.97836  0.53086  0.87789  1.0000 -0.1021204369
C   C10       1.0  0.53086  0.97836  0.62211  1.0000 -0.1021204369
C   C11       1.0  0.02164  0.46914  0.12211  1.0000 -0.1021204369
C   C12       1.0  0.46914  0.02164  0.37789  1.0000 -0.1021204369
C   C13       1.0  0.00097  0.61145  0.07962  1.0000 -0.030785233
C   C14       1.0  0.61145  0.00097  0.42038  1.0000 -0.030785233
C   C15       1.0  0.99903  0.38855  0.92038  1.0000 -0.030785233
C   C16       1.0  0.38855  0.99903  0.57962  1.0000 -0.030785233
C   C17       1.0  0.00501  0.72583  0.16921  1.0000 0.5454767196
C   C18       1.0  0.72583  0.00501  0.33079  1.0000 0.5454767196
C   C19       1.0  0.99499  0.27417  0.83079  1.0000 0.5454767196
C   C20       1.0  0.27417  0.99499  0.66921  1.0000 0.5454767196
N   N1        1.0  0.84900  0.30320  0.49800  1.0000 -0.7266422065
N   N2        1.0  0.30320  0.84900  0.00200  1.0000 -0.7266422065
N   N3        1.0  0.15100  0.69680  0.50200  1.0000 -0.7266422065
N   N4        1.0  0.69680  0.15100  0.99800  1.0000 -0.7266422065
O   O1        1.0  0.05416  0.82156  0.84694  1.0000 -0.4997266235
O   O2        1.0  0.82156  0.05416  0.65306  1.0000 -0.4997266235
O   O3        1.0  0.94584  0.17844  0.15306  1.0000 -0.4997266235
O   O4        1.0  0.17844  0.94584  0.34694  1.0000 -0.4997266235
O   O5        1.0  0.82354  0.87406  0.90031  1.0000 -0.4676504509
O   O6        1.0  0.87406  0.82354  0.59969  1.0000 -0.4676504509
O   O7        1.0  0.17646  0.12594  0.09969  1.0000 -0.4676504509
O   O8        1.0  0.12594  0.17646  0.40031  1.0000 -0.4676504509
O   O9        1.0  0.99189  0.70149  0.27795  1.0000 -0.4792329
O   O10       1.0  0.70149  0.99189  0.22205  1.0000 -0.4792329
O   O11       1.0  0.00811  0.29851  0.72205  1.0000 -0.4792329
O   O12       1.0  0.29851  0.00811  0.77795  1.0000 -0.4792329
O   O13       1.0  0.02317  0.84361  0.12755  1.0000 -0.4924199807
O   O14       1.0  0.84361  0.02317  0.37245  1.0000 -0.4924199807
O   O15       1.0  0.97683  0.15639  0.87245  1.0000 -0.4924199807
O   O16       1.0  0.15639  0.97683  0.62755  1.0000 -0.4924199807
