# DDEC6 charges by PACMAN v1.1 (https://github.com/mtap-research/PACMAN-charge/)
data_2003[Ca][dia]3[ION]1
_chemical_formula_sum              "Ca2 H40 C16 Cl4 O16"
_cell_length_a       13.5318
_cell_length_b       12.5719
_cell_length_c       9.6263
_cell_angle_alpha    73.7802
_cell_angle_beta     63.1359
_cell_angle_gamma    43.0839

_symmetry_space_group_name_H-M    "P 1"
_symmetry_Int_Tables_number       1

loop_
  _symmetry_equiv_pos_as_xyz
  'x, y, z'

loop_
  _atom_site_type_symbol
  _atom_site_label
  _atom_site_symmetry_multiplicity
  _atom_site_fract_x
  _atom_site_fract_y
  _atom_site_fract_z
  _atom_site_occupancy
  _atom_site_charge
Ca  Ca1       1.0  0.75000  0.75000  0.75000  1.0000 1.273893257
Ca  Ca2       1.0  0.50000  0.50000  0.50000  1.0000 1.2761576375
H   H1        1.0  0.68880  0.62040  0.45860  1.0000 0.0923664136
H   H2        1.0  0.23220  0.45860  0.62040  1.0000 0.0923664136
H   H3        1.0  0.45860  0.23220  0.68880  1.0000 0.0923664136
H   H4        1.0  0.62040  0.68880  0.23220  1.0000 0.0923664136
H   H5        1.0  0.62960  0.56120  0.01780  1.0000 0.0923664136
H   H6        1.0  0.79140  0.01780  0.56120  1.0000 0.0923664136
H   H7        1.0  0.01780  0.79140  0.62960  1.0000 0.0923664136
H   H8        1.0  0.56120  0.62960  0.79140  1.0000 0.0923664136
H   H9        1.0  0.87360  0.38600  0.56520  1.0000 0.1047206348
H   H10       1.0  0.17520  0.56520  0.38600  1.0000 0.1047206348
H   H11       1.0  0.56520  0.17520  0.87360  1.0000 0.1047206348
H   H12       1.0  0.38600  0.87360  0.17520  1.0000 0.1047206348
H   H13       1.0  0.86400  0.37640  0.07480  1.0000 0.1047206348
H   H14       1.0  0.68480  0.07480  0.37640  1.0000 0.1047206348
H   H15       1.0  0.07480  0.68480  0.86400  1.0000 0.1047206348
H   H16       1.0  0.37640  0.86400  0.68480  1.0000 0.1047206348
H   H17       1.0  0.92640  0.47120  0.46940  1.0000 0.1108036911
H   H18       1.0  0.13300  0.46940  0.47120  1.0000 0.1108036911
H   H19       1.0  0.46940  0.13300  0.92640  1.0000 0.1108036911
H   H20       1.0  0.47120  0.92640  0.13300  1.0000 0.1108036911
H   H21       1.0  0.77880  0.32360  0.11700  1.0000 0.1108036911
H   H22       1.0  0.78060  0.11700  0.32360  1.0000 0.1108036911
H   H23       1.0  0.11700  0.78060  0.77880  1.0000 0.1108036911
H   H24       1.0  0.32360  0.77880  0.78060  1.0000 0.1108036911
H   H25       1.0  0.59920  0.82480  0.53320  1.0000 0.3400522446
H   H26       1.0  0.04280  0.53320  0.82480  1.0000 0.3400522446
H   H27       1.0  0.53320  0.04280  0.59920  1.0000 0.3400522446
H   H28       1.0  0.82480  0.59920  0.04280  1.0000 0.3400522446
H   H29       1.0  0.42520  0.65080  0.20720  1.0000 0.3400522446
H   H30       1.0  0.71680  0.20720  0.65080  1.0000 0.3400522446
H   H31       1.0  0.20720  0.71680  0.42520  1.0000 0.3400522446
H   H32       1.0  0.65080  0.42520  0.71680  1.0000 0.3400522446
H   H33       1.0  0.92120  0.42080  0.72120  1.0000 0.3601284375
H   H34       1.0  0.93680  0.72120  0.42080  1.0000 0.3601284375
H   H35       1.0  0.72120  0.93680  0.92120  1.0000 0.3601284375
H   H36       1.0  0.42080  0.92120  0.93680  1.0000 0.3601284375
H   H37       1.0  0.82920  0.32880  0.31320  1.0000 0.3601284375
H   H38       1.0  0.52880  0.31320  0.32880  1.0000 0.3601284375
H   H39       1.0  0.31320  0.52880  0.82920  1.0000 0.3601284375
H   H40       1.0  0.32880  0.82920  0.52880  1.0000 0.3601284375
C   C1        1.0  0.68780  0.62080  0.56080  1.0000 0.0923664136
C   C2        1.0  0.13060  0.56080  0.62080  1.0000 0.0923664136
C   C3        1.0  0.56080  0.13060  0.68780  1.0000 0.0923664136
C   C4        1.0  0.62080  0.68780  0.13060  1.0000 0.0923664136
C   C5        1.0  0.62920  0.56220  0.11940  1.0000 0.0923664136
C   C6        1.0  0.68920  0.11940  0.56220  1.0000 0.0923664136
C   C7        1.0  0.11940  0.68920  0.62920  1.0000 0.0923664136
C   C8        1.0  0.56220  0.62920  0.68920  1.0000 0.0923664136
C   C9        1.0  0.84927  0.48047  0.56253  1.0000 -0.060192886
C   C10       1.0  0.10773  0.56253  0.48047  1.0000 -0.060192886
C   C11       1.0  0.56253  0.10773  0.84927  1.0000 -0.060192886
C   C12       1.0  0.48047  0.84927  0.10773  1.0000 -0.060192886
C   C13       1.0  0.76953  0.40073  0.14227  1.0000 -0.060192886
C   C14       1.0  0.68747  0.14227  0.40073  1.0000 -0.060192886
C   C15       1.0  0.14227  0.68747  0.76953  1.0000 -0.060192886
C   C16       1.0  0.40073  0.76953  0.68747  1.0000 -0.060192886
Cl  Cl1       1.0  0.81129  0.18871  0.81129  1.0000 -0.7392018983
Cl  Cl2       1.0  0.18871  0.81129  0.18871  1.0000 -0.7392018983
Cl  Cl3       1.0  0.06129  0.43871  0.06129  1.0000 -0.7392018983
Cl  Cl4       1.0  0.43871  0.06129  0.43871  1.0000 -0.7392018983
O   O1        1.0  0.65198  0.75534  0.58446  1.0000 -0.5357784345
O   O2        1.0  0.00822  0.58446  0.75534  1.0000 -0.5357784345
O   O3        1.0  0.58446  0.00822  0.65198  1.0000 -0.5357784345
O   O4        1.0  0.75534  0.65198  0.00822  1.0000 -0.5357784345
O   O5        1.0  0.49466  0.59802  0.24178  1.0000 -0.5357784345
O   O6        1.0  0.66554  0.24178  0.59802  1.0000 -0.53447781
O   O7        1.0  0.24178  0.66554  0.49466  1.0000 -0.5357784345
O   O8        1.0  0.59802  0.49466  0.66554  1.0000 -0.5357784345
O   O9        1.0  0.85103  0.50233  0.69867  1.0000 -0.4537845055
O   O10       1.0  0.94797  0.69867  0.50233  1.0000 -0.4537845055
O   O11       1.0  0.69867  0.94797  0.85103  1.0000 -0.4537845055
O   O12       1.0  0.50233  0.85103  0.94797  1.0000 -0.4537845055
O   O13       1.0  0.74767  0.39897  0.30203  1.0000 -0.4537845055
O   O14       1.0  0.55133  0.30203  0.39897  1.0000 -0.4537845055
O   O15       1.0  0.30203  0.55133  0.74767  1.0000 -0.4537845055
O   O16       1.0  0.39897  0.74767  0.55133  1.0000 -0.4537845055
