# DDEC6 charges by PACMAN v1.1 (https://github.com/mtap-research/PACMAN-charge/)
data_2004[La][lhb]3[ION]1
_chemical_formula_sum              "La2 H64 C80 N16 Cl4 O32"
_cell_length_a       13.1569
_cell_length_b       13.1569
_cell_length_c       23.688
_cell_angle_alpha    82.8979
_cell_angle_beta     97.1021
_cell_angle_gamma    61.8342

_symmetry_space_group_name_H-M    "P 1"
_symmetry_Int_Tables_number       1

loop_
  _symmetry_equiv_pos_as_xyz
  'x, y, z'

loop_
  _atom_site_type_symbol
  _atom_site_label
  _atom_site_symmetry_multiplicity
  _atom_site_fract_x
  _atom_site_fract_y
  _atom_site_fract_z
  _atom_site_occupancy
  _atom_site_charge
La  La1       1.0  0.56309  0.13115  0.75447  1.0000 1.7797348267
La  La2       1.0  0.86885  0.43691  0.25447  1.0000 1.7797348267
H   H1        1.0  0.44400  0.44120  0.71940  1.0000 0.1106634951
H   H2        1.0  0.55880  0.55600  0.21940  1.0000 0.1106634951
H   H3        1.0  0.38960  0.63900  0.70510  1.0000 0.128568564
H   H4        1.0  0.36100  0.61040  0.20510  1.0000 0.128568564
H   H5        1.0  0.73110  0.54550  0.71420  1.0000 0.128568564
H   H6        1.0  0.45450  0.26890  0.21420  1.0000 0.128568564
H   H7        1.0  0.77980  0.34940  0.73200  1.0000 0.128568564
H   H8        1.0  0.65060  0.22020  0.23200  1.0000 0.128568564
H   H9        1.0  0.84780  0.12640  0.68480  1.0000 0.1398911651
H   H10       1.0  0.87360  0.15220  0.18480  1.0000 0.1398911651
H   H11       1.0  0.90670  0.18930  0.60600  1.0000 0.1398911651
H   H12       1.0  0.81070  0.09330  0.10600  1.0000 0.1398911651
H   H13       1.0  0.66130  0.16410  0.49840  1.0000 0.1398911651
H   H14       1.0  0.83590  0.33870  0.99840  1.0000 0.1398911651
H   H15       1.0  0.60290  0.10630  0.57830  1.0000 0.128568564
H   H16       1.0  0.89370  0.39710  0.07830  1.0000 0.128568564
H   H17       1.0  0.18170  0.35750  0.66720  1.0000 0.128568564
H   H18       1.0  0.64250  0.81830  0.16720  1.0000 0.128568564
H   H19       1.0  0.06510  0.42630  0.57430  1.0000 0.1398911651
H   H20       1.0  0.57370  0.93490  0.07430  1.0000 0.1398911651
H   H21       1.0  0.34930  0.37690  0.51020  1.0000 0.1398911651
H   H22       1.0  0.62310  0.65070  0.01020  1.0000 0.1398911651
H   H23       1.0  0.45750  0.32510  0.60320  1.0000 0.128568564
H   H24       1.0  0.67490  0.54250  0.10320  1.0000 0.128568564
H   H25       1.0  0.85710  0.92550  0.75940  1.0000 0.128568564
H   H26       1.0  0.07450  0.14290  0.25940  1.0000 0.128568564
H   H27       1.0  0.04560  0.77220  0.76930  1.0000 0.128568564
H   H28       1.0  0.22780  0.95440  0.26930  1.0000 0.128568564
H   H29       1.0  0.93080  0.54080  0.80300  1.0000 0.1488554916
H   H30       1.0  0.45920  0.06920  0.30300  1.0000 0.1488554916
H   H31       1.0  0.74260  0.69780  0.79060  1.0000 0.128568564
H   H32       1.0  0.30220  0.25740  0.29060  1.0000 0.128568564
H   H33       1.0  0.15020  0.40220  0.34140  1.0000 0.128568564
H   H34       1.0  0.59780  0.84980  0.84140  1.0000 0.128568564
H   H35       1.0  0.25950  0.34050  0.43560  1.0000 0.1398911651
H   H36       1.0  0.65950  0.74050  0.93560  1.0000 0.1398911651
H   H37       1.0  0.96870  0.56450  0.48830  1.0000 0.128568564
H   H38       1.0  0.43550  0.03130  0.98830  1.0000 0.128568564
H   H39       1.0  0.86300  0.62200  0.39370  1.0000 0.128568564
H   H40       1.0  0.37800  0.13700  0.89370  1.0000 0.128568564
H   H41       1.0  0.03030  0.27690  0.45450  1.0000 0.1232041485
H   H42       1.0  0.72310  0.96970  0.95450  1.0000 0.1232041485
H   H43       1.0  0.97500  0.21980  0.53600  1.0000 0.1398911651
H   H44       1.0  0.78020  0.02500  0.03600  1.0000 0.1398911651
H   H45       1.0  0.70060  0.23580  0.43120  1.0000 0.128568564
H   H46       1.0  0.76420  0.29940  0.93120  1.0000 0.128568564
H   H47       1.0  0.76430  0.28770  0.35140  1.0000 0.128568564
H   H48       1.0  0.71230  0.23570  0.85140  1.0000 0.128568564
H   H49       1.0  0.40740  0.47740  0.83200  1.0000 0.1398911651
H   H50       1.0  0.52260  0.59260  0.33200  1.0000 0.1398911651
H   H51       1.0  0.21710  0.63170  0.81950  1.0000 0.128568564
H   H52       1.0  0.36830  0.78290  0.31950  1.0000 0.128568564
H   H53       1.0  0.09510  0.41450  0.77790  1.0000 0.1398911651
H   H54       1.0  0.58550  0.90490  0.27790  1.0000 0.1398911651
H   H55       1.0  0.28620  0.26480  0.79040  1.0000 0.128568564
H   H56       1.0  0.73520  0.71380  0.29040  1.0000 0.128568564
H   H57       1.0  0.33480  0.99500  0.72440  1.0000 0.1398911651
H   H58       1.0  0.00500  0.66520  0.22440  1.0000 0.1398911651
H   H59       1.0  0.37990  0.79890  0.73600  1.0000 0.1398911651
H   H60       1.0  0.20110  0.62010  0.23600  1.0000 0.1398911651
H   H61       1.0  0.65370  0.72910  0.65710  1.0000 0.128568564
H   H62       1.0  0.27090  0.34630  0.15710  1.0000 0.128568564
H   H63       1.0  0.60320  0.92480  0.64530  1.0000 0.128568564
H   H64       1.0  0.07520  0.39680  0.14530  1.0000 0.128568564
C   C1        1.0  0.50300  0.46360  0.71950  1.0000 -0.0414820685
C   C2        1.0  0.53640  0.49700  0.21950  1.0000 -0.0414820685
C   C3        1.0  0.47030  0.58110  0.71020  1.0000 -0.178691835
C   C4        1.0  0.41890  0.52970  0.21020  1.0000 -0.178691835
C   C5        1.0  0.55540  0.61580  0.70840  1.0000 0.0996367066
C   C6        1.0  0.38420  0.44460  0.20840  1.0000 0.0996367066
C   C7        1.0  0.67050  0.52590  0.71610  1.0000 -0.1703272284
C   C8        1.0  0.47410  0.32950  0.21610  1.0000 -0.1703272284
C   C9        1.0  0.69980  0.40940  0.72640  1.0000 -0.0218815905
C   C10       1.0  0.59060  0.30020  0.22640  1.0000 -0.0218815905
C   C11       1.0  0.80950  0.13470  0.64640  1.0000 -0.0414820685
C   C12       1.0  0.86530  0.19050  0.14640  1.0000 -0.0414820685
C   C13       1.0  0.84490  0.17130  0.59970  1.0000 -0.1489673154
C   C14       1.0  0.82870  0.15510  0.09970  1.0000 -0.1489673154
C   C15       1.0  0.79210  0.18210  0.54360  1.0000 0.0898785688
C   C16       1.0  0.81790  0.20790  0.04360  1.0000 0.0898785688
C   C17       1.0  0.70030  0.15710  0.53640  1.0000 -0.1489673154
C   C18       1.0  0.84290  0.29970  0.03640  1.0000 -0.1489673154
C   C19       1.0  0.66620  0.12240  0.58380  1.0000 -0.0900818118
C   C20       1.0  0.87760  0.33380  0.08380  1.0000 -0.0900818118
C   C21       1.0  0.21500  0.36540  0.63460  1.0000 -0.0315238893
C   C22       1.0  0.63460  0.78500  0.13460  1.0000 -0.0315238893
C   C23       1.0  0.14630  0.40350  0.57950  1.0000 -0.1590319597
C   C24       1.0  0.59650  0.85370  0.07950  1.0000 -0.1590319597
C   C25       1.0  0.19510  0.40870  0.53210  1.0000 0.0898785688
C   C26       1.0  0.59130  0.80490  0.03210  1.0000 0.0898785688
C   C27       1.0  0.31260  0.37660  0.54230  1.0000 -0.1590319597
C   C28       1.0  0.62340  0.68740  0.04230  1.0000 -0.1590319597
C   C29       1.0  0.37720  0.34420  0.59720  1.0000 -0.0712876217
C   C30       1.0  0.65580  0.62280  0.09720  1.0000 -0.0712876217
C   C31       1.0  0.87290  0.84650  0.76860  1.0000 -0.0565469012
C   C32       1.0  0.15350  0.12710  0.26860  1.0000 -0.0565469012
C   C33       1.0  0.98420  0.75520  0.77430  1.0000 -0.178691835
C   C34       1.0  0.24480  0.01580  0.27430  1.0000 -0.178691835
C   C35       1.0  0.01100  0.63880  0.78730  1.0000 0.0898785688
C   C36       1.0  0.36120  0.98900  0.28730  1.0000 0.0898785688
C   C37       1.0  0.91730  0.61910  0.79390  1.0000 -0.1590319597
C   C38       1.0  0.38090  0.08270  0.29390  1.0000 -0.1590319597
C   C39       1.0  0.80600  0.71260  0.78730  1.0000 -0.0503227049
C   C40       1.0  0.28740  0.19400  0.28730  1.0000 -0.0503227049
C   C41       1.0  0.11380  0.43520  0.37180  1.0000 -0.0315238893
C   C42       1.0  0.56480  0.88620  0.87180  1.0000 -0.0315238893
C   C43       1.0  0.17840  0.39880  0.42750  1.0000 -0.1590319597
C   C44       1.0  0.60120  0.82160  0.92750  1.0000 -0.1590319597
C   C45       1.0  0.12630  0.44650  0.47220  1.0000 0.0898785688
C   C46       1.0  0.55350  0.87370  0.97220  1.0000 0.0898785688
C   C47       1.0  0.00690  0.53070  0.45850  1.0000 -0.1703272284
C   C48       1.0  0.46930  0.99310  0.95850  1.0000 -0.1703272284
C   C49       1.0  0.94440  0.56500  0.40260  1.0000 -0.0565469012
C   C50       1.0  0.43500  0.05560  0.90260  1.0000 -0.0565469012
C   C51       1.0  0.96410  0.26510  0.45000  1.0000 -0.0712876217
C   C52       1.0  0.73490  0.03590  0.95000  1.0000 -0.0712876217
C   C53       1.0  0.93060  0.23320  0.49840  1.0000 -0.1703272284
C   C54       1.0  0.76680  0.06940  0.99840  1.0000 -0.1703272284
C   C55       1.0  0.82950  0.22030  0.49220  1.0000 0.0898785688
C   C56       1.0  0.77970  0.17050  0.99220  1.0000 0.0898785688
C   C57       1.0  0.77020  0.24180  0.43710  1.0000 -0.1489673154
C   C58       1.0  0.75820  0.22980  0.93710  1.0000 -0.1489673154
C   C59       1.0  0.80810  0.27210  0.38950  1.0000 -0.0315238893
C   C60       1.0  0.72790  0.19190  0.88950  1.0000 -0.0315238893
C   C61       1.0  0.34260  0.46580  0.82020  1.0000 -0.0414820685
C   C62       1.0  0.53420  0.65740  0.32020  1.0000 -0.0414820685
C   C63       1.0  0.23000  0.55720  0.81290  1.0000 -0.178691835
C   C64       1.0  0.44280  0.77000  0.31290  1.0000 -0.178691835
C   C65       1.0  0.13300  0.54120  0.79560  1.0000 0.0898785688
C   C66       1.0  0.45880  0.86700  0.29560  1.0000 0.0898785688
C   C67       1.0  0.15810  0.42950  0.78830  1.0000 -0.1489673154
C   C68       1.0  0.57050  0.84190  0.28830  1.0000 -0.1489673154
C   C69       1.0  0.27090  0.34070  0.79580  1.0000 -0.0503227049
C   C70       1.0  0.65930  0.72910  0.29580  1.0000 -0.0503227049
C   C71       1.0  0.40040  0.93980  0.71120  1.0000 -0.0315238893
C   C72       1.0  0.06020  0.59960  0.21120  1.0000 -0.0315238893
C   C73       1.0  0.42730  0.82350  0.71790  1.0000 -0.1590319597
C   C74       1.0  0.17650  0.57270  0.21790  1.0000 -0.1590319597
C   C75       1.0  0.52210  0.74250  0.69880  1.0000 0.0996367066
C   C76       1.0  0.25750  0.47790  0.19880  1.0000 0.0996367066
C   C77       1.0  0.58830  0.78230  0.67130  1.0000 -0.1703272284
C   C78       1.0  0.21770  0.41170  0.17130  1.0000 -0.1703272284
C   C79       1.0  0.55860  0.89820  0.66490  1.0000 -0.0414820685
C   C80       1.0  0.10180  0.44140  0.16490  1.0000 -0.0414820685
N   N1        1.0  0.61500  0.38080  0.72850  1.0000 0.3104792105
N   N2        1.0  0.61920  0.38500  0.22850  1.0000 0.3104792105
N   N3        1.0  0.72090  0.11050  0.63830  1.0000 0.3266214745
N   N4        1.0  0.88950  0.27910  0.13830  1.0000 0.3266214745
N   N5        1.0  0.32767  0.33907  0.64320  1.0000 0.3266214745
N   N6        1.0  0.66093  0.67233  0.14320  1.0000 0.3266214745
N   N7        1.0  0.78430  0.82330  0.77630  1.0000 0.3202381498
N   N8        1.0  0.17670  0.21570  0.27630  1.0000 0.3202381498
N   N9        1.0  0.99790  0.51830  0.36000  1.0000 0.3104792105
N   N10       1.0  0.48170  0.00210  0.86000  1.0000 0.3104792105
N   N11       1.0  0.90660  0.27980  0.39660  1.0000 0.3266214745
N   N12       1.0  0.72020  0.09340  0.89660  1.0000 0.3266214745
N   N13       1.0  0.36210  0.36090  0.81110  1.0000 0.3104792105
N   N14       1.0  0.63910  0.63790  0.31110  1.0000 0.3104792105
N   N15       1.0  0.46950  0.97470  0.68520  1.0000 0.3202381498
N   N16       1.0  0.02530  0.53050  0.18520  1.0000 0.3202381498
Cl  Cl1       1.0  0.65834  0.53890  0.86890  1.0000 1.2568388747
Cl  Cl2       1.0  0.46110  0.34166  0.36890  1.0000 1.2568388747
Cl  Cl3       1.0  0.74628  0.95954  0.19940  1.0000 1.2537038691
Cl  Cl4       1.0  0.04046  0.25372  0.69940  1.0000 1.2568388747
O   O1        1.0  0.64520  0.26740  0.73710  1.0000 -0.5697996252
O   O2        1.0  0.73260  0.35480  0.23710  1.0000 -0.5697996252
O   O3        1.0  0.68910  0.07110  0.68260  1.0000 -0.560495662
O   O4        1.0  0.92890  0.31090  0.18260  1.0000 -0.560495662
O   O5        1.0  0.38970  0.30910  0.69660  1.0000 -0.560495662
O   O6        1.0  0.69090  0.61030  0.19660  1.0000 -0.560495662
O   O7        1.0  0.67660  0.91040  0.77130  1.0000 -0.5404653483
O   O8        1.0  0.08960  0.32340  0.27130  1.0000 -0.5404653483
O   O9        1.0  0.93910  0.55330  0.30540  1.0000 -0.5404653483
O   O10       1.0  0.44670  0.06090  0.80540  1.0000 -0.5404653483
O   O11       1.0  0.94670  0.30310  0.35070  1.0000 -0.5697996252
O   O12       1.0  0.69690  0.05330  0.85070  1.0000 -0.5697996252
O   O13       1.0  0.47160  0.27400  0.81860  1.0000 -0.5527782473
O   O14       1.0  0.72600  0.52840  0.31860  1.0000 -0.5527782473
O   O15       1.0  0.44610  0.08510  0.68110  1.0000 -0.5527782473
O   O16       1.0  0.91490  0.55390  0.18110  1.0000 -0.560495662
O   O17       1.0  0.60640  0.65740  0.83830  1.0000 -0.5091405892
O   O18       1.0  0.59360  0.48500  0.84990  1.0000 -0.4904285901
O   O19       1.0  0.77390  0.47290  0.85650  1.0000 -0.4904285901
O   O20       1.0  0.66940  0.53440  0.92970  1.0000 -0.4904285901
O   O21       1.0  0.34260  0.39360  0.33830  1.0000 -0.5091405892
O   O22       1.0  0.51500  0.40640  0.34990  1.0000 -0.4904285901
O   O23       1.0  0.52710  0.22610  0.35650  1.0000 -0.4904285901
O   O24       1.0  0.46560  0.33060  0.42970  1.0000 -0.4904285901
O   O25       1.0  0.80140  0.84940  0.23990  1.0000 -0.4904285901
O   O26       1.0  0.78980  0.03380  0.21840  1.0000 -0.5091405892
O   O27       1.0  0.76790  0.94350  0.14210  1.0000 -0.5091405892
O   O28       1.0  0.62120  0.01440  0.19620  1.0000 -0.5091405892
O   O29       1.0  0.15060  0.19860  0.73990  1.0000 -0.4904285901
O   O30       1.0  0.96620  0.21020  0.71840  1.0000 -0.5091405892
O   O31       1.0  0.05650  0.23210  0.64210  1.0000 -0.5091405892
O   O32       1.0  0.98560  0.37880  0.69620  1.0000 -0.5091405892
