# DDEC6 charges by PACMAN v1.1 (https://github.com/mtap-research/PACMAN-charge/)
data_2004[Ag][cds]3[ION]1
_chemical_formula_sum              "Ag2 H24 C20 S8 N8 Cl2 O8"
_cell_length_a       8.415
_cell_length_b       12.503
_cell_length_c       12.682
_cell_angle_alpha    117.092
_cell_angle_beta     87.261
_cell_angle_gamma    108.584

_symmetry_space_group_name_H-M    "P 1"
_symmetry_Int_Tables_number       1

loop_
  _symmetry_equiv_pos_as_xyz
  'x, y, z'

loop_
  _atom_site_type_symbol
  _atom_site_label
  _atom_site_symmetry_multiplicity
  _atom_site_fract_x
  _atom_site_fract_y
  _atom_site_fract_z
  _atom_site_occupancy
  _atom_site_charge
Ag  Ag1       1.0  0.75664  0.51406  0.48561  1.0000 0.3080487599
Ag  Ag2       1.0  0.24336  0.48594  0.51439  1.0000 0.3080487599
H   H1        1.0  0.49450  0.18700  0.44680  1.0000 0.1689407242
H   H2        1.0  0.50550  0.81300  0.55320  1.0000 0.1689407242
H   H3        1.0  0.47290  0.22840  0.58190  1.0000 0.1500411322
H   H4        1.0  0.52710  0.77160  0.41810  1.0000 0.1554425557
H   H5        1.0  0.50820  0.32830  0.53390  1.0000 0.1432544117
H   H6        1.0  0.49180  0.67170  0.46610  1.0000 0.1432544117
H   H7        1.0  0.02130  0.13340  0.68940  1.0000 0.126843368
H   H8        1.0  0.97870  0.86660  0.31060  1.0000 0.126843368
H   H9        1.0  0.20990  0.13890  0.68110  1.0000 0.1554425557
H   H10       1.0  0.79010  0.86110  0.31890  1.0000 0.1554425557
H   H11       1.0  0.15280  0.04900  0.46810  1.0000 0.1202629134
H   H12       1.0  0.84720  0.95100  0.53190  1.0000 0.1202629134
H   H13       1.0  0.78310  0.29350  0.22400  1.0000 0.1500411322
H   H14       1.0  0.21690  0.70650  0.77600  1.0000 0.1500411322
H   H15       1.0  0.69370  0.24820  0.09800  1.0000 0.1689407242
H   H16       1.0  0.30630  0.75180  0.90200  1.0000 0.1689407242
H   H17       1.0  0.76470  0.39390  0.18810  1.0000 0.1554425557
H   H18       1.0  0.23530  0.60610  0.81190  1.0000 0.1554425557
H   H19       1.0  0.87260  0.97940  0.17570  1.0000 0.1432544117
H   H20       1.0  0.12740  0.02060  0.82430  1.0000 0.1432544117
H   H21       1.0  0.06140  0.98740  0.16090  1.0000 0.1202629134
H   H22       1.0  0.93860  0.01260  0.83910  1.0000 0.1202629134
H   H23       1.0  0.89190  0.06850  0.03920  1.0000 0.1202629134
H   H24       1.0  0.10810  0.93150  0.96080  1.0000 0.1202629134
C   C1        1.0  0.53160  0.25510  0.52660  1.0000 -0.4826310078
C   C2        1.0  0.46840  0.74490  0.47340  1.0000 -0.4826310078
C   C3        1.0  0.71520  0.28810  0.55310  1.0000 0.2127290716
C   C4        1.0  0.28480  0.71190  0.44690  1.0000 0.2127290716
C   C5        1.0  0.99130  0.30730  0.60850  1.0000 0.0543594261
C   C6        1.0  0.00870  0.69270  0.39150  1.0000 0.0543594261
C   C7        1.0  0.11720  0.14660  0.64570  1.0000 -0.2115102025
C   C8        1.0  0.88280  0.85340  0.35430  1.0000 -0.2115102025
C   C9        1.0  0.07270  0.04640  0.52080  1.0000 -0.1208195786
C   C10       1.0  0.92730  0.95360  0.47920  1.0000 -0.1208195786
C   C11       1.0  0.71170  0.31010  0.18060  1.0000 -0.46737128
C   C12       1.0  0.28830  0.68990  0.81940  1.0000 -0.46737128
C   C13       1.0  0.54500  0.30190  0.23040  1.0000 0.2220842143
C   C14       1.0  0.45500  0.69810  0.76960  1.0000 0.2220842143
C   C15       1.0  0.26170  0.24700  0.27310  1.0000 0.0671502252
C   C16       1.0  0.73830  0.75300  0.72690  1.0000 0.0671502252
C   C17       1.0  0.98020  0.02860  0.16330  1.0000 -0.2115102025
C   C18       1.0  0.01980  0.97140  0.83670  1.0000 -0.2115102025
C   C19       1.0  0.96200  0.02750  0.04690  1.0000 -0.1208195786
C   C20       1.0  0.03800  0.97250  0.95310  1.0000 -0.1208195786
S   S1        1.0  0.79372  0.21078  0.60834  1.0000 0.1500411322
S   S2        1.0  0.20628  0.78922  0.39166  1.0000 0.1500411322
S   S3        1.0  0.17802  0.30792  0.66164  1.0000 0.0768963223
S   S4        1.0  0.82198  0.69208  0.33836  1.0000 0.0768963223
S   S5        1.0  0.36339  0.17785  0.15326  1.0000 0.1432544117
S   S6        1.0  0.63661  0.82215  0.84674  1.0000 0.1432544117
S   S7        1.0  0.04853  0.18827  0.28823  1.0000 0.0370073964
S   S8        1.0  0.95147  0.81173  0.71177  1.0000 0.0370073964
N   N1        1.0  0.83090  0.37650  0.53760  1.0000 -0.1611812959
N   N2        1.0  0.16910  0.62350  0.46240  1.0000 -0.1611812959
N   N3        1.0  0.99190  0.38670  0.56920  1.0000 -0.1882804955
N   N4        1.0  0.00810  0.61330  0.43080  1.0000 -0.1882804955
N   N5        1.0  0.52430  0.38500  0.33320  1.0000 -0.1882804955
N   N6        1.0  0.47570  0.61500  0.66680  1.0000 -0.1882804955
N   N7        1.0  0.35860  0.35400  0.35830  1.0000 -0.1611812959
N   N8        1.0  0.64140  0.64600  0.64170  1.0000 -0.1611812959
Cl  Cl1       1.0  0.47770  0.93490  0.21679  1.0000 1.2295032193
Cl  Cl2       1.0  0.52230  0.06510  0.78321  1.0000 1.2295032193
O   O1        1.0  0.32650  0.96270  0.25230  1.0000 -0.5041635284
O   O2        1.0  0.53440  0.89910  0.29040  1.0000 -0.4590133975
O   O3        1.0  0.44000  0.83000  0.10100  1.0000 -0.46737128
O   O4        1.0  0.60060  0.04380  0.22140  1.0000 -0.4826310078
O   O5        1.0  0.67350  0.03730  0.74770  1.0000 -0.5041635284
O   O6        1.0  0.46560  0.10090  0.70960  1.0000 -0.4590133975
O   O7        1.0  0.56000  0.17000  0.89900  1.0000 -0.46737128
O   O8        1.0  0.39940  0.95620  0.77860  1.0000 -0.4826310078
