# DDEC6 charges by PACMAN v1.1 (https://github.com/mtap-research/PACMAN-charge/)
data_2005[ZnK][nan]3[ION]1
_chemical_formula_sum              "K4 Zn2 H4 C20 O16"
_cell_length_a       9.5545
_cell_length_b       9.5545
_cell_length_c       11.1085
_cell_angle_alpha    90.8293
_cell_angle_beta     90.8293
_cell_angle_gamma    107.222

_symmetry_space_group_name_H-M    "P 1"
_symmetry_Int_Tables_number       1

loop_
  _symmetry_equiv_pos_as_xyz
  'x, y, z'

loop_
  _atom_site_type_symbol
  _atom_site_label
  _atom_site_symmetry_multiplicity
  _atom_site_fract_x
  _atom_site_fract_y
  _atom_site_fract_z
  _atom_site_occupancy
  _atom_site_charge
K   K1        1.0  0.64219  0.78981  0.49244  1.0000 0.876253768
K   K2        1.0  0.21019  0.35781  0.00756  1.0000 0.876253768
K   K3        1.0  0.35781  0.21019  0.50756  1.0000 0.874506577
K   K4        1.0  0.78981  0.64219  0.99244  1.0000 0.876253768
Zn  Zn1       1.0  0.49675  0.50325  0.25000  1.0000 0.89549826
Zn  Zn2       1.0  0.50325  0.49675  0.75000  1.0000 0.89549826
H   H1        1.0  0.54360  0.05220  0.20280  1.0000 0.1222612701
H   H2        1.0  0.94780  0.45640  0.29720  1.0000 0.1222612701
H   H3        1.0  0.45640  0.94780  0.79720  1.0000 0.1222612701
H   H4        1.0  0.05220  0.54360  0.70280  1.0000 0.1222612701
C   C1        1.0  0.55270  0.29450  0.09940  1.0000 0.5892765961
C   C2        1.0  0.48930  0.22730  0.83250  1.0000 0.5773752771
C   C3        1.0  0.52270  0.14310  0.04390  1.0000 -0.0407962714
C   C4        1.0  0.49580  0.11140  0.92120  1.0000 -0.0506205939
C   C5        1.0  0.52620  0.03120  0.12100  1.0000 -0.128386856
C   C6        1.0  0.70550  0.44730  0.40060  1.0000 0.5892765961
C   C7        1.0  0.77270  0.51070  0.66750  1.0000 0.5773752771
C   C8        1.0  0.85690  0.47730  0.45610  1.0000 -0.0407962714
C   C9        1.0  0.88860  0.50420  0.57880  1.0000 -0.0506205939
C   C10       1.0  0.96880  0.47380  0.37900  1.0000 -0.128386856
C   C11       1.0  0.44730  0.70550  0.90060  1.0000 0.5892765961
C   C12       1.0  0.51070  0.77270  0.16750  1.0000 0.5773752771
C   C13       1.0  0.47730  0.85690  0.95610  1.0000 -0.0407962714
C   C14       1.0  0.50420  0.88860  0.07880  1.0000 -0.0506205939
C   C15       1.0  0.47380  0.96880  0.87900  1.0000 -0.128386856
C   C16       1.0  0.29450  0.55270  0.59940  1.0000 0.5892765961
C   C17       1.0  0.22730  0.48930  0.33250  1.0000 0.5773752771
C   C18       1.0  0.14310  0.52270  0.54390  1.0000 -0.0407962714
C   C19       1.0  0.11140  0.49580  0.42120  1.0000 -0.0506205939
C   C20       1.0  0.03120  0.52620  0.62100  1.0000 -0.128386856
O   O1        1.0  0.44421  0.31999  0.15210  1.0000 -0.6202467241
O   O2        1.0  0.67750  0.38010  0.09900  1.0000 -0.5724425076
O   O3        1.0  0.47222  0.34538  0.87490  1.0000 -0.6202467241
O   O4        1.0  0.50030  0.20450  0.72370  1.0000 -0.5724425076
O   O5        1.0  0.68001  0.55579  0.34790  1.0000 -0.6253845849
O   O6        1.0  0.61990  0.32250  0.40100  1.0000 -0.5724425076
O   O7        1.0  0.65462  0.52778  0.62510  1.0000 -0.6202467241
O   O8        1.0  0.79550  0.49970  0.77630  1.0000 -0.5793298342
O   O9        1.0  0.55579  0.68001  0.84790  1.0000 -0.6253845849
O   O10       1.0  0.32250  0.61990  0.90100  1.0000 -0.5724425076
O   O11       1.0  0.52778  0.65462  0.12510  1.0000 -0.6202467241
O   O12       1.0  0.49970  0.79550  0.27630  1.0000 -0.5793298342
O   O13       1.0  0.31999  0.44421  0.65210  1.0000 -0.6253845849
O   O14       1.0  0.38010  0.67750  0.59900  1.0000 -0.5724425076
O   O15       1.0  0.34538  0.47222  0.37490  1.0000 -0.6202467241
O   O16       1.0  0.20450  0.50030  0.22370  1.0000 -0.5724425076
