# DDEC6 charges by PACMAN v1.1 (https://github.com/mtap-research/PACMAN-charge/)
data_2005[Sc][rob]3[ION]1
_chemical_formula_sum              "Sc4 H96 C132 S12 N24 O60 F36"
_cell_length_a       20.7872
_cell_length_b       12.8061
_cell_length_c       26.3389
_cell_angle_alpha    90
_cell_angle_beta     126.949
_cell_angle_gamma    90

_symmetry_space_group_name_H-M    "P 1"
_symmetry_Int_Tables_number       1

loop_
  _symmetry_equiv_pos_as_xyz
  'x, y, z'

loop_
  _atom_site_type_symbol
  _atom_site_label
  _atom_site_symmetry_multiplicity
  _atom_site_fract_x
  _atom_site_fract_y
  _atom_site_fract_z
  _atom_site_occupancy
  _atom_site_charge
Sc  Sc1       1.0  0.24301  0.21405  0.24225  1.0000 1.6379962123
Sc  Sc2       1.0  0.75699  0.71405  0.25775  1.0000 1.6379962123
Sc  Sc3       1.0  0.75699  0.78595  0.75775  1.0000 1.6379962123
Sc  Sc4       1.0  0.24301  0.28595  0.74225  1.0000 1.6379962123
H   H1        1.0  0.48870  0.15150  0.30400  1.0000 0.1403988984
H   H2        1.0  0.51130  0.65150  0.19600  1.0000 0.1403988984
H   H3        1.0  0.51130  0.84850  0.69600  1.0000 0.1403988984
H   H4        1.0  0.48870  0.34850  0.80400  1.0000 0.1403988984
H   H5        1.0  0.59520  0.24820  0.32310  1.0000 0.1403988984
H   H6        1.0  0.40480  0.74820  0.17690  1.0000 0.1403988984
H   H7        1.0  0.40480  0.75180  0.67690  1.0000 0.1403988984
H   H8        1.0  0.59520  0.25180  0.82310  1.0000 0.1403988984
H   H9        1.0  0.47360  0.51060  0.30180  1.0000 0.1403988984
H   H10       1.0  0.52640  0.01060  0.19820  1.0000 0.1403988984
H   H11       1.0  0.52640  0.48940  0.69820  1.0000 0.1403988984
H   H12       1.0  0.47360  0.98940  0.80180  1.0000 0.1403988984
H   H13       1.0  0.37100  0.40710  0.28590  1.0000 0.1403988984
H   H14       1.0  0.62900  0.90710  0.21410  1.0000 0.1403988984
H   H15       1.0  0.62900  0.59290  0.71410  1.0000 0.1403988984
H   H16       1.0  0.37100  0.09290  0.78590  1.0000 0.1403988984
H   H17       1.0  0.10760  0.03120  0.18390  1.0000 0.1403988984
H   H18       1.0  0.89240  0.53120  0.31610  1.0000 0.1403988984
H   H19       1.0  0.89240  0.96880  0.81610  1.0000 0.1403988984
H   H20       1.0  0.10760  0.46880  0.68390  1.0000 0.1403988984
H   H21       1.0  0.00720  0.92480  0.16870  1.0000 0.1403988984
H   H22       1.0  0.99280  0.42480  0.33130  1.0000 0.1403988984
H   H23       1.0  0.99280  0.07520  0.83130  1.0000 0.1403988984
H   H24       1.0  0.00720  0.57520  0.66870  1.0000 0.1403988984
H   H25       1.0  0.89850  0.18280  0.17390  1.0000 0.1482921599
H   H26       1.0  0.10150  0.68280  0.32610  1.0000 0.1482921599
H   H27       1.0  0.10150  0.81720  0.82610  1.0000 0.1482921599
H   H28       1.0  0.89850  0.31720  0.67390  1.0000 0.1482921599
H   H29       1.0  0.99970  0.28380  0.18720  1.0000 0.1403988984
H   H30       1.0  0.00030  0.78380  0.31280  1.0000 0.1403988984
H   H31       1.0  0.00030  0.71620  0.81280  1.0000 0.1403988984
H   H32       1.0  0.99970  0.21620  0.68720  1.0000 0.1403988984
H   H33       1.0  0.39790  0.00370  0.32000  1.0000 0.1403988984
H   H34       1.0  0.60210  0.50370  0.18000  1.0000 0.1403988984
H   H35       1.0  0.60210  0.99630  0.68000  1.0000 0.1403988984
H   H36       1.0  0.39790  0.49630  0.82000  1.0000 0.1403988984
H   H37       1.0  0.51220  0.97240  0.42230  1.0000 0.1403988984
H   H38       1.0  0.48780  0.47240  0.07770  1.0000 0.1403988984
H   H39       1.0  0.48780  0.02760  0.57770  1.0000 0.1403988984
H   H40       1.0  0.51220  0.52760  0.92230  1.0000 0.1403988984
H   H41       1.0  0.38910  0.04990  0.48940  1.0000 0.1482921599
H   H42       1.0  0.61090  0.54990  0.01060  1.0000 0.1482921599
H   H43       1.0  0.61090  0.95010  0.51060  1.0000 0.1482921599
H   H44       1.0  0.38910  0.45010  0.98940  1.0000 0.1482921599
H   H45       1.0  0.27440  0.07970  0.38500  1.0000 0.1403988984
H   H46       1.0  0.72560  0.57970  0.11500  1.0000 0.1403988984
H   H47       1.0  0.72560  0.92030  0.61500  1.0000 0.1403988984
H   H48       1.0  0.27440  0.42030  0.88500  1.0000 0.1403988984
H   H49       1.0  0.73520  0.98060  0.18140  1.0000 0.1482921599
H   H50       1.0  0.26480  0.48060  0.31860  1.0000 0.1482921599
H   H51       1.0  0.26480  0.01940  0.81860  1.0000 0.1482921599
H   H52       1.0  0.73520  0.51940  0.68140  1.0000 0.1482921599
H   H53       1.0  0.82070  0.09000  0.17710  1.0000 0.1482921599
H   H54       1.0  0.17930  0.59000  0.32290  1.0000 0.1482921599
H   H55       1.0  0.17930  0.91000  0.82290  1.0000 0.1482921599
H   H56       1.0  0.82070  0.41000  0.67710  1.0000 0.1482921599
H   H57       1.0  0.91880  0.83490  0.15830  1.0000 0.1403988984
H   H58       1.0  0.08120  0.33490  0.34170  1.0000 0.1403988984
H   H59       1.0  0.08120  0.16510  0.84170  1.0000 0.1403988984
H   H60       1.0  0.91880  0.66510  0.65830  1.0000 0.1403988984
H   H61       1.0  0.82940  0.73210  0.16080  1.0000 0.1482921599
H   H62       1.0  0.17060  0.23210  0.33920  1.0000 0.1482921599
H   H63       1.0  0.17060  0.26790  0.83920  1.0000 0.1482921599
H   H64       1.0  0.82940  0.76790  0.66080  1.0000 0.1482921599
H   H65       1.0  0.75700  0.43800  0.30900  1.0000 0.1482921599
H   H66       1.0  0.24300  0.93800  0.19100  1.0000 0.1482921599
H   H67       1.0  0.24300  0.56200  0.69100  1.0000 0.1482921599
H   H68       1.0  0.75700  0.06200  0.80900  1.0000 0.1482921599
H   H69       1.0  0.65530  0.34210  0.29710  1.0000 0.1482921599
H   H70       1.0  0.34470  0.84210  0.20290  1.0000 0.1482921599
H   H71       1.0  0.34470  0.65790  0.70290  1.0000 0.1482921599
H   H72       1.0  0.65530  0.15790  0.79710  1.0000 0.1482921599
H   H73       1.0  0.59260  0.59100  0.35170  1.0000 0.1482921599
H   H74       1.0  0.40740  0.09100  0.14830  1.0000 0.1482921599
H   H75       1.0  0.40740  0.40900  0.64830  1.0000 0.1482921599
H   H76       1.0  0.59260  0.90900  0.85170  1.0000 0.1482921599
H   H77       1.0  0.69180  0.68690  0.36060  1.0000 0.1482921599
H   H78       1.0  0.30820  0.18690  0.13940  1.0000 0.1482921599
H   H79       1.0  0.30820  0.31310  0.63940  1.0000 0.1482921599
H   H80       1.0  0.69180  0.81310  0.86060  1.0000 0.1482921599
H   H81       1.0  0.16470  0.52890  0.18140  1.0000 0.1482921599
H   H82       1.0  0.83530  0.02890  0.31860  1.0000 0.1482921599
H   H83       1.0  0.83530  0.47110  0.81860  1.0000 0.1482921599
H   H84       1.0  0.16470  0.97110  0.68140  1.0000 0.1482921599
H   H85       1.0  0.05570  0.59960  0.08790  1.0000 0.1403988984
H   H86       1.0  0.94430  0.09960  0.41210  1.0000 0.1403988984
H   H87       1.0  0.94430  0.40040  0.91210  1.0000 0.1403988984
H   H88       1.0  0.05570  0.90040  0.58790  1.0000 0.1403988984
H   H89       1.0  0.04050  0.34180  0.99670  1.0000 0.1403988984
H   H90       1.0  0.95950  0.84180  0.50330  1.0000 0.1403988984
H   H91       1.0  0.95950  0.65820  0.00330  1.0000 0.1403988984
H   H92       1.0  0.04050  0.15820  0.49670  1.0000 0.1403988984
H   H93       1.0  0.14450  0.27210  0.09170  1.0000 0.1403988984
H   H94       1.0  0.85550  0.77210  0.40830  1.0000 0.1403988984
H   H95       1.0  0.85550  0.72790  0.90830  1.0000 0.1403988984
H   H96       1.0  0.14450  0.22790  0.59170  1.0000 0.1403988984
C   C1        1.0  0.48640  0.22560  0.30390  1.0000 -0.0197146063
C   C2        1.0  0.51360  0.72560  0.19610  1.0000 -0.0197146063
C   C3        1.0  0.51360  0.77440  0.69610  1.0000 -0.0197146063
C   C4        1.0  0.48640  0.27440  0.80390  1.0000 -0.0197146063
C   C5        1.0  0.54970  0.28280  0.31540  1.0000 -0.1401162392
C   C6        1.0  0.45030  0.78280  0.18460  1.0000 -0.1401162392
C   C7        1.0  0.45030  0.71720  0.68460  1.0000 -0.1401162392
C   C8        1.0  0.54970  0.21720  0.81540  1.0000 -0.1401162392
C   C9        1.0  0.54750  0.39050  0.31580  1.0000 0.1007583837
C   C10       1.0  0.45250  0.89050  0.18420  1.0000 0.1007583837
C   C11       1.0  0.45250  0.60950  0.68420  1.0000 0.1007583837
C   C12       1.0  0.54750  0.10950  0.81580  1.0000 0.1007583837
C   C13       1.0  0.47830  0.43670  0.30320  1.0000 -0.1509825857
C   C14       1.0  0.52170  0.93670  0.19680  1.0000 -0.1509825857
C   C15       1.0  0.52170  0.56330  0.69680  1.0000 -0.1509825857
C   C16       1.0  0.47830  0.06330  0.80320  1.0000 -0.1509825857
C   C17       1.0  0.41700  0.37540  0.29290  1.0000 -0.0197146063
C   C18       1.0  0.58300  0.87540  0.20710  1.0000 -0.0197146063
C   C19       1.0  0.58300  0.62460  0.70710  1.0000 -0.0197146063
C   C20       1.0  0.41700  0.12460  0.79290  1.0000 -0.0197146063
C   C21       1.0  0.06440  0.06110  0.18200  1.0000 -0.0093682921
C   C22       1.0  0.93560  0.56110  0.31800  1.0000 -0.0093682921
C   C23       1.0  0.93560  0.93890  0.81800  1.0000 -0.0197146063
C   C24       1.0  0.06440  0.43890  0.68200  1.0000 -0.0197146063
C   C25       1.0  0.00490  0.99810  0.17300  1.0000 -0.1509825857
C   C26       1.0  0.99510  0.49810  0.32700  1.0000 -0.1509825857
C   C27       1.0  0.99510  0.00190  0.82700  1.0000 -0.1509825857
C   C28       1.0  0.00490  0.50190  0.67300  1.0000 -0.1509825857
C   C29       1.0  0.94090  0.04110  0.17010  1.0000 0.1007583837
C   C30       1.0  0.05910  0.54110  0.32990  1.0000 0.1007583837
C   C31       1.0  0.05910  0.95890  0.82990  1.0000 0.1007583837
C   C32       1.0  0.94090  0.45890  0.67010  1.0000 0.1007583837
C   C33       1.0  0.94090  0.15020  0.17580  1.0000 -0.1401162392
C   C34       1.0  0.05910  0.65020  0.32420  1.0000 -0.1401162392
C   C35       1.0  0.05910  0.84980  0.82420  1.0000 -0.1401162392
C   C36       1.0  0.94090  0.34980  0.67580  1.0000 -0.1401162392
C   C37       1.0  0.00090  0.21000  0.18420  1.0000 -0.0093682921
C   C38       1.0  0.99910  0.71000  0.31580  1.0000 -0.0093682921
C   C39       1.0  0.99910  0.79000  0.81580  1.0000 -0.0093682921
C   C40       1.0  0.00090  0.29000  0.68420  1.0000 -0.0093682921
C   C41       1.0  0.39640  0.01370  0.35500  1.0000 -0.0010051096
C   C42       1.0  0.60360  0.51370  0.14500  1.0000 -0.0010051096
C   C43       1.0  0.60360  0.98630  0.64500  1.0000 -0.0010051096
C   C44       1.0  0.39640  0.48630  0.85500  1.0000 -0.0010051096
C   C45       1.0  0.46420  0.99500  0.41580  1.0000 -0.1401162392
C   C46       1.0  0.53580  0.49500  0.08420  1.0000 -0.1401162392
C   C47       1.0  0.53580  0.00500  0.58420  1.0000 -0.1401162392
C   C48       1.0  0.46420  0.50500  0.91580  1.0000 -0.1401162392
C   C49       1.0  0.46320  0.00830  0.46630  1.0000 0.1007583837
C   C50       1.0  0.53680  0.50830  0.03370  1.0000 0.1007583837
C   C51       1.0  0.53680  0.99170  0.53370  1.0000 0.1007583837
C   C52       1.0  0.46320  0.49170  0.96630  1.0000 0.1007583837
C   C53       1.0  0.39160  0.04040  0.45480  1.0000 -0.1509825857
C   C54       1.0  0.60840  0.54040  0.04520  1.0000 -0.1509825857
C   C55       1.0  0.60840  0.95960  0.54520  1.0000 -0.1509825857
C   C56       1.0  0.39160  0.45960  0.95480  1.0000 -0.1509825857
C   C57       1.0  0.32350  0.05860  0.39290  1.0000 -0.0093682921
C   C58       1.0  0.67650  0.55860  0.10710  1.0000 -0.0093682921
C   C59       1.0  0.67650  0.94140  0.60710  1.0000 -0.0093682921
C   C60       1.0  0.32350  0.44140  0.89290  1.0000 -0.0093682921
C   C61       1.0  0.77310  0.95170  0.17640  1.0000 -0.0093682921
C   C62       1.0  0.22690  0.45170  0.32360  1.0000 -0.0093682921
C   C63       1.0  0.22690  0.04830  0.82360  1.0000 -0.0093682921
C   C64       1.0  0.77310  0.54830  0.67640  1.0000 -0.0093682921
C   C65       1.0  0.82440  0.01650  0.17430  1.0000 -0.1509825857
C   C66       1.0  0.17560  0.51650  0.32570  1.0000 -0.1509825857
C   C67       1.0  0.17560  0.98350  0.82570  1.0000 -0.1509825857
C   C68       1.0  0.82440  0.48350  0.67430  1.0000 -0.1509825857
C   C69       1.0  0.88160  0.97620  0.16820  1.0000 0.1068122039
C   C70       1.0  0.11840  0.47620  0.33180  1.0000 0.1068122039
C   C71       1.0  0.11840  0.02380  0.83180  1.0000 0.1068122039
C   C72       1.0  0.88160  0.52380  0.66820  1.0000 0.1068122039
C   C73       1.0  0.88140  0.86700  0.16300  1.0000 -0.1693872909
C   C74       1.0  0.11860  0.36700  0.33700  1.0000 -0.1693872909
C   C75       1.0  0.11860  0.13300  0.83700  1.0000 -0.1693872909
C   C76       1.0  0.88140  0.63300  0.66300  1.0000 -0.1693872909
C   C77       1.0  0.82870  0.80580  0.16470  1.0000 -0.0197146063
C   C78       1.0  0.17130  0.30580  0.33530  1.0000 -0.0197146063
C   C79       1.0  0.17130  0.19420  0.83530  1.0000 -0.0197146063
C   C80       1.0  0.82870  0.69420  0.66470  1.0000 -0.0197146063
C   C81       1.0  0.72210  0.46890  0.31680  1.0000 -0.0197146063
C   C82       1.0  0.27790  0.96890  0.18320  1.0000 -0.0197146063
C   C83       1.0  0.27790  0.53110  0.68320  1.0000 -0.0197146063
C   C84       1.0  0.72210  0.03110  0.81680  1.0000 -0.0197146063
C   C85       1.0  0.66300  0.41270  0.31080  1.0000 -0.1401162392
C   C86       1.0  0.33700  0.91270  0.18920  1.0000 -0.1401162392
C   C87       1.0  0.33700  0.58730  0.68920  1.0000 -0.1401162392
C   C88       1.0  0.66300  0.08730  0.81080  1.0000 -0.1401162392
C   C89       1.0  0.61290  0.45500  0.32390  1.0000 0.1196180738
C   C90       1.0  0.38710  0.95500  0.17610  1.0000 0.1196180738
C   C91       1.0  0.38710  0.54500  0.67610  1.0000 0.1196180738
C   C92       1.0  0.61290  0.04500  0.82390  1.0000 0.1196180738
C   C93       1.0  0.62570  0.55910  0.34240  1.0000 -0.1509825857
C   C94       1.0  0.37430  0.05910  0.15760  1.0000 -0.1509825857
C   C95       1.0  0.37430  0.44090  0.65760  1.0000 -0.1509825857
C   C96       1.0  0.62570  0.94090  0.84240  1.0000 -0.1509825857
C   C97       1.0  0.68390  0.61580  0.34770  1.0000 -0.0197146063
C   C98       1.0  0.31610  0.11580  0.15230  1.0000 -0.0197146063
C   C99       1.0  0.31610  0.38420  0.65230  1.0000 -0.0197146063
C   C100      1.0  0.68390  0.88420  0.84770  1.0000 -0.0197146063
C   C101      1.0  0.13820  0.48940  0.14320  1.0000 -0.0010051096
C   C102      1.0  0.86180  0.98940  0.35680  1.0000 -0.0010051096
C   C103      1.0  0.86180  0.51060  0.85680  1.0000 -0.0010051096
C   C104      1.0  0.13820  0.01060  0.64320  1.0000 -0.0010051096
C   C105      1.0  0.07370  0.53170  0.08750  1.0000 -0.1693872909
C   C106      1.0  0.92630  0.03170  0.41250  1.0000 -0.1693872909
C   C107      1.0  0.92630  0.46830  0.91250  1.0000 -0.1792125355
C   C108      1.0  0.07370  0.96830  0.58750  1.0000 -0.1693872909
C   C109      1.0  0.03440  0.47760  0.03070  1.0000 0.1007583837
C   C110      1.0  0.96560  0.97760  0.46930  1.0000 0.1007583837
C   C111      1.0  0.96560  0.52240  0.96930  1.0000 0.1007583837
C   C112      1.0  0.03440  0.02240  0.53070  1.0000 0.1007583837
C   C113      1.0  0.06400  0.38170  0.03440  1.0000 -0.1559503966
C   C114      1.0  0.93600  0.88170  0.46560  1.0000 -0.1559503966
C   C115      1.0  0.93600  0.61830  0.96560  1.0000 -0.1559503966
C   C116      1.0  0.06400  0.11830  0.53440  1.0000 -0.1559503966
C   C117      1.0  0.12670  0.34090  0.09070  1.0000 -0.0279821039
C   C118      1.0  0.87330  0.84090  0.40930  1.0000 -0.0279821039
C   C119      1.0  0.87330  0.65910  0.90930  1.0000 -0.0279821039
C   C120      1.0  0.12670  0.15910  0.59070  1.0000 -0.0279821039
C   C121      1.0  0.41210  0.82750  0.87740  1.0000 0.4583265788
C   C122      1.0  0.58790  0.32750  0.62260  1.0000 0.4583265788
C   C123      1.0  0.58790  0.17250  0.12260  1.0000 0.4583265788
C   C124      1.0  0.41210  0.67250  0.37740  1.0000 0.4583265788
C   C125      1.0  0.32090  0.99550  0.61730  1.0000 0.4903701699
C   C126      1.0  0.67910  0.49550  0.88270  1.0000 0.4903701699
C   C127      1.0  0.67910  0.00450  0.38270  1.0000 0.4903701699
C   C128      1.0  0.32090  0.50450  0.11730  1.0000 0.4903701699
C   C129      1.0  0.85440  0.00360  0.57320  1.0000 0.4903701699
C   C130      1.0  0.14560  0.50360  0.92680  1.0000 0.4903701699
C   C131      1.0  0.14560  0.99640  0.42680  1.0000 0.4903701699
C   C132      1.0  0.85440  0.49640  0.07320  1.0000 0.4903701699
S   S1        1.0  0.34669  0.81320  0.79559  1.0000 1.0085730708
S   S2        1.0  0.65331  0.31320  0.70441  1.0000 1.0085730708
S   S3        1.0  0.65331  0.18680  0.20441  1.0000 1.0085730708
S   S4        1.0  0.34669  0.68680  0.29559  1.0000 1.0085730708
S   S5        1.0  0.39947  0.08470  0.63307  1.0000 0.9964574036
S   S6        1.0  0.60053  0.58470  0.86693  1.0000 0.9964574036
S   S7        1.0  0.60053  0.91530  0.36693  1.0000 0.9964574036
S   S8        1.0  0.39947  0.41530  0.13307  1.0000 0.9964574036
S   S9        1.0  0.91063  0.00490  0.65812  1.0000 0.9944704032
S   S10       1.0  0.08937  0.50490  0.84188  1.0000 0.9964574036
S   S11       1.0  0.08937  0.99510  0.34188  1.0000 0.9964574036
S   S12       1.0  0.91063  0.49510  0.15812  1.0000 0.9944704032
N   N1        1.0  0.42220  0.27200  0.29260  1.0000 0.3286730455
N   N2        1.0  0.57780  0.77200  0.20740  1.0000 0.3286730455
N   N3        1.0  0.57780  0.72800  0.70740  1.0000 0.3286730455
N   N4        1.0  0.42220  0.22800  0.79260  1.0000 0.3286730455
N   N5        1.0  0.06180  0.16360  0.18820  1.0000 0.3286730455
N   N6        1.0  0.93820  0.66360  0.31180  1.0000 0.3286730455
N   N7        1.0  0.93820  0.83640  0.81180  1.0000 0.3286730455
N   N8        1.0  0.06180  0.33640  0.68820  1.0000 0.3286730455
N   N9        1.0  0.32820  0.04600  0.34480  1.0000 0.3286730455
N   N10       1.0  0.67180  0.54600  0.15520  1.0000 0.3286730455
N   N11       1.0  0.67180  0.95400  0.65520  1.0000 0.3286730455
N   N12       1.0  0.32820  0.45400  0.84480  1.0000 0.3286730455
N   N13       1.0  0.77670  0.84930  0.17160  1.0000 0.3059394813
N   N14       1.0  0.22330  0.34930  0.32840  1.0000 0.3059394813
N   N15       1.0  0.22330  0.15070  0.82840  1.0000 0.3059394813
N   N16       1.0  0.77670  0.65070  0.67160  1.0000 0.3059394813
N   N17       1.0  0.73090  0.57050  0.33440  1.0000 0.3183062083
N   N18       1.0  0.26910  0.07050  0.16560  1.0000 0.3183062083
N   N19       1.0  0.26910  0.42950  0.66560  1.0000 0.3183062083
N   N20       1.0  0.73090  0.92950  0.83440  1.0000 0.3183062083
N   N21       1.0  0.16380  0.39520  0.14450  1.0000 0.3183062083
N   N22       1.0  0.83620  0.89520  0.35550  1.0000 0.3183062083
N   N23       1.0  0.83620  0.60480  0.85550  1.0000 0.3183062083
N   N24       1.0  0.16380  0.10480  0.64450  1.0000 0.3183062083
O   O1        1.0  0.36280  0.21220  0.28090  1.0000 -0.5803332173
O   O2        1.0  0.63720  0.71220  0.21910  1.0000 -0.5803332173
O   O3        1.0  0.63720  0.78780  0.71910  1.0000 -0.5803332173
O   O4        1.0  0.36280  0.28780  0.78090  1.0000 -0.5803332173
O   O5        1.0  0.12120  0.22560  0.19940  1.0000 -0.5963242367
O   O6        1.0  0.87880  0.72560  0.30060  1.0000 -0.5940919065
O   O7        1.0  0.87880  0.77440  0.80060  1.0000 -0.5940919065
O   O8        1.0  0.12120  0.27440  0.69940  1.0000 -0.5963242367
O   O9        1.0  0.26360  0.06750  0.28540  1.0000 -0.5803332173
O   O10       1.0  0.73640  0.56750  0.21460  1.0000 -0.5803332173
O   O11       1.0  0.73640  0.93250  0.71460  1.0000 -0.5803332173
O   O12       1.0  0.26360  0.43250  0.78540  1.0000 -0.5803332173
O   O13       1.0  0.72580  0.78730  0.17450  1.0000 -0.5963242367
O   O14       1.0  0.27420  0.28730  0.32550  1.0000 -0.5963242367
O   O15       1.0  0.27420  0.21270  0.82550  1.0000 -0.5963242367
O   O16       1.0  0.72580  0.71270  0.67450  1.0000 -0.5963242367
O   O17       1.0  0.78800  0.62910  0.33810  1.0000 -0.5963242367
O   O18       1.0  0.21200  0.12910  0.16190  1.0000 -0.5963242367
O   O19       1.0  0.21200  0.37090  0.66190  1.0000 -0.5963242367
O   O20       1.0  0.78800  0.87090  0.83810  1.0000 -0.5963242367
O   O21       1.0  0.22700  0.35850  0.19970  1.0000 -0.5577919167
O   O22       1.0  0.77300  0.85850  0.30030  1.0000 -0.5577919167
O   O23       1.0  0.77300  0.64150  0.80030  1.0000 -0.5577919167
O   O24       1.0  0.22700  0.14150  0.69970  1.0000 -0.5577919167
O   O25       1.0  0.40700  0.80830  0.78220  1.0000 -0.5963242367
O   O26       1.0  0.30250  0.90350  0.77540  1.0000 -0.5360813283
O   O27       1.0  0.30700  0.71350  0.78440  1.0000 -0.5803332173
O   O28       1.0  0.59300  0.30830  0.71780  1.0000 -0.5963242367
O   O29       1.0  0.69750  0.40350  0.72460  1.0000 -0.5360813283
O   O30       1.0  0.69300  0.21350  0.71560  1.0000 -0.5803332173
O   O31       1.0  0.59300  0.19170  0.21780  1.0000 -0.5963242367
O   O32       1.0  0.69750  0.09650  0.22460  1.0000 -0.5360813283
O   O33       1.0  0.69300  0.28650  0.21560  1.0000 -0.5803332173
O   O34       1.0  0.40700  0.69170  0.28220  1.0000 -0.5963242367
O   O35       1.0  0.30250  0.59650  0.27540  1.0000 -0.5360813283
O   O36       1.0  0.30700  0.78650  0.28440  1.0000 -0.5803332173
O   O37       1.0  0.38920  0.17330  0.66140  1.0000 -0.5478621972
O   O38       1.0  0.37690  0.10350  0.57050  1.0000 -0.5478621972
O   O39       1.0  0.47310  0.02620  0.67430  1.0000 -0.5577919167
O   O40       1.0  0.61080  0.67330  0.83860  1.0000 -0.5478621972
O   O41       1.0  0.62310  0.60350  0.92950  1.0000 -0.5478621972
O   O42       1.0  0.52690  0.52620  0.82570  1.0000 -0.5577919167
O   O43       1.0  0.61080  0.82670  0.33860  1.0000 -0.5478621972
O   O44       1.0  0.62310  0.89650  0.42950  1.0000 -0.5478621972
O   O45       1.0  0.52690  0.97380  0.32570  1.0000 -0.5577919167
O   O46       1.0  0.38920  0.32670  0.16140  1.0000 -0.5478621972
O   O47       1.0  0.37690  0.39650  0.07050  1.0000 -0.5478621972
O   O48       1.0  0.47310  0.47380  0.17430  1.0000 -0.5577919167
O   O49       1.0  0.89500  0.10760  0.67200  1.0000 -0.5577919167
O   O50       1.0  0.99090  0.99940  0.68130  1.0000 -0.5317393684
O   O51       1.0  0.87560  0.92350  0.67100  1.0000 -0.5478621972
O   O52       1.0  0.10500  0.60760  0.82800  1.0000 -0.5577919167
O   O53       1.0  0.00910  0.49940  0.81870  1.0000 -0.5317393684
O   O54       1.0  0.12440  0.42350  0.82900  1.0000 -0.5478621972
O   O55       1.0  0.10500  0.89240  0.32800  1.0000 -0.5577919167
O   O56       1.0  0.00910  0.00060  0.31870  1.0000 -0.5317393684
O   O57       1.0  0.12440  0.07650  0.32900  1.0000 -0.5577919167
O   O58       1.0  0.89500  0.39240  0.17200  1.0000 -0.5577919167
O   O59       1.0  0.99090  0.50060  0.18130  1.0000 -0.5317393684
O   O60       1.0  0.87560  0.57650  0.17100  1.0000 -0.5478621972
F   F1        1.0  0.45770  0.91510  0.89600  1.0000 -0.1792125355
F   F2        1.0  0.36580  0.82960  0.90060  1.0000 -0.1899591529
F   F3        1.0  0.46280  0.74800  0.90920  1.0000 -0.1559503966
F   F4        1.0  0.54230  0.41510  0.60400  1.0000 -0.1792125355
F   F5        1.0  0.63420  0.32960  0.59940  1.0000 -0.1899591529
F   F6        1.0  0.53720  0.24800  0.59080  1.0000 -0.1559503966
F   F7        1.0  0.54230  0.08490  0.10400  1.0000 -0.1792125355
F   F8        1.0  0.63420  0.17040  0.09940  1.0000 -0.1899591529
F   F9        1.0  0.53720  0.25200  0.09080  1.0000 -0.1559503966
F   F10       1.0  0.45770  0.58490  0.39600  1.0000 -0.1792125355
F   F11       1.0  0.36580  0.67040  0.40060  1.0000 -0.1899591529
F   F12       1.0  0.46280  0.75200  0.40920  1.0000 -0.1559503966
F   F13       1.0  0.33390  0.96630  0.67110  1.0000 -0.1559503966
F   F14       1.0  0.31990  0.90860  0.58840  1.0000 -0.1792125355
F   F15       1.0  0.24900  0.03830  0.58040  1.0000 -0.1792125355
F   F16       1.0  0.66610  0.46630  0.82890  1.0000 -0.1559503966
F   F17       1.0  0.68010  0.40860  0.91160  1.0000 -0.1792125355
F   F18       1.0  0.75100  0.53830  0.91960  1.0000 -0.1792125355
F   F19       1.0  0.66610  0.03370  0.32890  1.0000 -0.1559503966
F   F20       1.0  0.68010  0.09140  0.41160  1.0000 -0.1792125355
F   F21       1.0  0.75100  0.96170  0.41960  1.0000 -0.1792125355
F   F22       1.0  0.33390  0.53370  0.17110  1.0000 -0.1559503966
F   F23       1.0  0.31990  0.59140  0.08840  1.0000 -0.1792125355
F   F24       1.0  0.24900  0.46170  0.08040  1.0000 -0.1792125355
F   F25       1.0  0.86930  0.91380  0.55620  1.0000 -0.1899591529
F   F26       1.0  0.77700  0.01110  0.54520  1.0000 -0.1792125355
F   F27       1.0  0.87750  0.07560  0.55210  1.0000 -0.1792125355
F   F28       1.0  0.13070  0.41380  0.94380  1.0000 -0.1899591529
F   F29       1.0  0.22300  0.51110  0.95480  1.0000 -0.1792125355
F   F30       1.0  0.12250  0.57560  0.94790  1.0000 -0.1792125355
F   F31       1.0  0.13070  0.08620  0.44380  1.0000 -0.1899591529
F   F32       1.0  0.22300  0.98890  0.45480  1.0000 -0.1792125355
F   F33       1.0  0.12250  0.92440  0.44790  1.0000 -0.1792125355
F   F34       1.0  0.86930  0.58620  0.05620  1.0000 -0.1899591529
F   F35       1.0  0.77700  0.48890  0.04520  1.0000 -0.1792125355
F   F36       1.0  0.87750  0.42440  0.05210  1.0000 -0.1792125355
