# DDEC6 charges by PACMAN v1.1 (https://github.com/mtap-research/PACMAN-charge/)
data_2005[Zn][bcg]3[ION]1
_chemical_formula_sum              "Zn6 H80 C80 N4 O32"
_cell_length_a       17.5138
_cell_length_b       17.5138
_cell_length_c       18.1642
_cell_angle_alpha    87.8643
_cell_angle_beta     92.1357
_cell_angle_gamma    147.258

_symmetry_space_group_name_H-M    "P 1"
_symmetry_Int_Tables_number       1

loop_
  _symmetry_equiv_pos_as_xyz
  'x, y, z'

loop_
  _atom_site_type_symbol
  _atom_site_label
  _atom_site_symmetry_multiplicity
  _atom_site_fract_x
  _atom_site_fract_y
  _atom_site_fract_z
  _atom_site_occupancy
  _atom_site_charge
Zn  Zn1       1.0  0.00000  0.50000  0.00000  1.0000 0.9859318935
Zn  Zn2       1.0  0.50000  0.00000  0.50000  1.0000 0.9859318935
Zn  Zn3       1.0  0.95577  0.64963  0.99656  1.0000 0.9022658669
Zn  Zn4       1.0  0.64963  0.95577  0.50344  1.0000 0.9022658669
Zn  Zn5       1.0  0.04423  0.35037  0.00344  1.0000 0.9022658669
Zn  Zn6       1.0  0.35037  0.04423  0.49656  1.0000 0.9022658669
H   H1        1.0  0.75250  0.48730  0.77780  1.0000 0.1207240024
H   H2        1.0  0.48730  0.75250  0.72220  1.0000 0.1207240024
H   H3        1.0  0.24750  0.51270  0.22220  1.0000 0.1207240024
H   H4        1.0  0.51270  0.24750  0.27780  1.0000 0.1207240024
H   H5        1.0  0.74300  0.25340  0.83410  1.0000 0.1207240024
H   H6        1.0  0.25340  0.74300  0.66590  1.0000 0.1207240024
H   H7        1.0  0.25700  0.74660  0.16590  1.0000 0.1207240024
H   H8        1.0  0.74660  0.25700  0.33410  1.0000 0.1207240024
H   H9        1.0  0.63020  0.13460  0.72290  1.0000 0.1295360722
H   H10       1.0  0.13460  0.63020  0.77710  1.0000 0.1295360722
H   H11       1.0  0.36980  0.86540  0.27710  1.0000 0.1295360722
H   H12       1.0  0.86540  0.36980  0.22290  1.0000 0.1295360722
H   H13       1.0  0.63020  0.36100  0.66860  1.0000 0.1207240024
H   H14       1.0  0.36100  0.63020  0.83140  1.0000 0.1207240024
H   H15       1.0  0.36980  0.63900  0.33140  1.0000 0.1207240024
H   H16       1.0  0.63900  0.36980  0.16860  1.0000 0.1207240024
H   H17       1.0  0.46090  0.02910  0.10970  1.0000 0.111273718
H   H18       1.0  0.02910  0.46090  0.39030  1.0000 0.111273718
H   H19       1.0  0.53910  0.97090  0.89030  1.0000 0.111273718
H   H20       1.0  0.97090  0.53910  0.60970  1.0000 0.111273718
H   H21       1.0  0.31210  0.81950  0.91880  1.0000 0.1207240024
H   H22       1.0  0.81950  0.31210  0.58120  1.0000 0.1207240024
H   H23       1.0  0.68790  0.18050  0.08120  1.0000 0.1207240024
H   H24       1.0  0.18050  0.68790  0.41880  1.0000 0.1207240024
H   H25       1.0  0.85970  0.79590  0.06690  1.0000 0.111273718
H   H26       1.0  0.79590  0.85970  0.43310  1.0000 0.111273718
H   H27       1.0  0.14030  0.20410  0.93310  1.0000 0.111273718
H   H28       1.0  0.20410  0.14030  0.56690  1.0000 0.111273718
H   H29       1.0  0.15660  0.08740  0.91350  1.0000 0.1207240024
H   H30       1.0  0.08740  0.15660  0.58650  1.0000 0.1207240024
H   H31       1.0  0.84340  0.91260  0.08650  1.0000 0.1207240024
H   H32       1.0  0.91260  0.84340  0.41350  1.0000 0.1207240024
H   H33       1.0  0.20180  0.91760  0.66130  1.0000 0.2852883839
H   H34       1.0  0.07230  0.85510  0.66940  1.0000 0.2732375466
H   H35       1.0  0.28150  0.10250  0.66170  1.0000 0.1020638623
H   H36       1.0  0.32020  0.09880  0.74180  1.0000 0.1020638623
H   H37       1.0  0.21430  0.12990  0.75340  1.0000 0.1295360722
H   H38       1.0  0.11470  0.98150  0.78950  1.0000 0.1295360722
H   H39       1.0  0.07730  0.98670  0.70970  1.0000 0.1207240024
H   H40       1.0  0.07030  0.82210  0.79470  1.0000 0.1020638623
H   H41       1.0  0.04280  0.72820  0.74320  1.0000 0.1020638623
H   H42       1.0  0.19970  0.82710  0.83560  1.0000 0.1470420153
H   H43       1.0  0.30310  0.98170  0.80900  1.0000 0.1368939631
H   H44       1.0  0.27540  0.88760  0.75750  1.0000 0.1295360722
H   H45       1.0  0.91760  0.20180  0.83870  1.0000 0.2852883839
H   H46       1.0  0.85510  0.07230  0.83060  1.0000 0.2732375466
H   H47       1.0  0.10250  0.28150  0.83830  1.0000 0.1020638623
H   H48       1.0  0.09880  0.32020  0.75820  1.0000 0.1020638623
H   H49       1.0  0.12990  0.21430  0.74660  1.0000 0.1295360722
H   H50       1.0  0.98150  0.11470  0.71050  1.0000 0.1295360722
H   H51       1.0  0.98670  0.07730  0.79030  1.0000 0.1207240024
H   H52       1.0  0.82210  0.07030  0.70530  1.0000 0.111273718
H   H53       1.0  0.72820  0.04280  0.75680  1.0000 0.1020638623
H   H54       1.0  0.82710  0.19970  0.66440  1.0000 0.1470420153
H   H55       1.0  0.98170  0.30310  0.69100  1.0000 0.1368939631
H   H56       1.0  0.88760  0.27540  0.74250  1.0000 0.1295360722
H   H57       1.0  0.79820  0.08240  0.33870  1.0000 0.2852883839
H   H58       1.0  0.92770  0.14490  0.33060  1.0000 0.2732375466
H   H59       1.0  0.71850  0.89750  0.33830  1.0000 0.1020638623
H   H60       1.0  0.67980  0.90120  0.25820  1.0000 0.1020638623
H   H61       1.0  0.78570  0.87010  0.24660  1.0000 0.1295360722
H   H62       1.0  0.88530  0.01850  0.21050  1.0000 0.1295360722
H   H63       1.0  0.92270  0.01330  0.29030  1.0000 0.1207240024
H   H64       1.0  0.92970  0.17790  0.20530  1.0000 0.111273718
H   H65       1.0  0.95720  0.27180  0.25680  1.0000 0.1020638623
H   H66       1.0  0.80030  0.17290  0.16440  1.0000 0.1470420153
H   H67       1.0  0.69690  0.01830  0.19100  1.0000 0.1368939631
H   H68       1.0  0.72460  0.11240  0.24250  1.0000 0.1295360722
H   H69       1.0  0.08240  0.79820  0.16130  1.0000 0.2846538031
H   H70       1.0  0.14490  0.92770  0.16940  1.0000 0.2732375466
H   H71       1.0  0.89750  0.71850  0.16170  1.0000 0.1020638623
H   H72       1.0  0.90120  0.67980  0.24180  1.0000 0.1020638623
H   H73       1.0  0.87010  0.78570  0.25340  1.0000 0.1295360722
H   H74       1.0  0.01850  0.88530  0.28950  1.0000 0.1295360722
H   H75       1.0  0.01330  0.92270  0.20970  1.0000 0.1295360722
H   H76       1.0  0.17790  0.92970  0.29470  1.0000 0.111273718
H   H77       1.0  0.27180  0.95720  0.24320  1.0000 0.1020638623
H   H78       1.0  0.17290  0.80030  0.33560  1.0000 0.1470420153
H   H79       1.0  0.01830  0.69690  0.30900  1.0000 0.1368939631
H   H80       1.0  0.11240  0.72460  0.25750  1.0000 0.1295360722
C   C1        1.0  0.82534  0.45326  0.89012  1.0000 0.5887920164
C   C2        1.0  0.45326  0.82534  0.60988  1.0000 0.5887920164
C   C3        1.0  0.17466  0.54674  0.10988  1.0000 0.5887920164
C   C4        1.0  0.54674  0.17466  0.39012  1.0000 0.5887920164
C   C5        1.0  0.75591  0.38009  0.81758  1.0000 -0.0135353882
C   C6        1.0  0.38009  0.75591  0.68242  1.0000 -0.0135353882
C   C7        1.0  0.24409  0.61991  0.18242  1.0000 -0.0135353882
C   C8        1.0  0.61991  0.24409  0.31758  1.0000 -0.0135353882
C   C9        1.0  0.72498  0.41342  0.76733  1.0000 -0.1174654242
C   C10       1.0  0.41342  0.72498  0.73267  1.0000 -0.1174654242
C   C11       1.0  0.27502  0.58658  0.23267  1.0000 -0.1174654242
C   C12       1.0  0.58658  0.27502  0.26733  1.0000 -0.1174654242
C   C13       1.0  0.72063  0.27577  0.80040  1.0000 -0.100232498
C   C14       1.0  0.27577  0.72063  0.69960  1.0000 -0.100232498
C   C15       1.0  0.27937  0.72423  0.19960  1.0000 -0.100232498
C   C16       1.0  0.72423  0.27937  0.30040  1.0000 -0.100232498
C   C17       1.0  0.54346  0.15594  0.61437  1.0000 0.5807090604
C   C18       1.0  0.15594  0.54346  0.88563  1.0000 0.5807090604
C   C19       1.0  0.45654  0.84406  0.38563  1.0000 0.5807090604
C   C20       1.0  0.84406  0.45654  0.11437  1.0000 0.5807090604
C   C21       1.0  0.61807  0.23513  0.68477  1.0000 -0.0296512454
C   C22       1.0  0.23513  0.61807  0.81523  1.0000 -0.0296512454
C   C23       1.0  0.38193  0.76487  0.31523  1.0000 -0.0296512454
C   C24       1.0  0.76487  0.38193  0.18477  1.0000 -0.0296512454
C   C25       1.0  0.65300  0.20480  0.73450  1.0000 -0.1099512703
C   C26       1.0  0.20480  0.65300  0.76550  1.0000 -0.1099512703
C   C27       1.0  0.34700  0.79520  0.26550  1.0000 -0.1099512703
C   C28       1.0  0.79520  0.34700  0.23450  1.0000 -0.1099512703
C   C29       1.0  0.65410  0.33990  0.70182  1.0000 -0.1174654242
C   C30       1.0  0.33990  0.65410  0.79818  1.0000 -0.1174654242
C   C31       1.0  0.34590  0.66010  0.29818  1.0000 -0.1174654242
C   C32       1.0  0.66010  0.34590  0.20182  1.0000 -0.1174654242
C   C33       1.0  0.21821  0.81339  0.03530  1.0000 0.5735995972
C   C34       1.0  0.81339  0.21821  0.46470  1.0000 0.5735995972
C   C35       1.0  0.78179  0.18661  0.96470  1.0000 0.5735995972
C   C36       1.0  0.18661  0.78179  0.53530  1.0000 0.5735995972
C   C37       1.0  0.36359  0.90821  0.01720  1.0000 -0.0135353882
C   C38       1.0  0.90821  0.36359  0.48280  1.0000 -0.0135353882
C   C39       1.0  0.63641  0.09179  0.98280  1.0000 -0.0135353882
C   C40       1.0  0.09179  0.63641  0.51720  1.0000 -0.0135353882
C   C41       1.0  0.47693  0.01727  0.06520  1.0000 -0.1099512703
C   C42       1.0  0.01727  0.47693  0.43480  1.0000 -0.1099512703
C   C43       1.0  0.52307  0.98273  0.93480  1.0000 -0.1099512703
C   C44       1.0  0.98273  0.52307  0.56520  1.0000 -0.1099512703
C   C45       1.0  0.38827  0.89253  0.95184  1.0000 -0.100232498
C   C46       1.0  0.89253  0.38827  0.54816  1.0000 -0.100232498
C   C47       1.0  0.61173  0.10747  0.04816  1.0000 -0.100232498
C   C48       1.0  0.10747  0.61173  0.45184  1.0000 -0.100232498
C   C49       1.0  0.02287  0.85593  0.97620  1.0000 0.546674093
C   C50       1.0  0.85593  0.02287  0.52380  1.0000 0.546674093
C   C51       1.0  0.97713  0.14407  0.02380  1.0000 0.546674093
C   C52       1.0  0.14407  0.97713  0.47620  1.0000 0.546674093
C   C53       1.0  0.01197  0.93143  0.98850  1.0000 -0.0135353882
C   C54       1.0  0.93143  0.01197  0.51150  1.0000 -0.0135353882
C   C55       1.0  0.98803  0.06857  0.01150  1.0000 -0.0135353882
C   C56       1.0  0.06857  0.98803  0.48850  1.0000 -0.0135353882
C   C57       1.0  0.91754  0.87946  0.03960  1.0000 -0.1174654242
C   C58       1.0  0.87946  0.91754  0.46040  1.0000 -0.1174654242
C   C59       1.0  0.08246  0.12054  0.96040  1.0000 -0.1174654242
C   C60       1.0  0.12054  0.08246  0.53960  1.0000 -0.1174654242
C   C61       1.0  0.09274  0.05126  0.94900  1.0000 -0.1174654242
C   C62       1.0  0.05126  0.09274  0.55100  1.0000 -0.1174654242
C   C63       1.0  0.90726  0.94874  0.05100  1.0000 -0.1099512703
C   C64       1.0  0.94874  0.90726  0.44900  1.0000 -0.1099512703
C   C65       1.0  0.24110  0.04770  0.70830  1.0000 -0.019119736
C   C66       1.0  0.15420  0.03540  0.74330  1.0000 -0.4132043443
C   C67       1.0  0.11430  0.82610  0.75820  1.0000 -0.019119736
C   C68       1.0  0.23270  0.88550  0.79290  1.0000 -0.4132043443
C   C69       1.0  0.04770  0.24110  0.79170  1.0000 -0.019119736
C   C70       1.0  0.03540  0.15420  0.75670  1.0000 -0.4132043443
C   C71       1.0  0.82610  0.11430  0.74180  1.0000 -0.019119736
C   C72       1.0  0.88550  0.23270  0.70710  1.0000 -0.4132043443
C   C73       1.0  0.75890  0.95230  0.29170  1.0000 -0.019119736
C   C74       1.0  0.84580  0.96460  0.25670  1.0000 -0.4132043443
C   C75       1.0  0.88570  0.17390  0.24180  1.0000 -0.019119736
C   C76       1.0  0.76730  0.11450  0.20710  1.0000 -0.4132043443
C   C77       1.0  0.95230  0.75890  0.20830  1.0000 -0.019119736
C   C78       1.0  0.96460  0.84580  0.24330  1.0000 -0.4132043443
C   C79       1.0  0.17390  0.88570  0.25820  1.0000 -0.019119736
C   C80       1.0  0.11450  0.76730  0.29290  1.0000 -0.4132043443
N   N1        1.0  0.15371  0.90709  0.69310  1.0000 -0.1984902493
N   N2        1.0  0.90709  0.15371  0.80690  1.0000 -0.1984902493
N   N3        1.0  0.84629  0.09291  0.30690  1.0000 -0.1984902493
N   N4        1.0  0.09291  0.84629  0.19310  1.0000 -0.1984902493
O   O1        1.0  0.83994  0.41046  0.93523  1.0000 -0.5478459941
O   O2        1.0  0.41046  0.83994  0.56477  1.0000 -0.5478459941
O   O3        1.0  0.16006  0.58954  0.06477  1.0000 -0.5478459941
O   O4        1.0  0.58954  0.16006  0.43523  1.0000 -0.5478459941
O   O5        1.0  0.86198  0.55222  0.90153  1.0000 -0.5311138726
O   O6        1.0  0.55222  0.86198  0.59847  1.0000 -0.5311138726
O   O7        1.0  0.13802  0.44778  0.09847  1.0000 -0.5311138726
O   O8        1.0  0.44778  0.13802  0.40153  1.0000 -0.5311138726
O   O9        1.0  0.54509  0.08991  0.59491  1.0000 -0.5404255784
O   O10       1.0  0.08991  0.54509  0.90509  1.0000 -0.5404255784
O   O11       1.0  0.45491  0.91009  0.40509  1.0000 -0.5404255784
O   O12       1.0  0.91009  0.45491  0.09491  1.0000 -0.5404255784
O   O13       1.0  0.48326  0.16134  0.58126  1.0000 -0.5478459941
O   O14       1.0  0.16134  0.48326  0.91874  1.0000 -0.5478459941
O   O15       1.0  0.51674  0.83866  0.41874  1.0000 -0.5478459941
O   O16       1.0  0.83866  0.51674  0.08126  1.0000 -0.5478459941
O   O17       1.0  0.11771  0.71309  0.99091  1.0000 -0.5853339231
O   O18       1.0  0.71309  0.11771  0.50909  1.0000 -0.5853339231
O   O19       1.0  0.88229  0.28691  0.00909  1.0000 -0.5853339231
O   O20       1.0  0.28691  0.88229  0.49091  1.0000 -0.5853339231
O   O21       1.0  0.20197  0.83803  0.09053  1.0000 -0.5583182371
O   O22       1.0  0.83803  0.20197  0.40947  1.0000 -0.5583182371
O   O23       1.0  0.79803  0.16197  0.90947  1.0000 -0.5583182371
O   O24       1.0  0.16197  0.79803  0.59053  1.0000 -0.5583182371
O   O25       1.0  0.95314  0.75386  0.02000  1.0000 -0.5478459941
O   O26       1.0  0.75386  0.95314  0.48000  1.0000 -0.5478459941
O   O27       1.0  0.04686  0.24614  0.98000  1.0000 -0.5478459941
O   O28       1.0  0.24614  0.04686  0.52000  1.0000 -0.5478459941
O   O29       1.0  0.09441  0.89359  0.92580  1.0000 -0.5311138726
O   O30       1.0  0.89359  0.09441  0.57420  1.0000 -0.5311138726
O   O31       1.0  0.90559  0.10641  0.07420  1.0000 -0.5311138726
O   O32       1.0  0.10641  0.90559  0.42580  1.0000 -0.5311138726
