# DDEC6 charges by PACMAN v1.1 (https://github.com/mtap-research/PACMAN-charge/)
data_2005[Zn][rtl]3[ION]1
_chemical_formula_sum              "Zn4 H44 C44 N4 O24"
_cell_length_a       9.455
_cell_length_b       16.0074
_cell_length_c       13.4328
_cell_angle_alpha    90
_cell_angle_beta     125.657
_cell_angle_gamma    90

_symmetry_space_group_name_H-M    "P 1"
_symmetry_Int_Tables_number       1

loop_
  _symmetry_equiv_pos_as_xyz
  'x, y, z'

loop_
  _atom_site_type_symbol
  _atom_site_label
  _atom_site_symmetry_multiplicity
  _atom_site_fract_x
  _atom_site_fract_y
  _atom_site_fract_z
  _atom_site_occupancy
  _atom_site_charge
Zn  Zn1       1.0  0.19984  0.07995  0.06871  1.0000 0.9332469719
Zn  Zn2       1.0  0.80016  0.57995  0.43129  1.0000 0.9332469719
Zn  Zn3       1.0  0.80016  0.92005  0.93129  1.0000 0.9332469719
Zn  Zn4       1.0  0.19984  0.42005  0.56871  1.0000 0.9332469719
H   H1        1.0  0.30700  0.95300  0.86100  1.0000 0.1292030382
H   H2        1.0  0.69300  0.45300  0.63900  1.0000 0.1292030382
H   H3        1.0  0.69300  0.04700  0.13900  1.0000 0.1292030382
H   H4        1.0  0.30700  0.54700  0.36100  1.0000 0.1292030382
H   H5        1.0  0.18900  0.77700  0.60400  1.0000 0.1245438735
H   H6        1.0  0.81100  0.27700  0.89600  1.0000 0.1245438735
H   H7        1.0  0.81100  0.22300  0.39600  1.0000 0.1245438735
H   H8        1.0  0.18900  0.72300  0.10400  1.0000 0.1245438735
H   H9        1.0  0.83900  0.84200  0.67700  1.0000 0.1292030382
H   H10       1.0  0.16100  0.34200  0.82300  1.0000 0.1292030382
H   H11       1.0  0.16100  0.15800  0.32300  1.0000 0.1292030382
H   H12       1.0  0.83900  0.65800  0.17700  1.0000 0.1292030382
H   H13       1.0  0.48930  0.08380  0.90470  1.0000 0.1385090766
H   H14       1.0  0.43900  0.17240  0.92440  1.0000 0.1385090766
H   H15       1.0  0.62270  0.15760  0.95200  1.0000 0.1385090766
H   H16       1.0  0.64790  0.14480  0.78120  1.0000 0.1385090766
H   H17       1.0  0.47880  0.14290  0.64640  1.0000 0.1385090766
H   H18       1.0  0.52400  0.06700  0.73390  1.0000 0.1385090766
H   H19       1.0  0.31400  0.15500  0.72500  1.0000 0.2548368591
H   H20       1.0  0.44400  0.23000  0.76400  1.0000 0.261401208
H   H21       1.0  0.51070  0.58380  0.59530  1.0000 0.1385090766
H   H22       1.0  0.56100  0.67240  0.57560  1.0000 0.1385090766
H   H23       1.0  0.37730  0.65760  0.54800  1.0000 0.1385090766
H   H24       1.0  0.35210  0.64480  0.71880  1.0000 0.1385090766
H   H25       1.0  0.52120  0.64290  0.85360  1.0000 0.1385090766
H   H26       1.0  0.47600  0.56700  0.76610  1.0000 0.1385090766
H   H27       1.0  0.68600  0.65500  0.77500  1.0000 0.2548368591
H   H28       1.0  0.55600  0.73000  0.73600  1.0000 0.261401208
H   H29       1.0  0.51070  0.91620  0.09530  1.0000 0.1385090766
H   H30       1.0  0.56100  0.82760  0.07560  1.0000 0.1385090766
H   H31       1.0  0.37730  0.84240  0.04800  1.0000 0.1385090766
H   H32       1.0  0.35210  0.85520  0.21880  1.0000 0.1385090766
H   H33       1.0  0.52120  0.85710  0.35360  1.0000 0.1385090766
H   H34       1.0  0.47600  0.93300  0.26610  1.0000 0.1385090766
H   H35       1.0  0.68600  0.84500  0.27500  1.0000 0.2548368591
H   H36       1.0  0.55600  0.77000  0.23600  1.0000 0.261401208
H   H37       1.0  0.48930  0.41620  0.40470  1.0000 0.1385090766
H   H38       1.0  0.43900  0.32760  0.42440  1.0000 0.1385090766
H   H39       1.0  0.62270  0.34240  0.45200  1.0000 0.1385090766
H   H40       1.0  0.64790  0.35520  0.28120  1.0000 0.1385090766
H   H41       1.0  0.47880  0.35710  0.14640  1.0000 0.1385090766
H   H42       1.0  0.52400  0.43300  0.23390  1.0000 0.1385090766
H   H43       1.0  0.31400  0.34500  0.22500  1.0000 0.2548368591
H   H44       1.0  0.44400  0.27000  0.26400  1.0000 0.261401208
C   C1        1.0  0.02500  0.95570  0.85540  1.0000 0.594048621
C   C2        1.0  0.97500  0.45570  0.64460  1.0000 0.594048621
C   C3        1.0  0.97500  0.04430  0.14460  1.0000 0.594048621
C   C4        1.0  0.02500  0.54430  0.35540  1.0000 0.594048621
C   C5        1.0  0.45300  0.87671  0.76630  1.0000 0.5720312017
C   C6        1.0  0.54700  0.37671  0.73370  1.0000 0.5720312017
C   C7        1.0  0.54700  0.12329  0.23370  1.0000 0.5720312017
C   C8        1.0  0.45300  0.62329  0.26630  1.0000 0.5720312017
C   C9        1.0  0.86930  0.73480  0.54110  1.0000 0.5474947112
C   C10       1.0  0.13070  0.23480  0.95890  1.0000 0.5474947112
C   C11       1.0  0.13070  0.26520  0.45890  1.0000 0.5474947112
C   C12       1.0  0.86930  0.76520  0.04110  1.0000 0.5474947112
C   C13       1.0  0.06590  0.90670  0.77980  1.0000 -0.031322471
C   C14       1.0  0.93410  0.40670  0.72020  1.0000 -0.031322471
C   C15       1.0  0.93410  0.09330  0.22020  1.0000 -0.031322471
C   C16       1.0  0.06590  0.59330  0.27980  1.0000 -0.031322471
C   C17       1.0  0.22870  0.91623  0.80180  1.0000 -0.1030089838
C   C18       1.0  0.77130  0.41623  0.69820  1.0000 -0.1030089838
C   C19       1.0  0.77130  0.08377  0.19820  1.0000 -0.1030089838
C   C20       1.0  0.22870  0.58377  0.30180  1.0000 -0.1030089838
C   C21       1.0  0.27470  0.86873  0.73860  1.0000 -0.0238839687
C   C22       1.0  0.72530  0.36873  0.76140  1.0000 -0.0238839687
C   C23       1.0  0.72530  0.13127  0.26140  1.0000 -0.0238839687
C   C24       1.0  0.27470  0.63127  0.23860  1.0000 -0.0238839687
C   C25       1.0  0.15620  0.81083  0.65250  1.0000 -0.1211096552
C   C26       1.0  0.84380  0.31083  0.84750  1.0000 -0.1211096552
C   C27       1.0  0.84380  0.18917  0.34750  1.0000 -0.1211096552
C   C28       1.0  0.15620  0.68917  0.15250  1.0000 -0.1211096552
C   C29       1.0  0.99330  0.80090  0.62930  1.0000 -0.0143797093
C   C30       1.0  0.00670  0.30090  0.87070  1.0000 -0.0143797093
C   C31       1.0  0.00670  0.19910  0.37070  1.0000 -0.0143797093
C   C32       1.0  0.99330  0.69910  0.12930  1.0000 -0.0143797093
C   C33       1.0  0.94760  0.84966  0.69280  1.0000 -0.1076515747
C   C34       1.0  0.05240  0.34966  0.80720  1.0000 -0.1076515747
C   C35       1.0  0.05240  0.15034  0.30720  1.0000 -0.1076515747
C   C36       1.0  0.94760  0.65034  0.19280  1.0000 -0.1076515747
C   C37       1.0  0.50170  0.14280  0.89940  1.0000 -0.2987486107
C   C38       1.0  0.52880  0.12670  0.72950  1.0000 -0.2788588387
C   C39       1.0  0.49830  0.64280  0.60060  1.0000 -0.2987486107
C   C40       1.0  0.47120  0.62670  0.77050  1.0000 -0.2788588387
C   C41       1.0  0.49830  0.85720  0.10060  1.0000 -0.2987486107
C   C42       1.0  0.47120  0.87330  0.27050  1.0000 -0.2788588387
C   C43       1.0  0.50170  0.35720  0.39940  1.0000 -0.2987486107
C   C44       1.0  0.52880  0.37330  0.22950  1.0000 -0.2788588387
N   N1        1.0  0.43040  0.16540  0.77070  1.0000 -0.1030089838
N   N2        1.0  0.56960  0.66540  0.72930  1.0000 -0.1030089838
N   N3        1.0  0.56960  0.83460  0.22930  1.0000 -0.1030089838
N   N4        1.0  0.43040  0.33460  0.27070  1.0000 -0.1030089838
O   O1        1.0  0.14760  0.99502  0.94460  1.0000 -0.5421369604
O   O2        1.0  0.85240  0.49502  0.55540  1.0000 -0.5421369604
O   O3        1.0  0.85240  0.00498  0.05540  1.0000 -0.5421369604
O   O4        1.0  0.14760  0.50498  0.44460  1.0000 -0.5421369604
O   O5        1.0  0.87100  0.95254  0.82530  1.0000 -0.5421369604
O   O6        1.0  0.12900  0.45254  0.67470  1.0000 -0.5421369604
O   O7        1.0  0.12900  0.04746  0.17470  1.0000 -0.5421369604
O   O8        1.0  0.87100  0.54746  0.32530  1.0000 -0.5421369604
O   O9        1.0  0.55080  0.93212  0.84520  1.0000 -0.5500522238
O   O10       1.0  0.44920  0.43212  0.65480  1.0000 -0.5500522238
O   O11       1.0  0.44920  0.06788  0.15480  1.0000 -0.5500522238
O   O12       1.0  0.55080  0.56788  0.34520  1.0000 -0.5500522238
O   O13       1.0  0.49700  0.83025  0.71470  1.0000 -0.5421369604
O   O14       1.0  0.50300  0.33025  0.78530  1.0000 -0.5421369604
O   O15       1.0  0.50300  0.16975  0.28530  1.0000 -0.5421369604
O   O16       1.0  0.49700  0.66975  0.21470  1.0000 -0.5421369604
O   O17       1.0  0.93700  0.67843  0.51370  1.0000 -0.5685758573
O   O18       1.0  0.06300  0.17843  0.98630  1.0000 -0.5685758573
O   O19       1.0  0.06300  0.32157  0.48630  1.0000 -0.5685758573
O   O20       1.0  0.93700  0.82157  0.01370  1.0000 -0.5685758573
O   O21       1.0  0.71540  0.73750  0.50220  1.0000 -0.5500522238
O   O22       1.0  0.28460  0.23750  0.99780  1.0000 -0.5500522238
O   O23       1.0  0.28460  0.26250  0.49780  1.0000 -0.5500522238
O   O24       1.0  0.71540  0.76250  0.00220  1.0000 -0.5500522238
