# DDEC6 charges by PACMAN v1.1 (https://github.com/mtap-research/PACMAN-charge/)
data_2006[Bi][dia]3[ION]1
_chemical_formula_sum              "Bi2 H8 C8 N2 O16"
_cell_length_a       9.46322
_cell_length_b       9.46322
_cell_length_c       9.46322
_cell_angle_alpha    103.833
_cell_angle_beta     103.833
_cell_angle_gamma    121.454

_symmetry_space_group_name_H-M    "P 1"
_symmetry_Int_Tables_number       1

loop_
  _symmetry_equiv_pos_as_xyz
  'x, y, z'

loop_
  _atom_site_type_symbol
  _atom_site_label
  _atom_site_symmetry_multiplicity
  _atom_site_fract_x
  _atom_site_fract_y
  _atom_site_fract_z
  _atom_site_occupancy
  _atom_site_charge
Bi  Bi1       1.0  0.25000  0.75000  0.50000  1.0000 1.5303615895
Bi  Bi2       1.0  0.00000  0.00000  0.00000  1.0000 1.5303615895
H   H1        1.0  0.80200  0.24240  0.44040  1.0000 0.1887391325
H   H2        1.0  0.80200  0.36160  0.55960  1.0000 0.1887391325
H   H3        1.0  0.75760  0.19800  0.55960  1.0000 0.1887391325
H   H4        1.0  0.63840  0.19800  0.44040  1.0000 0.1887391325
H   H5        1.0  0.61160  0.55200  0.05960  1.0000 0.1887391325
H   H6        1.0  0.44800  0.50760  0.05960  1.0000 0.1887391325
H   H7        1.0  0.49240  0.55200  0.94040  1.0000 0.1887391325
H   H8        1.0  0.44800  0.38840  0.94040  1.0000 0.1887391325
C   C1        1.0  0.02480  0.79880  0.22600  1.0000 0.4671851811
C   C2        1.0  0.20120  0.42720  0.22600  1.0000 0.4671851811
C   C3        1.0  0.04880  0.32280  0.27400  1.0000 0.4671851811
C   C4        1.0  0.04880  0.77480  0.72600  1.0000 0.4671851811
C   C5        1.0  0.67720  0.95120  0.72600  1.0000 0.4671851811
C   C6        1.0  0.57280  0.79880  0.77400  1.0000 0.4671851811
C   C7        1.0  0.22520  0.95120  0.27400  1.0000 0.4671851811
C   C8        1.0  0.20120  0.97520  0.77400  1.0000 0.4671851811
N   N1        1.0  0.75000  0.25000  0.50000  1.0000 -0.5446532402
N   N2        1.0  0.50000  0.50000  0.00000  1.0000 -0.5446532402
O   O1        1.0  0.99450  0.69790  0.29660  1.0000 -0.4708651896
O   O2        1.0  0.30210  0.59870  0.29660  1.0000 -0.4708651896
O   O3        1.0  0.94790  0.15130  0.20340  1.0000 -0.4708651896
O   O4        1.0  0.94790  0.74450  0.79660  1.0000 -0.4708651896
O   O5        1.0  0.84870  0.05210  0.79660  1.0000 -0.4708651896
O   O6        1.0  0.40130  0.69790  0.70340  1.0000 -0.4708651896
O   O7        1.0  0.25550  0.05210  0.20340  1.0000 -0.4708651896
O   O8        1.0  0.30210  0.00550  0.70340  1.0000 -0.4708651896
O   O9        1.0  0.90590  0.78570  0.12020  1.0000 -0.4314862113
O   O10       1.0  0.21430  0.33450  0.12020  1.0000 -0.4314862113
O   O11       1.0  0.03570  0.41550  0.37980  1.0000 -0.4314862113
O   O12       1.0  0.03570  0.65590  0.62020  1.0000 -0.4314862113
O   O13       1.0  0.58450  0.96430  0.62020  1.0000 -0.4314862113
O   O14       1.0  0.66550  0.78570  0.87980  1.0000 -0.4314862113
O   O15       1.0  0.34410  0.96430  0.37980  1.0000 -0.4314862113
O   O16       1.0  0.21430  0.09410  0.87980  1.0000 -0.4314862113
