# DDEC6 charges by PACMAN v1.1 (https://github.com/mtap-research/PACMAN-charge/)
data_2006[Co][bcg]3[ION]1
_chemical_formula_sum              "Co6 H80 C80 N4 O32"
_cell_length_a       17.3661
_cell_length_b       17.3661
_cell_length_c       18.296
_cell_angle_alpha    87.7462
_cell_angle_beta     92.2538
_cell_angle_gamma    147.105

_symmetry_space_group_name_H-M    "P 1"
_symmetry_Int_Tables_number       1

loop_
  _symmetry_equiv_pos_as_xyz
  'x, y, z'

loop_
  _atom_site_type_symbol
  _atom_site_label
  _atom_site_symmetry_multiplicity
  _atom_site_fract_x
  _atom_site_fract_y
  _atom_site_fract_z
  _atom_site_occupancy
  _atom_site_charge
Co  Co1       1.0  0.54713  0.85479  0.00173  1.0000 0.9614110314
Co  Co2       1.0  0.85479  0.54713  0.49827  1.0000 0.9614110314
Co  Co3       1.0  0.45287  0.14521  0.99827  1.0000 0.9614110314
Co  Co4       1.0  0.14521  0.45287  0.50173  1.0000 0.9614110314
Co  Co5       1.0  0.50000  0.00000  0.00000  1.0000 1.0430100881
Co  Co6       1.0  0.00000  0.50000  0.50000  1.0000 1.0430100881
H   H1        1.0  0.34660  0.41620  0.08680  1.0000 0.1198857686
H   H2        1.0  0.41620  0.34660  0.41320  1.0000 0.1198857686
H   H3        1.0  0.65340  0.58380  0.91320  1.0000 0.1198857686
H   H4        1.0  0.58380  0.65340  0.58680  1.0000 0.1198857686
H   H5        1.0  0.63240  0.69660  0.92850  1.0000 0.1198857686
H   H6        1.0  0.69660  0.63240  0.57150  1.0000 0.1198857686
H   H7        1.0  0.36760  0.30340  0.07150  1.0000 0.1198857686
H   H8        1.0  0.30340  0.36760  0.42850  1.0000 0.1198857686
H   H9        1.0  0.03940  0.47260  0.89090  1.0000 0.1087066828
H   H10       1.0  0.47260  0.03940  0.60910  1.0000 0.1087066828
H   H11       1.0  0.96060  0.52740  0.10910  1.0000 0.1087066828
H   H12       1.0  0.52740  0.96060  0.39090  1.0000 0.1087066828
H   H13       1.0  0.18900  0.68380  0.07870  1.0000 0.1198857686
H   H14       1.0  0.68380  0.18900  0.42130  1.0000 0.1198857686
H   H15       1.0  0.81100  0.31620  0.92130  1.0000 0.1198857686
H   H16       1.0  0.31620  0.81100  0.57870  1.0000 0.1198857686
H   H17       1.0  0.74170  0.00710  0.22370  1.0000 0.1198857686
H   H18       1.0  0.00710  0.74170  0.27630  1.0000 0.1198857686
H   H19       1.0  0.25830  0.99290  0.77630  1.0000 0.1198857686
H   H20       1.0  0.99290  0.25830  0.72370  1.0000 0.1198857686
H   H21       1.0  0.85720  0.12860  0.33310  1.0000 0.1198857686
H   H22       1.0  0.12860  0.85720  0.16690  1.0000 0.1198857686
H   H23       1.0  0.14280  0.87140  0.66690  1.0000 0.1198857686
H   H24       1.0  0.87140  0.14280  0.83310  1.0000 0.1198857686
H   H25       1.0  0.86940  0.36500  0.27520  1.0000 0.1289387797
H   H26       1.0  0.36500  0.86940  0.22480  1.0000 0.1289387797
H   H27       1.0  0.13060  0.63500  0.72480  1.0000 0.1289387797
H   H28       1.0  0.63500  0.13060  0.77520  1.0000 0.1289387797
H   H29       1.0  0.75960  0.24740  0.16430  1.0000 0.1198857686
H   H30       1.0  0.24740  0.75960  0.33570  1.0000 0.1198857686
H   H31       1.0  0.24040  0.75260  0.83570  1.0000 0.1198857686
H   H32       1.0  0.75260  0.24040  0.66430  1.0000 0.1198857686
H   H33       1.0  0.42300  0.64140  0.33060  1.0000 0.2729516351
H   H34       1.0  0.29700  0.58240  0.33730  1.0000 0.2862971374
H   H35       1.0  0.45410  0.77170  0.25660  1.0000 0.1010632911
H   H36       1.0  0.43630  0.68550  0.20740  1.0000 0.1087066828
H   H37       1.0  0.20890  0.52810  0.17830  1.0000 0.1415653053
H   H38       1.0  0.30120  0.68000  0.16580  1.0000 0.1415653053
H   H39       1.0  0.20920  0.59240  0.23630  1.0000 0.1289387797
H   H40       1.0  0.17380  0.39640  0.26100  1.0000 0.1010632911
H   H41       1.0  0.21630  0.39490  0.33780  1.0000 0.1087066828
H   H42       1.0  0.37010  0.50430  0.20830  1.0000 0.1415653053
H   H43       1.0  0.27940  0.36360  0.24770  1.0000 0.1289387797
H   H44       1.0  0.41850  0.51010  0.28490  1.0000 0.1289387797
H   H45       1.0  0.64140  0.42300  0.16940  1.0000 0.2729516351
H   H46       1.0  0.58240  0.29700  0.16270  1.0000 0.2862971374
H   H47       1.0  0.77170  0.45410  0.24340  1.0000 0.1010632911
H   H48       1.0  0.68550  0.43630  0.29260  1.0000 0.1087066828
H   H49       1.0  0.52810  0.20890  0.32170  1.0000 0.1415653053
H   H50       1.0  0.68000  0.30120  0.33420  1.0000 0.1415653053
H   H51       1.0  0.59240  0.20920  0.26370  1.0000 0.1289387797
H   H52       1.0  0.39640  0.17380  0.23900  1.0000 0.1010632911
H   H53       1.0  0.39490  0.21630  0.16220  1.0000 0.1087066828
H   H54       1.0  0.50430  0.37010  0.29170  1.0000 0.1415653053
H   H55       1.0  0.36360  0.27940  0.25230  1.0000 0.1289387797
H   H56       1.0  0.51010  0.41850  0.21510  1.0000 0.1289387797
H   H57       1.0  0.57700  0.35860  0.66940  1.0000 0.2729516351
H   H58       1.0  0.70300  0.41760  0.66270  1.0000 0.2862971374
H   H59       1.0  0.54590  0.22830  0.74340  1.0000 0.1010632911
H   H60       1.0  0.56370  0.31450  0.79260  1.0000 0.1087066828
H   H61       1.0  0.79110  0.47190  0.82170  1.0000 0.1415653053
H   H62       1.0  0.69880  0.32000  0.83420  1.0000 0.1415653053
H   H63       1.0  0.79080  0.40760  0.76370  1.0000 0.1289387797
H   H64       1.0  0.82620  0.60360  0.73900  1.0000 0.1010632911
H   H65       1.0  0.78370  0.60510  0.66220  1.0000 0.1087066828
H   H66       1.0  0.62990  0.49570  0.79170  1.0000 0.1415653053
H   H67       1.0  0.72060  0.63640  0.75230  1.0000 0.1289387797
H   H68       1.0  0.58150  0.48990  0.71510  1.0000 0.1289387797
H   H69       1.0  0.35860  0.57700  0.83060  1.0000 0.2729516351
H   H70       1.0  0.41760  0.70300  0.83730  1.0000 0.2862971374
H   H71       1.0  0.22830  0.54590  0.75660  1.0000 0.1010632911
H   H72       1.0  0.31450  0.56370  0.70740  1.0000 0.1087066828
H   H73       1.0  0.47190  0.79110  0.67830  1.0000 0.1415653053
H   H74       1.0  0.32000  0.69880  0.66580  1.0000 0.1415653053
H   H75       1.0  0.40760  0.79080  0.73630  1.0000 0.1289387797
H   H76       1.0  0.60360  0.82620  0.76100  1.0000 0.1010632911
H   H77       1.0  0.60510  0.78370  0.83780  1.0000 0.1087066828
H   H78       1.0  0.49570  0.62990  0.70830  1.0000 0.1415653053
H   H79       1.0  0.63640  0.72060  0.74770  1.0000 0.1289387797
H   H80       1.0  0.48990  0.58150  0.78490  1.0000 0.1289387797
C   C1        1.0  0.47380  0.64260  0.02009  1.0000 0.5428087437
C   C2        1.0  0.64260  0.47380  0.47991  1.0000 0.5428087437
C   C3        1.0  0.52620  0.35740  0.97991  1.0000 0.5428087437
C   C4        1.0  0.35740  0.52620  0.52009  1.0000 0.5428087437
C   C5        1.0  0.48684  0.56876  0.00916  1.0000 -0.0179622496
C   C6        1.0  0.56876  0.48684  0.49084  1.0000 -0.0179622496
C   C7        1.0  0.51316  0.43124  0.99084  1.0000 -0.0179622496
C   C8        1.0  0.43124  0.51316  0.50916  1.0000 -0.0179622496
C   C9        1.0  0.40814  0.45006  0.05193  1.0000 -0.1203817317
C   C10       1.0  0.45006  0.40814  0.44807  1.0000 -0.1203817317
C   C11       1.0  0.59186  0.54994  0.94807  1.0000 -0.1203817317
C   C12       1.0  0.54994  0.59186  0.55193  1.0000 -0.1203817317
C   C13       1.0  0.57906  0.61754  0.95726  1.0000 -0.1089884951
C   C14       1.0  0.61754  0.57906  0.54274  1.0000 -0.1089884951
C   C15       1.0  0.42094  0.38246  0.04274  1.0000 -0.1089884951
C   C16       1.0  0.38246  0.42094  0.45726  1.0000 -0.1089884951
C   C17       1.0  0.28331  0.69089  0.96292  1.0000 0.5800027945
C   C18       1.0  0.69089  0.28331  0.53708  1.0000 0.5800027945
C   C19       1.0  0.71669  0.30911  0.03708  1.0000 0.5800027945
C   C20       1.0  0.30911  0.71669  0.46292  1.0000 0.5800027945
C   C21       1.0  0.13742  0.59378  0.98194  1.0000 -0.0179622496
C   C22       1.0  0.59378  0.13742  0.51806  1.0000 -0.0179622496
C   C23       1.0  0.86258  0.40622  0.01806  1.0000 -0.0179622496
C   C24       1.0  0.40622  0.86258  0.48194  1.0000 -0.0179622496
C   C25       1.0  0.02344  0.48336  0.93456  1.0000 -0.1089884951
C   C26       1.0  0.48336  0.02344  0.56544  1.0000 -0.1089884951
C   C27       1.0  0.97656  0.51664  0.06544  1.0000 -0.1089884951
C   C28       1.0  0.51664  0.97656  0.43456  1.0000 -0.1089884951
C   C29       1.0  0.11349  0.61031  0.04732  1.0000 -0.0886240355
C   C30       1.0  0.61031  0.11349  0.45268  1.0000 -0.0886240355
C   C31       1.0  0.88651  0.38969  0.95268  1.0000 -0.0886240355
C   C32       1.0  0.38969  0.88651  0.54732  1.0000 -0.0886240355
C   C33       1.0  0.67457  0.04483  0.10964  1.0000 0.5899967872
C   C34       1.0  0.04483  0.67457  0.39036  1.0000 0.5899967872
C   C35       1.0  0.32543  0.95517  0.89036  1.0000 0.5899967872
C   C36       1.0  0.95517  0.32543  0.60964  1.0000 0.5899967872
C   C37       1.0  0.74216  0.11764  0.18228  1.0000 -0.0179622496
C   C38       1.0  0.11764  0.74216  0.31772  1.0000 -0.0179622496
C   C39       1.0  0.25784  0.88236  0.81772  1.0000 -0.0179622496
C   C40       1.0  0.88236  0.25784  0.68228  1.0000 -0.0179622496
C   C41       1.0  0.76933  0.08027  0.23358  1.0000 -0.1203817317
C   C42       1.0  0.08027  0.76933  0.26642  1.0000 -0.1203817317
C   C43       1.0  0.23067  0.91973  0.76642  1.0000 -0.1203817317
C   C44       1.0  0.91973  0.23067  0.73358  1.0000 -0.1203817317
C   C45       1.0  0.83757  0.15223  0.29944  1.0000 -0.1203817317
C   C46       1.0  0.15223  0.83757  0.20056  1.0000 -0.1203817317
C   C47       1.0  0.16243  0.84777  0.70056  1.0000 -0.1203817317
C   C48       1.0  0.84777  0.16243  0.79944  1.0000 -0.1203817317
C   C49       1.0  0.87641  0.26019  0.31468  1.0000 -0.02975578
C   C50       1.0  0.26019  0.87641  0.18532  1.0000 -0.02975578
C   C51       1.0  0.12359  0.73981  0.68532  1.0000 -0.02975578
C   C52       1.0  0.73981  0.12359  0.81468  1.0000 -0.02975578
C   C53       1.0  0.84562  0.29478  0.26445  1.0000 -0.1089884951
C   C54       1.0  0.29478  0.84562  0.23555  1.0000 -0.1089884951
C   C55       1.0  0.15438  0.70522  0.73555  1.0000 -0.1089884951
C   C56       1.0  0.70522  0.15438  0.76445  1.0000 -0.1089884951
C   C57       1.0  0.77913  0.22367  0.19805  1.0000 -0.0953345276
C   C58       1.0  0.22367  0.77913  0.30195  1.0000 -0.0953345276
C   C59       1.0  0.22087  0.77633  0.80195  1.0000 -0.0953345276
C   C60       1.0  0.77633  0.22087  0.69805  1.0000 -0.0953345276
C   C61       1.0  0.95173  0.33987  0.38493  1.0000 0.5800027945
C   C62       1.0  0.33987  0.95173  0.11507  1.0000 0.5800027945
C   C63       1.0  0.04827  0.66013  0.61507  1.0000 0.5800027945
C   C64       1.0  0.66013  0.04827  0.88493  1.0000 0.5800027945
C   C65       1.0  0.38760  0.67700  0.24110  1.0000 -0.0179622496
C   C66       1.0  0.26585  0.61375  0.20190  1.0000 -0.407766459
C   C67       1.0  0.25343  0.44737  0.29210  1.0000 -0.0179622496
C   C68       1.0  0.33816  0.45724  0.25480  1.0000 -0.407766459
C   C69       1.0  0.67700  0.38760  0.25890  1.0000 -0.0179622496
C   C70       1.0  0.61375  0.26585  0.29810  1.0000 -0.407766459
C   C71       1.0  0.44737  0.25343  0.20790  1.0000 -0.0179622496
C   C72       1.0  0.45724  0.33816  0.24520  1.0000 -0.407766459
C   C73       1.0  0.61240  0.32300  0.75890  1.0000 -0.0179622496
C   C74       1.0  0.73415  0.38625  0.79810  1.0000 -0.407766459
C   C75       1.0  0.74657  0.55263  0.70790  1.0000 -0.0179622496
C   C76       1.0  0.66184  0.54276  0.74520  1.0000 -0.407766459
C   C77       1.0  0.32300  0.61240  0.74110  1.0000 -0.0179622496
C   C78       1.0  0.38625  0.73415  0.70190  1.0000 -0.407766459
C   C79       1.0  0.55263  0.74657  0.79210  1.0000 -0.0179622496
C   C80       1.0  0.54276  0.66184  0.75480  1.0000 -0.407766459
N   N1        1.0  0.34403  0.59177  0.30690  1.0000 -0.1974525726
N   N2        1.0  0.59177  0.34403  0.19310  1.0000 -0.1974525726
N   N3        1.0  0.65597  0.40823  0.69310  1.0000 -0.1974525726
N   N4        1.0  0.40823  0.65597  0.80690  1.0000 -0.1974525726
O   O1        1.0  0.54402  0.74538  0.97449  1.0000 -0.5701960824
O   O2        1.0  0.74538  0.54402  0.52551  1.0000 -0.5701960824
O   O3        1.0  0.45598  0.25462  0.02551  1.0000 -0.5701960824
O   O4        1.0  0.25462  0.45598  0.47449  1.0000 -0.5701960824
O   O5        1.0  0.40223  0.60757  0.07006  1.0000 -0.5407661176
O   O6        1.0  0.60757  0.40223  0.42994  1.0000 -0.5407661176
O   O7        1.0  0.59777  0.39243  0.92994  1.0000 -0.5407661176
O   O8        1.0  0.39243  0.59777  0.57006  1.0000 -0.5407661176
O   O9        1.0  0.38527  0.79233  0.00895  1.0000 -0.6161909974
O   O10       1.0  0.79233  0.38527  0.49105  1.0000 -0.6161909974
O   O11       1.0  0.61473  0.20767  0.99105  1.0000 -0.6161909974
O   O12       1.0  0.20767  0.61473  0.50895  1.0000 -0.6161909974
O   O13       1.0  0.30343  0.67077  0.90717  1.0000 -0.5600836949
O   O14       1.0  0.67077  0.30343  0.59283  1.0000 -0.5600836949
O   O15       1.0  0.69657  0.32923  0.09283  1.0000 -0.5600836949
O   O16       1.0  0.32923  0.69657  0.40717  1.0000 -0.5600836949
O   O17       1.0  0.63794  0.94466  0.09857  1.0000 -0.5407661176
O   O18       1.0  0.94466  0.63794  0.40143  1.0000 -0.5407661176
O   O19       1.0  0.36206  0.05534  0.90143  1.0000 -0.5407661176
O   O20       1.0  0.05534  0.36206  0.59857  1.0000 -0.5407661176
O   O21       1.0  0.66208  0.08932  0.06307  1.0000 -0.5701960824
O   O22       1.0  0.08932  0.66208  0.43693  1.0000 -0.5701960824
O   O23       1.0  0.33792  0.91068  0.93693  1.0000 -0.5701960824
O   O24       1.0  0.91068  0.33792  0.56307  1.0000 -0.5701960824
O   O25       1.0  0.00974  0.33146  0.41889  1.0000 -0.5600836949
O   O26       1.0  0.33146  0.00974  0.08111  1.0000 -0.5600836949
O   O27       1.0  0.99026  0.66854  0.58111  1.0000 -0.5600836949
O   O28       1.0  0.66854  0.99026  0.91889  1.0000 -0.5600836949
O   O29       1.0  0.95308  0.40992  0.40394  1.0000 -0.5600836949
O   O30       1.0  0.40992  0.95308  0.09606  1.0000 -0.5600836949
O   O31       1.0  0.04692  0.59008  0.59606  1.0000 -0.5600836949
O   O32       1.0  0.59008  0.04692  0.90394  1.0000 -0.5600836949
