# DDEC6 charges by PACMAN v1.1 (https://github.com/mtap-research/PACMAN-charge/)
data_2006[Zn][bcg]3[ION]2
_chemical_formula_sum              "Zn6 H80 C80 N4 O32"
_cell_length_a       17.3723
_cell_length_b       17.3723
_cell_length_c       18.1988
_cell_angle_alpha    87.5519
_cell_angle_beta     92.4481
_cell_angle_gamma    147.198

_symmetry_space_group_name_H-M    "P 1"
_symmetry_Int_Tables_number       1

loop_
  _symmetry_equiv_pos_as_xyz
  'x, y, z'

loop_
  _atom_site_type_symbol
  _atom_site_label
  _atom_site_symmetry_multiplicity
  _atom_site_fract_x
  _atom_site_fract_y
  _atom_site_fract_z
  _atom_site_occupancy
  _atom_site_charge
Zn  Zn1       1.0  0.54566  0.85252  0.00332  1.0000 0.9069589068
Zn  Zn2       1.0  0.85252  0.54566  0.49668  1.0000 0.9069589068
Zn  Zn3       1.0  0.45434  0.14748  0.99668  1.0000 0.9069589068
Zn  Zn4       1.0  0.14748  0.45434  0.50332  1.0000 0.9069589068
Zn  Zn5       1.0  0.50000  0.00000  0.00000  1.0000 0.9840042283
Zn  Zn6       1.0  0.00000  0.50000  0.50000  1.0000 0.9840042283
H   H1        1.0  0.34420  0.41260  0.08640  1.0000 0.119940956
H   H2        1.0  0.41260  0.34420  0.41360  1.0000 0.119940956
H   H3        1.0  0.65580  0.58740  0.91360  1.0000 0.119940956
H   H4        1.0  0.58740  0.65580  0.58640  1.0000 0.119940956
H   H5        1.0  0.63050  0.69690  0.92880  1.0000 0.1098814089
H   H6        1.0  0.69690  0.63050  0.57120  1.0000 0.1098814089
H   H7        1.0  0.36950  0.30310  0.07120  1.0000 0.1098814089
H   H8        1.0  0.30310  0.36950  0.42880  1.0000 0.1098814089
H   H9        1.0  0.03820  0.47080  0.89100  1.0000 0.1098814089
H   H10       1.0  0.47080  0.03820  0.60900  1.0000 0.1098814089
H   H11       1.0  0.96180  0.52920  0.10900  1.0000 0.1098814089
H   H12       1.0  0.52920  0.96180  0.39100  1.0000 0.1098814089
H   H13       1.0  0.18930  0.68330  0.07870  1.0000 0.119940956
H   H14       1.0  0.68330  0.18930  0.42130  1.0000 0.119940956
H   H15       1.0  0.81070  0.31670  0.92130  1.0000 0.119940956
H   H16       1.0  0.31670  0.81070  0.57870  1.0000 0.119940956
H   H17       1.0  0.74000  0.00640  0.22490  1.0000 0.119940956
H   H18       1.0  0.00640  0.74000  0.27510  1.0000 0.119940956
H   H19       1.0  0.26000  0.99360  0.77510  1.0000 0.119940956
H   H20       1.0  0.99360  0.26000  0.72490  1.0000 0.119940956
H   H21       1.0  0.85680  0.12840  0.33430  1.0000 0.119940956
H   H22       1.0  0.12840  0.85680  0.16570  1.0000 0.119940956
H   H23       1.0  0.14320  0.87160  0.66570  1.0000 0.119940956
H   H24       1.0  0.87160  0.14320  0.83430  1.0000 0.119940956
H   H25       1.0  0.87240  0.36640  0.27560  1.0000 0.1281174448
H   H26       1.0  0.36640  0.87240  0.22440  1.0000 0.1281174448
H   H27       1.0  0.12760  0.63360  0.72440  1.0000 0.1281174448
H   H28       1.0  0.63360  0.12760  0.77560  1.0000 0.1281174448
H   H29       1.0  0.76050  0.24870  0.16520  1.0000 0.119940956
H   H30       1.0  0.24870  0.76050  0.33480  1.0000 0.119940956
H   H31       1.0  0.23950  0.75130  0.83480  1.0000 0.119940956
H   H32       1.0  0.75130  0.23950  0.66520  1.0000 0.119940956
H   H33       1.0  0.42390  0.64250  0.33090  1.0000 0.272630005
H   H34       1.0  0.29770  0.58330  0.33760  1.0000 0.2853833278
H   H35       1.0  0.43610  0.68570  0.20710  1.0000 0.1098814089
H   H36       1.0  0.45510  0.77270  0.25660  1.0000 0.1010893405
H   H37       1.0  0.20510  0.52550  0.18040  1.0000 0.1406900053
H   H38       1.0  0.30040  0.67820  0.16390  1.0000 0.1406900053
H   H39       1.0  0.21180  0.59720  0.23630  1.0000 0.1281174448
H   H40       1.0  0.17450  0.39770  0.26120  1.0000 0.1010893405
H   H41       1.0  0.21650  0.39610  0.33860  1.0000 0.1098814089
H   H42       1.0  0.37370  0.50730  0.20980  1.0000 0.1406900053
H   H43       1.0  0.27600  0.36200  0.24680  1.0000 0.1281174448
H   H44       1.0  0.41500  0.50480  0.28720  1.0000 0.1281174448
H   H45       1.0  0.64250  0.42390  0.16910  1.0000 0.272630005
H   H46       1.0  0.58330  0.29770  0.16240  1.0000 0.2853833278
H   H47       1.0  0.68570  0.43610  0.29290  1.0000 0.1098814089
H   H48       1.0  0.77270  0.45510  0.24340  1.0000 0.1010893405
H   H49       1.0  0.52550  0.20510  0.31960  1.0000 0.1406900053
H   H50       1.0  0.67820  0.30040  0.33610  1.0000 0.1406900053
H   H51       1.0  0.59720  0.21180  0.26370  1.0000 0.1281174448
H   H52       1.0  0.39770  0.17450  0.23880  1.0000 0.1010893405
H   H53       1.0  0.39610  0.21650  0.16140  1.0000 0.1098814089
H   H54       1.0  0.50730  0.37370  0.29020  1.0000 0.1406900053
H   H55       1.0  0.36200  0.27600  0.25320  1.0000 0.1281174448
H   H56       1.0  0.50480  0.41500  0.21280  1.0000 0.1281174448
H   H57       1.0  0.57610  0.35750  0.66910  1.0000 0.272630005
H   H58       1.0  0.70230  0.41670  0.66240  1.0000 0.2853833278
H   H59       1.0  0.56390  0.31430  0.79290  1.0000 0.1098814089
H   H60       1.0  0.54490  0.22730  0.74340  1.0000 0.1010893405
H   H61       1.0  0.79490  0.47450  0.81960  1.0000 0.1406900053
H   H62       1.0  0.69960  0.32180  0.83610  1.0000 0.1406900053
H   H63       1.0  0.78820  0.40280  0.76370  1.0000 0.1281174448
H   H64       1.0  0.82550  0.60230  0.73880  1.0000 0.1010893405
H   H65       1.0  0.78350  0.60390  0.66140  1.0000 0.1098814089
H   H66       1.0  0.62630  0.49270  0.79020  1.0000 0.1406900053
H   H67       1.0  0.72400  0.63800  0.75320  1.0000 0.1281174448
H   H68       1.0  0.58500  0.49520  0.71280  1.0000 0.1281174448
H   H69       1.0  0.35750  0.57610  0.83090  1.0000 0.272630005
H   H70       1.0  0.41670  0.70230  0.83760  1.0000 0.2853833278
H   H71       1.0  0.31430  0.56390  0.70710  1.0000 0.1098814089
H   H72       1.0  0.22730  0.54490  0.75660  1.0000 0.1010893405
H   H73       1.0  0.47450  0.79490  0.68040  1.0000 0.1406900053
H   H74       1.0  0.32180  0.69960  0.66390  1.0000 0.1406900053
H   H75       1.0  0.40280  0.78820  0.73630  1.0000 0.1281174448
H   H76       1.0  0.60230  0.82550  0.76120  1.0000 0.1010893405
H   H77       1.0  0.60390  0.78350  0.83860  1.0000 0.1098814089
H   H78       1.0  0.49270  0.62630  0.70980  1.0000 0.1406900053
H   H79       1.0  0.63800  0.72400  0.74680  1.0000 0.1281174448
H   H80       1.0  0.49520  0.58500  0.78720  1.0000 0.1281174448
C   C1        1.0  0.47137  0.64003  0.02107  1.0000 0.5457602431
C   C2        1.0  0.64003  0.47137  0.47893  1.0000 0.5457602431
C   C3        1.0  0.52863  0.35997  0.97893  1.0000 0.5457602431
C   C4        1.0  0.35997  0.52863  0.52107  1.0000 0.5457602431
C   C5        1.0  0.48579  0.56701  0.00995  1.0000 -0.0182246752
C   C6        1.0  0.56701  0.48579  0.49005  1.0000 -0.0182246752
C   C7        1.0  0.51421  0.43299  0.99005  1.0000 -0.0182246752
C   C8        1.0  0.43299  0.51421  0.50995  1.0000 -0.0182246752
C   C9        1.0  0.40721  0.44819  0.05179  1.0000 -0.117681572
C   C10       1.0  0.44819  0.40721  0.44821  1.0000 -0.117681572
C   C11       1.0  0.59279  0.55181  0.94821  1.0000 -0.117681572
C   C12       1.0  0.55181  0.59279  0.55179  1.0000 -0.117681572
C   C13       1.0  0.57822  0.61798  0.95760  1.0000 -0.1097970169
C   C14       1.0  0.61798  0.57822  0.54240  1.0000 -0.1097970169
C   C15       1.0  0.42178  0.38202  0.04240  1.0000 -0.1097970169
C   C16       1.0  0.38202  0.42178  0.45760  1.0000 -0.1097970169
C   C17       1.0  0.28238  0.68942  0.96227  1.0000 0.5744220902
C   C18       1.0  0.68942  0.28238  0.53773  1.0000 0.5744220902
C   C19       1.0  0.71762  0.31058  0.03773  1.0000 0.5744220902
C   C20       1.0  0.31058  0.71762  0.46227  1.0000 0.5744220902
C   C21       1.0  0.13705  0.59315  0.98185  1.0000 -0.0182246752
C   C22       1.0  0.59315  0.13705  0.51815  1.0000 -0.0182246752
C   C23       1.0  0.86295  0.40685  0.01815  1.0000 -0.0182246752
C   C24       1.0  0.40685  0.86295  0.48185  1.0000 -0.0182246752
C   C25       1.0  0.02279  0.48241  0.93456  1.0000 -0.1097970169
C   C26       1.0  0.48241  0.02279  0.56544  1.0000 -0.1097970169
C   C27       1.0  0.97721  0.51759  0.06544  1.0000 -0.1097970169
C   C28       1.0  0.51759  0.97721  0.43456  1.0000 -0.1097970169
C   C29       1.0  0.11347  0.60993  0.04718  1.0000 -0.0939296047
C   C30       1.0  0.60993  0.11347  0.45282  1.0000 -0.0939296047
C   C31       1.0  0.88653  0.39007  0.95282  1.0000 -0.0939296047
C   C32       1.0  0.39007  0.88653  0.54718  1.0000 -0.0939296047
C   C33       1.0  0.67470  0.04570  0.10984  1.0000 0.5860005309
C   C34       1.0  0.04570  0.67470  0.39016  1.0000 0.5860005309
C   C35       1.0  0.32530  0.95430  0.89016  1.0000 0.5860005309
C   C36       1.0  0.95430  0.32530  0.60984  1.0000 0.5860005309
C   C37       1.0  0.74218  0.11782  0.18305  1.0000 -0.0140011284
C   C38       1.0  0.11782  0.74218  0.31695  1.0000 -0.0140011284
C   C39       1.0  0.25782  0.88218  0.81695  1.0000 -0.0140011284
C   C40       1.0  0.88218  0.25782  0.68305  1.0000 -0.0140011284
C   C41       1.0  0.76850  0.08010  0.23465  1.0000 -0.117681572
C   C42       1.0  0.08010  0.76850  0.26535  1.0000 -0.117681572
C   C43       1.0  0.23150  0.91990  0.76535  1.0000 -0.117681572
C   C44       1.0  0.91990  0.23150  0.73465  1.0000 -0.117681572
C   C45       1.0  0.83709  0.15211  0.30047  1.0000 -0.117681572
C   C46       1.0  0.15211  0.83709  0.19953  1.0000 -0.117681572
C   C47       1.0  0.16291  0.84789  0.69953  1.0000 -0.117681572
C   C48       1.0  0.84789  0.16291  0.80047  1.0000 -0.117681572
C   C49       1.0  0.87659  0.26041  0.31577  1.0000 -0.0278203125
C   C50       1.0  0.26041  0.87659  0.18423  1.0000 -0.0278203125
C   C51       1.0  0.12341  0.73959  0.68423  1.0000 -0.0278203125
C   C52       1.0  0.73959  0.12341  0.81577  1.0000 -0.0278203125
C   C53       1.0  0.84702  0.29498  0.26514  1.0000 -0.1097970169
C   C54       1.0  0.29498  0.84702  0.23486  1.0000 -0.1097970169
C   C55       1.0  0.15298  0.70502  0.73486  1.0000 -0.1097970169
C   C56       1.0  0.70502  0.15298  0.76514  1.0000 -0.1097970169
C   C57       1.0  0.78013  0.22467  0.19895  1.0000 -0.1006442523
C   C58       1.0  0.22467  0.78013  0.30105  1.0000 -0.1006442523
C   C59       1.0  0.21987  0.77533  0.80105  1.0000 -0.1006442523
C   C60       1.0  0.77533  0.21987  0.69895  1.0000 -0.1006442523
C   C61       1.0  0.95263  0.34077  0.38642  1.0000 0.5798849155
C   C62       1.0  0.34077  0.95263  0.11358  1.0000 0.5798849155
C   C63       1.0  0.04737  0.65923  0.61358  1.0000 0.5798849155
C   C64       1.0  0.65923  0.04737  0.88642  1.0000 0.5798849155
C   C65       1.0  0.38802  0.67758  0.24117  1.0000 -0.0182246752
C   C66       1.0  0.26529  0.61391  0.20191  1.0000 -0.4098218541
C   C67       1.0  0.25419  0.44861  0.29256  1.0000 -0.0182246752
C   C68       1.0  0.33741  0.45639  0.25571  1.0000 -0.4098218541
C   C69       1.0  0.67758  0.38802  0.25883  1.0000 -0.0182246752
C   C70       1.0  0.61391  0.26529  0.29809  1.0000 -0.4098218541
C   C71       1.0  0.44861  0.25419  0.20744  1.0000 -0.0182246752
C   C72       1.0  0.45639  0.33741  0.24429  1.0000 -0.4098218541
C   C73       1.0  0.61198  0.32242  0.75883  1.0000 -0.0182246752
C   C74       1.0  0.73471  0.38609  0.79809  1.0000 -0.4098218541
C   C75       1.0  0.74581  0.55139  0.70744  1.0000 -0.0182246752
C   C76       1.0  0.66259  0.54361  0.74429  1.0000 -0.4098218541
C   C77       1.0  0.32242  0.61198  0.74117  1.0000 -0.0182246752
C   C78       1.0  0.38609  0.73471  0.70191  1.0000 -0.4098218541
C   C79       1.0  0.55139  0.74581  0.79256  1.0000 -0.0182246752
C   C80       1.0  0.54361  0.66259  0.75571  1.0000 -0.4098218541
N   N1        1.0  0.34474  0.59266  0.30707  1.0000 -0.1973839562
N   N2        1.0  0.59266  0.34474  0.19293  1.0000 -0.1973839562
N   N3        1.0  0.65526  0.40734  0.69293  1.0000 -0.1973839562
N   N4        1.0  0.40734  0.65526  0.80707  1.0000 -0.1973839562
O   O1        1.0  0.54181  0.74339  0.97575  1.0000 -0.5617580722
O   O2        1.0  0.74339  0.54181  0.52425  1.0000 -0.5617580722
O   O3        1.0  0.45819  0.25661  0.02425  1.0000 -0.5617580722
O   O4        1.0  0.25661  0.45819  0.47575  1.0000 -0.5617580722
O   O5        1.0  0.39940  0.60340  0.07144  1.0000 -0.5330993841
O   O6        1.0  0.60340  0.39940  0.42856  1.0000 -0.5330993841
O   O7        1.0  0.60060  0.39660  0.92856  1.0000 -0.5330993841
O   O8        1.0  0.39660  0.60060  0.57144  1.0000 -0.5330993841
O   O9        1.0  0.38468  0.79072  0.00799  1.0000 -0.5964637707
O   O10       1.0  0.79072  0.38468  0.49201  1.0000 -0.5964637707
O   O11       1.0  0.61532  0.20928  0.99201  1.0000 -0.5964637707
O   O12       1.0  0.20928  0.61532  0.50799  1.0000 -0.5964637707
O   O13       1.0  0.29951  0.66649  0.90664  1.0000 -0.5484388879
O   O14       1.0  0.66649  0.29951  0.59336  1.0000 -0.5484388879
O   O15       1.0  0.70049  0.33351  0.09336  1.0000 -0.5484388879
O   O16       1.0  0.33351  0.70049  0.40664  1.0000 -0.5484388879
O   O17       1.0  0.63562  0.94378  0.09958  1.0000 -0.5330993841
O   O18       1.0  0.94378  0.63562  0.40042  1.0000 -0.5330993841
O   O19       1.0  0.36438  0.05622  0.90042  1.0000 -0.5330993841
O   O20       1.0  0.05622  0.36438  0.59958  1.0000 -0.5330993841
O   O21       1.0  0.33722  0.90938  0.93629  1.0000 -0.5484388879
O   O22       1.0  0.90938  0.33722  0.56371  1.0000 -0.5484388879
O   O23       1.0  0.66278  0.09062  0.06371  1.0000 -0.5484388879
O   O24       1.0  0.09062  0.66278  0.43629  1.0000 -0.5484388879
O   O25       1.0  0.00878  0.33102  0.42118  1.0000 -0.5404963206
O   O26       1.0  0.33102  0.00878  0.07882  1.0000 -0.5404963206
O   O27       1.0  0.99122  0.66898  0.57882  1.0000 -0.5404963206
O   O28       1.0  0.66898  0.99122  0.92118  1.0000 -0.5404963206
O   O29       1.0  0.95462  0.41130  0.40431  1.0000 -0.5484388879
O   O30       1.0  0.41130  0.95462  0.09569  1.0000 -0.5484388879
O   O31       1.0  0.04538  0.58870  0.59569  1.0000 -0.5484388879
O   O32       1.0  0.58870  0.04538  0.90431  1.0000 -0.5484388879
