# DDEC6 charges by PACMAN v1.1 (https://github.com/mtap-research/PACMAN-charge/)
data_2006[Zn][bcg]3[ION]5
_chemical_formula_sum              "Zn6 H80 C80 N4 O32"
_cell_length_a       17.3953
_cell_length_b       17.3953
_cell_length_c       18.1967
_cell_angle_alpha    87.6451
_cell_angle_beta     92.3549
_cell_angle_gamma    147.169

_symmetry_space_group_name_H-M    "P 1"
_symmetry_Int_Tables_number       1

loop_
  _symmetry_equiv_pos_as_xyz
  'x, y, z'

loop_
  _atom_site_type_symbol
  _atom_site_label
  _atom_site_symmetry_multiplicity
  _atom_site_fract_x
  _atom_site_fract_y
  _atom_site_fract_z
  _atom_site_occupancy
  _atom_site_charge
Zn  Zn1       1.0  0.14794  0.45460  0.00346  1.0000 0.9086654408
Zn  Zn2       1.0  0.45460  0.14794  0.49654  1.0000 0.9086654408
Zn  Zn3       1.0  0.85206  0.54540  0.99654  1.0000 0.9086654408
Zn  Zn4       1.0  0.54540  0.85206  0.50346  1.0000 0.9086654408
Zn  Zn5       1.0  0.00000  0.50000  0.00000  1.0000 0.9936933739
Zn  Zn6       1.0  0.50000  0.00000  0.50000  1.0000 0.9936933739
H   H1        1.0  0.87150  0.36630  0.77530  1.0000 0.1278544401
H   H2        1.0  0.36630  0.87150  0.72470  1.0000 0.1278544401
H   H3        1.0  0.12850  0.63370  0.22470  1.0000 0.1278544401
H   H4        1.0  0.63370  0.12850  0.27530  1.0000 0.1278544401
H   H5        1.0  0.76050  0.24830  0.66520  1.0000 0.1197649586
H   H6        1.0  0.24830  0.76050  0.83480  1.0000 0.1197649586
H   H7        1.0  0.23950  0.75170  0.33480  1.0000 0.1197649586
H   H8        1.0  0.75170  0.23950  0.16520  1.0000 0.1197649586
H   H9        1.0  0.74290  0.00950  0.72420  1.0000 0.1197649586
H   H10       1.0  0.00950  0.74290  0.77580  1.0000 0.1197649586
H   H11       1.0  0.25710  0.99050  0.27580  1.0000 0.1197649586
H   H12       1.0  0.99050  0.25710  0.22420  1.0000 0.1197649586
H   H13       1.0  0.85950  0.13150  0.83310  1.0000 0.1197649586
H   H14       1.0  0.13150  0.85950  0.66690  1.0000 0.1197649586
H   H15       1.0  0.14050  0.86850  0.16690  1.0000 0.1197649586
H   H16       1.0  0.86850  0.14050  0.33310  1.0000 0.1197649586
H   H17       1.0  0.52940  0.96180  0.89150  1.0000 0.1081554786
H   H18       1.0  0.96180  0.52940  0.60850  1.0000 0.1081554786
H   H19       1.0  0.47060  0.03820  0.10850  1.0000 0.1081554786
H   H20       1.0  0.03820  0.47060  0.39150  1.0000 0.1081554786
H   H21       1.0  0.31820  0.81180  0.07900  1.0000 0.1197649586
H   H22       1.0  0.81180  0.31820  0.42100  1.0000 0.1197649586
H   H23       1.0  0.68180  0.18820  0.92100  1.0000 0.1197649586
H   H24       1.0  0.18820  0.68180  0.57900  1.0000 0.1197649586
H   H25       1.0  0.30030  0.36450  0.93110  1.0000 0.1197649586
H   H26       1.0  0.36450  0.30030  0.56890  1.0000 0.1197649586
H   H27       1.0  0.69970  0.63550  0.06890  1.0000 0.1197649586
H   H28       1.0  0.63550  0.69970  0.43110  1.0000 0.1197649586
H   H29       1.0  0.58660  0.65600  0.08510  1.0000 0.1197649586
H   H30       1.0  0.65600  0.58660  0.41490  1.0000 0.1197649586
H   H31       1.0  0.41340  0.34400  0.91490  1.0000 0.1197649586
H   H32       1.0  0.34400  0.41340  0.58510  1.0000 0.1197649586
H   H33       1.0  0.41650  0.70050  0.33880  1.0000 0.2873368336
H   H34       1.0  0.35590  0.57370  0.33070  1.0000 0.2750940544
H   H35       1.0  0.60250  0.78010  0.33900  1.0000 0.1081554786
H   H36       1.0  0.60150  0.82270  0.26170  1.0000 0.1014481242
H   H37       1.0  0.63440  0.71960  0.24690  1.0000 0.1278544401
H   H38       1.0  0.48880  0.62240  0.21080  1.0000 0.1396999829
H   H39       1.0  0.49250  0.58210  0.28800  1.0000 0.1278544401
H   H40       1.0  0.31720  0.56700  0.20710  1.0000 0.1014481242
H   H41       1.0  0.22900  0.54600  0.25710  1.0000 0.1014481242
H   H42       1.0  0.32970  0.70290  0.16260  1.0000 0.1396999829
H   H43       1.0  0.48130  0.80290  0.18860  1.0000 0.1396999829
H   H44       1.0  0.39190  0.78070  0.23800  1.0000 0.1278544401
H   H45       1.0  0.70050  0.41650  0.16120  1.0000 0.2873368336
H   H46       1.0  0.57370  0.35590  0.16930  1.0000 0.2748367411
H   H47       1.0  0.78010  0.60250  0.16100  1.0000 0.1081554786
H   H48       1.0  0.82270  0.60150  0.23830  1.0000 0.1014481242
H   H49       1.0  0.71960  0.63440  0.25310  1.0000 0.1278544401
H   H50       1.0  0.62240  0.48880  0.28920  1.0000 0.1396999829
H   H51       1.0  0.58210  0.49250  0.21200  1.0000 0.1278544401
H   H52       1.0  0.56700  0.31720  0.29290  1.0000 0.1081554786
H   H53       1.0  0.54600  0.22900  0.24290  1.0000 0.1014481242
H   H54       1.0  0.70290  0.32970  0.33740  1.0000 0.1396999829
H   H55       1.0  0.80290  0.48130  0.31140  1.0000 0.1396999829
H   H56       1.0  0.78070  0.39190  0.26200  1.0000 0.1278544401
H   H57       1.0  0.58350  0.29950  0.66120  1.0000 0.2873368336
H   H58       1.0  0.64410  0.42630  0.66930  1.0000 0.2748367411
H   H59       1.0  0.39750  0.21990  0.66100  1.0000 0.1081554786
H   H60       1.0  0.39850  0.17730  0.73830  1.0000 0.1014481242
H   H61       1.0  0.36560  0.28040  0.75310  1.0000 0.1278544401
H   H62       1.0  0.51120  0.37760  0.78920  1.0000 0.1396999829
H   H63       1.0  0.50750  0.41790  0.71200  1.0000 0.1278544401
H   H64       1.0  0.68280  0.43300  0.79290  1.0000 0.1081554786
H   H65       1.0  0.77100  0.45400  0.74290  1.0000 0.1014481242
H   H66       1.0  0.67030  0.29710  0.83740  1.0000 0.1396999829
H   H67       1.0  0.51870  0.19710  0.81140  1.0000 0.1396999829
H   H68       1.0  0.60810  0.21930  0.76200  1.0000 0.1278544401
H   H69       1.0  0.29950  0.58350  0.83880  1.0000 0.2873368336
H   H70       1.0  0.42630  0.64410  0.83070  1.0000 0.2748367411
H   H71       1.0  0.21990  0.39750  0.83900  1.0000 0.1081554786
H   H72       1.0  0.17730  0.39850  0.76170  1.0000 0.1014481242
H   H73       1.0  0.28040  0.36560  0.74690  1.0000 0.1278544401
H   H74       1.0  0.37760  0.51120  0.71080  1.0000 0.1396999829
H   H75       1.0  0.41790  0.50750  0.78800  1.0000 0.1278544401
H   H76       1.0  0.43300  0.68280  0.70710  1.0000 0.1081554786
H   H77       1.0  0.45400  0.77100  0.75710  1.0000 0.1014481242
H   H78       1.0  0.29710  0.67030  0.66260  1.0000 0.1396999829
H   H79       1.0  0.19710  0.51870  0.68860  1.0000 0.1396999829
H   H80       1.0  0.21930  0.60810  0.73800  1.0000 0.1278544401
C   C1        1.0  0.95417  0.34203  0.88590  1.0000 0.5791828258
C   C2        1.0  0.34203  0.95417  0.61410  1.0000 0.5791828258
C   C3        1.0  0.04583  0.65797  0.11410  1.0000 0.5791828258
C   C4        1.0  0.65797  0.04583  0.38590  1.0000 0.5791828258
C   C5        1.0  0.87810  0.26190  0.81519  1.0000 -0.0281425084
C   C6        1.0  0.26190  0.87810  0.68481  1.0000 -0.0281425084
C   C7        1.0  0.12190  0.73810  0.18481  1.0000 -0.0281425084
C   C8        1.0  0.73810  0.12190  0.31519  1.0000 -0.0281425084
C   C9        1.0  0.84709  0.29551  0.76477  1.0000 -0.1105612854
C   C10       1.0  0.29551  0.84709  0.73523  1.0000 -0.1105612854
C   C11       1.0  0.15291  0.70449  0.23523  1.0000 -0.1105612854
C   C12       1.0  0.70449  0.15291  0.26477  1.0000 -0.1105612854
C   C13       1.0  0.78032  0.22468  0.69897  1.0000 -0.0993526767
C   C14       1.0  0.22468  0.78032  0.80103  1.0000 -0.0993526767
C   C15       1.0  0.21968  0.77532  0.30103  1.0000 -0.0993526767
C   C16       1.0  0.77532  0.21968  0.19897  1.0000 -0.0993526767
C   C17       1.0  0.74251  0.11849  0.68285  1.0000 -0.0198223115
C   C18       1.0  0.11849  0.74251  0.81715  1.0000 -0.0198223115
C   C19       1.0  0.25749  0.88151  0.31715  1.0000 -0.0198223115
C   C20       1.0  0.88151  0.25749  0.18285  1.0000 -0.0198223115
C   C21       1.0  0.77047  0.08253  0.73402  1.0000 -0.1169057565
C   C22       1.0  0.08253  0.77047  0.76598  1.0000 -0.1169057565
C   C23       1.0  0.22953  0.91747  0.26598  1.0000 -0.1169057565
C   C24       1.0  0.91747  0.22953  0.23402  1.0000 -0.1169057565
C   C25       1.0  0.83921  0.15479  0.79950  1.0000 -0.1169057565
C   C26       1.0  0.15479  0.83921  0.70050  1.0000 -0.1169057565
C   C27       1.0  0.16079  0.84521  0.20050  1.0000 -0.1169057565
C   C28       1.0  0.84521  0.16079  0.29950  1.0000 -0.1169057565
C   C29       1.0  0.67408  0.04592  0.61019  1.0000 0.5892025453
C   C30       1.0  0.04592  0.67408  0.88981  1.0000 0.5892025453
C   C31       1.0  0.32592  0.95408  0.38981  1.0000 0.5892025453
C   C32       1.0  0.95408  0.32592  0.11019  1.0000 0.5892025453
C   C33       1.0  0.31231  0.71789  0.96323  1.0000 0.5791828258
C   C34       1.0  0.71789  0.31231  0.53677  1.0000 0.5791828258
C   C35       1.0  0.68769  0.28211  0.03677  1.0000 0.5791828258
C   C36       1.0  0.28211  0.68769  0.46323  1.0000 0.5791828258
C   C37       1.0  0.40758  0.86322  0.98199  1.0000 -0.0198223115
C   C38       1.0  0.86322  0.40758  0.51801  1.0000 -0.0198223115
C   C39       1.0  0.59242  0.13678  0.01801  1.0000 -0.0198223115
C   C40       1.0  0.13678  0.59242  0.48199  1.0000 -0.0198223115
C   C41       1.0  0.51743  0.97697  0.93501  1.0000 -0.1105612854
C   C42       1.0  0.97697  0.51743  0.56499  1.0000 -0.1105612854
C   C43       1.0  0.48257  0.02303  0.06499  1.0000 -0.1105612854
C   C44       1.0  0.02303  0.48257  0.43501  1.0000 -0.1105612854
C   C45       1.0  0.39101  0.88719  0.04721  1.0000 -0.0930681901
C   C46       1.0  0.88719  0.39101  0.45279  1.0000 -0.0930681901
C   C47       1.0  0.60899  0.11281  0.95279  1.0000 -0.0930681901
C   C48       1.0  0.11281  0.60899  0.54721  1.0000 -0.0930681901
C   C49       1.0  0.35825  0.52615  0.02111  1.0000 0.5469355357
C   C50       1.0  0.52615  0.35825  0.47889  1.0000 0.5469355357
C   C51       1.0  0.64175  0.47385  0.97889  1.0000 0.5469355357
C   C52       1.0  0.47385  0.64175  0.52111  1.0000 0.5469355357
C   C53       1.0  0.43176  0.51284  0.01009  1.0000 -0.0198223115
C   C54       1.0  0.51284  0.43176  0.48991  1.0000 -0.0198223115
C   C55       1.0  0.56824  0.48716  0.98991  1.0000 -0.0198223115
C   C56       1.0  0.48716  0.56824  0.51009  1.0000 -0.0198223115
C   C57       1.0  0.38083  0.41937  0.95905  1.0000 -0.1105612854
C   C58       1.0  0.41937  0.38083  0.54095  1.0000 -0.1105612854
C   C59       1.0  0.61917  0.58063  0.04095  1.0000 -0.1105612854
C   C60       1.0  0.58063  0.61917  0.45905  1.0000 -0.1105612854
C   C61       1.0  0.55115  0.59285  0.05065  1.0000 -0.1105612854
C   C62       1.0  0.59285  0.55115  0.44935  1.0000 -0.1105612854
C   C63       1.0  0.44885  0.40715  0.94935  1.0000 -0.1105612854
C   C64       1.0  0.40715  0.44885  0.55065  1.0000 -0.1105612854
C   C65       1.0  0.55017  0.74303  0.29300  1.0000 -0.0198223115
C   C66       1.0  0.54061  0.65919  0.25640  1.0000 -0.4108961301
C   C67       1.0  0.32433  0.61367  0.24200  1.0000 -0.0198223115
C   C68       1.0  0.38737  0.73583  0.20450  1.0000 -0.4108961301
C   C69       1.0  0.74303  0.55017  0.20700  1.0000 -0.0198223115
C   C70       1.0  0.65919  0.54061  0.24360  1.0000 -0.4108961301
C   C71       1.0  0.61367  0.32433  0.25800  1.0000 -0.0198223115
C   C72       1.0  0.73583  0.38737  0.29550  1.0000 -0.4108961301
C   C73       1.0  0.44983  0.25697  0.70700  1.0000 -0.0198223115
C   C74       1.0  0.45939  0.34081  0.74360  1.0000 -0.4108961301
C   C75       1.0  0.67567  0.38633  0.75800  1.0000 -0.0198223115
C   C76       1.0  0.61263  0.26417  0.79550  1.0000 -0.4108961301
C   C77       1.0  0.25697  0.44983  0.79300  1.0000 -0.0198223115
C   C78       1.0  0.34081  0.45939  0.75640  1.0000 -0.4108961301
C   C79       1.0  0.38633  0.67567  0.74200  1.0000 -0.0198223115
C   C80       1.0  0.26417  0.61263  0.70450  1.0000 -0.4108961301
N   N1        1.0  0.40684  0.65376  0.30762  1.0000 -0.2021631377
N   N2        1.0  0.65376  0.40684  0.19238  1.0000 -0.2021631377
N   N3        1.0  0.59316  0.34624  0.69238  1.0000 -0.2021631377
N   N4        1.0  0.34624  0.59316  0.80762  1.0000 -0.2021631377
O   O1        1.0  0.01245  0.33475  0.92011  1.0000 -0.5387629348
O   O2        1.0  0.33475  0.01245  0.57989  1.0000 -0.5387629348
O   O3        1.0  0.98755  0.66525  0.07989  1.0000 -0.5387629348
O   O4        1.0  0.66525  0.98755  0.42011  1.0000 -0.5387629348
O   O5        1.0  0.95448  0.41112  0.90459  1.0000 -0.5514013745
O   O6        1.0  0.41112  0.95448  0.59541  1.0000 -0.5514013745
O   O7        1.0  0.04552  0.58888  0.09541  1.0000 -0.5514013745
O   O8        1.0  0.58888  0.04552  0.40459  1.0000 -0.5514013745
O   O9        1.0  0.63649  0.94551  0.59923  1.0000 -0.5307700562
O   O10       1.0  0.94551  0.63649  0.90077  1.0000 -0.5307700562
O   O11       1.0  0.36351  0.05449  0.40077  1.0000 -0.5307700562
O   O12       1.0  0.05449  0.36351  0.09923  1.0000 -0.5307700562
O   O13       1.0  0.66192  0.09068  0.56398  1.0000 -0.5514013745
O   O14       1.0  0.09068  0.66192  0.93602  1.0000 -0.5514013745
O   O15       1.0  0.33808  0.90932  0.43602  1.0000 -0.5514013745
O   O16       1.0  0.90932  0.33808  0.06398  1.0000 -0.5514013745
O   O17       1.0  0.33487  0.70033  0.90777  1.0000 -0.5514013745
O   O18       1.0  0.70033  0.33487  0.59223  1.0000 -0.5514013745
O   O19       1.0  0.66513  0.29967  0.09223  1.0000 -0.5514013745
O   O20       1.0  0.29967  0.66513  0.40777  1.0000 -0.5514013745
O   O21       1.0  0.21029  0.61571  0.00831  1.0000 -0.5979591089
O   O22       1.0  0.61571  0.21029  0.49169  1.0000 -0.5979591089
O   O23       1.0  0.78971  0.38429  0.99169  1.0000 -0.5979591089
O   O24       1.0  0.38429  0.78971  0.50831  1.0000 -0.5979591089
O   O25       1.0  0.25350  0.45390  0.97724  1.0000 -0.5569009262
O   O26       1.0  0.45390  0.25350  0.52276  1.0000 -0.5569009262
O   O27       1.0  0.74650  0.54610  0.02276  1.0000 -0.5569009262
O   O28       1.0  0.54610  0.74650  0.47724  1.0000 -0.5569009262
O   O29       1.0  0.39626  0.60014  0.07061  1.0000 -0.5387629348
O   O30       1.0  0.60014  0.39626  0.42939  1.0000 -0.5387629348
O   O31       1.0  0.60374  0.39986  0.92939  1.0000 -0.5387629348
O   O32       1.0  0.39986  0.60374  0.57061  1.0000 -0.5387629348
