# DDEC6 charges by PACMAN v1.1 (https://github.com/mtap-research/PACMAN-charge/)
data_2006[CdSi][nan]3[ION]1
_chemical_formula_sum              "Cd3 Si1 H42 C54 N42 F6"
_cell_length_a       13.4262
_cell_length_b       13.4262
_cell_length_c       13.4262
_cell_angle_alpha    96.9768
_cell_angle_beta     96.9768
_cell_angle_gamma    96.9768

_symmetry_space_group_name_H-M    "P 1"
_symmetry_Int_Tables_number       1

loop_
  _symmetry_equiv_pos_as_xyz
  'x, y, z'

loop_
  _atom_site_type_symbol
  _atom_site_label
  _atom_site_symmetry_multiplicity
  _atom_site_fract_x
  _atom_site_fract_y
  _atom_site_fract_z
  _atom_site_occupancy
  _atom_site_charge
Cd  Cd1       1.0  0.50000  0.50000  0.50000  1.0000 0.644959824
Cd  Cd2       1.0  0.29517  0.29517  0.29517  1.0000 0.6791052388
Cd  Cd3       1.0  0.70483  0.70483  0.70483  1.0000 0.6791052388
Si  Si1       1.0  0.00000  0.00000  0.00000  1.0000 1.6810468005
H   H1        1.0  0.36840  0.41090  0.69140  1.0000 0.1197978863
H   H2        1.0  0.41090  0.69140  0.36840  1.0000 0.1197978863
H   H3        1.0  0.69140  0.36840  0.41090  1.0000 0.1197978863
H   H4        1.0  0.63160  0.58910  0.30860  1.0000 0.1197978863
H   H5        1.0  0.58910  0.30860  0.63160  1.0000 0.1197978863
H   H6        1.0  0.30860  0.63160  0.58910  1.0000 0.1197978863
H   H7        1.0  0.20900  0.19710  0.48800  1.0000 0.1197978863
H   H8        1.0  0.19710  0.48800  0.20900  1.0000 0.1197978863
H   H9        1.0  0.48800  0.20900  0.19710  1.0000 0.1197978863
H   H10       1.0  0.79100  0.80290  0.51200  1.0000 0.1197978863
H   H11       1.0  0.80290  0.51200  0.79100  1.0000 0.1197978863
H   H12       1.0  0.51200  0.79100  0.80290  1.0000 0.1197978863
H   H13       1.0  0.08930  0.17890  0.59530  1.0000 0.1197978863
H   H14       1.0  0.17890  0.59530  0.08930  1.0000 0.1197978863
H   H15       1.0  0.59530  0.08930  0.17890  1.0000 0.1197978863
H   H16       1.0  0.91070  0.82110  0.40470  1.0000 0.1197978863
H   H17       1.0  0.82110  0.40470  0.91070  1.0000 0.1197978863
H   H18       1.0  0.40470  0.91070  0.82110  1.0000 0.1197978863
H   H19       1.0  0.99900  0.12910  0.72280  1.0000 0.1197978863
H   H20       1.0  0.12910  0.72280  0.99900  1.0000 0.1197978863
H   H21       1.0  0.72280  0.99900  0.12910  1.0000 0.1197978863
H   H22       1.0  0.00100  0.87090  0.27720  1.0000 0.1197978863
H   H23       1.0  0.87090  0.27720  0.00100  1.0000 0.1197978863
H   H24       1.0  0.27720  0.00100  0.87090  1.0000 0.1197978863
H   H25       1.0  0.06730  0.18430  0.89240  1.0000 0.143232839
H   H26       1.0  0.18430  0.89240  0.06730  1.0000 0.143232839
H   H27       1.0  0.89240  0.06730  0.18430  1.0000 0.143232839
H   H28       1.0  0.93270  0.81570  0.10760  1.0000 0.143232839
H   H29       1.0  0.81570  0.10760  0.93270  1.0000 0.143232839
H   H30       1.0  0.10760  0.93270  0.81570  1.0000 0.143232839
H   H31       1.0  0.17060  0.20170  0.04650  1.0000 0.1197978863
H   H32       1.0  0.20170  0.04650  0.17060  1.0000 0.1197978863
H   H33       1.0  0.04650  0.17060  0.20170  1.0000 0.1197978863
H   H34       1.0  0.82940  0.79830  0.95350  1.0000 0.1197978863
H   H35       1.0  0.79830  0.95350  0.82940  1.0000 0.1197978863
H   H36       1.0  0.95350  0.82940  0.79830  1.0000 0.1197978863
H   H37       1.0  0.35110  0.40560  0.94770  1.0000 0.1197978863
H   H38       1.0  0.40560  0.94770  0.35110  1.0000 0.1197978863
H   H39       1.0  0.94770  0.35110  0.40560  1.0000 0.1197978863
H   H40       1.0  0.64890  0.59440  0.05230  1.0000 0.1197978863
H   H41       1.0  0.59440  0.05230  0.64890  1.0000 0.1197978863
H   H42       1.0  0.05230  0.64890  0.59440  1.0000 0.1197978863
C   C1        1.0  0.34280  0.37000  0.63040  1.0000 0.037264658
C   C2        1.0  0.37000  0.63040  0.34280  1.0000 0.037264658
C   C3        1.0  0.63040  0.34280  0.37000  1.0000 0.037264658
C   C4        1.0  0.65720  0.63000  0.36960  1.0000 0.037264658
C   C5        1.0  0.63000  0.36960  0.65720  1.0000 0.037264658
C   C6        1.0  0.36960  0.65720  0.63000  1.0000 0.037264658
C   C7        1.0  0.25520  0.25270  0.51880  1.0000 0.069531286
C   C8        1.0  0.25270  0.51880  0.25520  1.0000 0.069531286
C   C9        1.0  0.51880  0.25520  0.25270  1.0000 0.069531286
C   C10       1.0  0.74480  0.74730  0.48120  1.0000 0.069531286
C   C11       1.0  0.74730  0.48120  0.74480  1.0000 0.069531286
C   C12       1.0  0.48120  0.74480  0.74730  1.0000 0.069531286
C   C13       1.0  0.20790  0.25760  0.69290  1.0000 0.2902690094
C   C14       1.0  0.25760  0.69290  0.20790  1.0000 0.2902690094
C   C15       1.0  0.69290  0.20790  0.25760  1.0000 0.2902690094
C   C16       1.0  0.79210  0.74240  0.30710  1.0000 0.2902690094
C   C17       1.0  0.74240  0.30710  0.79210  1.0000 0.2902690094
C   C18       1.0  0.30710  0.79210  0.74240  1.0000 0.2902690094
C   C19       1.0  0.11490  0.19840  0.66330  1.0000 -0.2415666675
C   C20       1.0  0.19840  0.66330  0.11490  1.0000 -0.2415666675
C   C21       1.0  0.66330  0.11490  0.19840  1.0000 -0.2415666675
C   C22       1.0  0.88510  0.80160  0.33670  1.0000 -0.2415666675
C   C23       1.0  0.80160  0.33670  0.88510  1.0000 -0.2415666675
C   C24       1.0  0.33670  0.88510  0.80160  1.0000 -0.2415666675
C   C25       1.0  0.06150  0.16950  0.73900  1.0000 0.0001512019
C   C26       1.0  0.16950  0.73900  0.06150  1.0000 -0.0012222591
C   C27       1.0  0.73900  0.06150  0.16950  1.0000 0.0001512019
C   C28       1.0  0.93850  0.83050  0.26100  1.0000 -0.0012222591
C   C29       1.0  0.83050  0.26100  0.93850  1.0000 0.0001512019
C   C30       1.0  0.26100  0.93850  0.83050  1.0000 0.0001512019
C   C31       1.0  0.10220  0.20120  0.83970  1.0000 -0.2119846278
C   C32       1.0  0.20120  0.83970  0.10220  1.0000 -0.2119846278
C   C33       1.0  0.83970  0.10220  0.20120  1.0000 -0.2119846278
C   C34       1.0  0.89780  0.79880  0.16030  1.0000 -0.2119846278
C   C35       1.0  0.79880  0.16030  0.89780  1.0000 -0.2119846278
C   C36       1.0  0.16030  0.89780  0.79880  1.0000 -0.2119846278
C   C37       1.0  0.19570  0.25850  0.85780  1.0000 0.2902690094
C   C38       1.0  0.25850  0.85780  0.19570  1.0000 0.2902690094
C   C39       1.0  0.85780  0.19570  0.25850  1.0000 0.2902690094
C   C40       1.0  0.80430  0.74150  0.14220  1.0000 0.2902690094
C   C41       1.0  0.74150  0.14220  0.80430  1.0000 0.2848253714
C   C42       1.0  0.14220  0.80430  0.74150  1.0000 0.2902690094
C   C43       1.0  0.22170  0.25460  0.04420  1.0000 0.069531286
C   C44       1.0  0.25460  0.04420  0.22170  1.0000 0.069531286
C   C45       1.0  0.04420  0.22170  0.25460  1.0000 0.069531286
C   C46       1.0  0.77830  0.74540  0.95580  1.0000 0.069531286
C   C47       1.0  0.74540  0.95580  0.77830  1.0000 0.069531286
C   C48       1.0  0.95580  0.77830  0.74540  1.0000 0.069531286
C   C49       1.0  0.31970  0.36620  0.99030  1.0000 0.0754987117
C   C50       1.0  0.36620  0.99030  0.31970  1.0000 0.069531286
C   C51       1.0  0.99030  0.31970  0.36620  1.0000 0.0754987117
C   C52       1.0  0.68030  0.63380  0.00970  1.0000 0.069531286
C   C53       1.0  0.63380  0.00970  0.68030  1.0000 0.0754987117
C   C54       1.0  0.00970  0.68030  0.63380  1.0000 0.069531286
N   N1        1.0  0.37465  0.37962  0.54369  1.0000 -0.1970044408
N   N2        1.0  0.37962  0.54369  0.37465  1.0000 -0.1970044408
N   N3        1.0  0.54369  0.37465  0.37962  1.0000 -0.1970044408
N   N4        1.0  0.62535  0.62038  0.45631  1.0000 -0.1970044408
N   N5        1.0  0.62038  0.45631  0.62535  1.0000 -0.1970044408
N   N6        1.0  0.45631  0.62535  0.62038  1.0000 -0.1970044408
N   N7        1.0  0.31855  0.30513  0.47271  1.0000 -0.1749803854
N   N8        1.0  0.30513  0.47271  0.31855  1.0000 -0.1752462072
N   N9        1.0  0.47271  0.31855  0.30513  1.0000 -0.1752462072
N   N10       1.0  0.68145  0.69487  0.52729  1.0000 -0.1752462072
N   N11       1.0  0.69487  0.52729  0.68145  1.0000 -0.1752462072
N   N12       1.0  0.52729  0.68145  0.69487  1.0000 -0.1752462072
N   N13       1.0  0.26634  0.29104  0.61824  1.0000 -0.0369648743
N   N14       1.0  0.29104  0.61824  0.26634  1.0000 -0.0369648743
N   N15       1.0  0.61824  0.26634  0.29104  1.0000 -0.0369648743
N   N16       1.0  0.73366  0.70896  0.38176  1.0000 -0.0369648743
N   N17       1.0  0.70896  0.38176  0.73366  1.0000 -0.0369648743
N   N18       1.0  0.38176  0.73366  0.70896  1.0000 -0.0369648743
N   N19       1.0  0.24957  0.28767  0.78727  1.0000 -0.3974049373
N   N20       1.0  0.28767  0.78727  0.24957  1.0000 -0.3974049373
N   N21       1.0  0.78727  0.24957  0.28767  1.0000 -0.3974049373
N   N22       1.0  0.75043  0.71233  0.21273  1.0000 -0.3974049373
N   N23       1.0  0.71233  0.21273  0.75043  1.0000 -0.3974049373
N   N24       1.0  0.21273  0.75043  0.71233  1.0000 -0.3974049373
N   N25       1.0  0.24300  0.29120  0.95900  1.0000 -0.0309478549
N   N26       1.0  0.29120  0.95900  0.24300  1.0000 -0.0309478549
N   N27       1.0  0.95900  0.24300  0.29120  1.0000 -0.0309478549
N   N28       1.0  0.75700  0.70880  0.04100  1.0000 -0.0309478549
N   N29       1.0  0.70880  0.04100  0.75700  1.0000 -0.0309478549
N   N30       1.0  0.04100  0.75700  0.70880  1.0000 -0.0309478549
N   N31       1.0  0.34470  0.37680  0.08790  1.0000 -0.2415666675
N   N32       1.0  0.37680  0.08790  0.34470  1.0000 -0.2415666675
N   N33       1.0  0.08790  0.34470  0.37680  1.0000 -0.2415666675
N   N34       1.0  0.65530  0.62320  0.91210  1.0000 -0.2415666675
N   N35       1.0  0.62320  0.91210  0.65530  1.0000 -0.2415666675
N   N36       1.0  0.91210  0.65530  0.62320  1.0000 -0.2415666675
N   N37       1.0  0.28188  0.30278  0.12208  1.0000 -0.2119846278
N   N38       1.0  0.30278  0.12208  0.28188  1.0000 -0.2119846278
N   N39       1.0  0.12208  0.28188  0.30278  1.0000 -0.2119846278
N   N40       1.0  0.71812  0.69722  0.87792  1.0000 -0.2119846278
N   N41       1.0  0.69722  0.87792  0.71812  1.0000 -0.2119846278
N   N42       1.0  0.87792  0.71812  0.69722  1.0000 -0.2119846278
F   F1        1.0  0.99423  0.12428  0.02729  1.0000 -0.5595960948
F   F2        1.0  0.12428  0.02729  0.99423  1.0000 -0.5595960948
F   F3        1.0  0.02729  0.99423  0.12428  1.0000 -0.5595960948
F   F4        1.0  0.00577  0.87572  0.97271  1.0000 -0.5595960948
F   F5        1.0  0.87572  0.97271  0.00577  1.0000 -0.5595960948
F   F6        1.0  0.97271  0.00577  0.87572  1.0000 -0.5595960948
