# DDEC6 charges by PACMAN v1.1 (https://github.com/mtap-research/PACMAN-charge/)
data_2006[Zn][bcg]3[ION]3
_chemical_formula_sum              "Zn6 H80 C80 N4 O32"
_cell_length_a       17.4197
_cell_length_b       17.4197
_cell_length_c       18.1908
_cell_angle_alpha    87.6068
_cell_angle_beta     92.3932
_cell_angle_gamma    147.17

_symmetry_space_group_name_H-M    "P 1"
_symmetry_Int_Tables_number       1

loop_
  _symmetry_equiv_pos_as_xyz
  'x, y, z'

loop_
  _atom_site_type_symbol
  _atom_site_label
  _atom_site_symmetry_multiplicity
  _atom_site_fract_x
  _atom_site_fract_y
  _atom_site_fract_z
  _atom_site_occupancy
  _atom_site_charge
Zn  Zn1       1.0  0.54486  0.85152  0.00352  1.0000 0.9078806941
Zn  Zn2       1.0  0.85152  0.54486  0.49648  1.0000 0.9078806941
Zn  Zn3       1.0  0.45514  0.14848  0.99648  1.0000 0.9078806941
Zn  Zn4       1.0  0.14848  0.45514  0.50352  1.0000 0.9078806941
Zn  Zn5       1.0  0.50000  0.00000  0.00000  1.0000 0.9882275764
Zn  Zn6       1.0  0.00000  0.50000  0.50000  1.0000 0.9882275764
H   H1        1.0  0.34370  0.41310  0.08530  1.0000 0.1203328494
H   H2        1.0  0.41310  0.34370  0.41470  1.0000 0.1203328494
H   H3        1.0  0.65630  0.58690  0.91470  1.0000 0.1203328494
H   H4        1.0  0.58690  0.65630  0.58530  1.0000 0.1203328494
H   H5        1.0  0.63520  0.69960  0.93130  1.0000 0.1107561443
H   H6        1.0  0.69960  0.63520  0.56870  1.0000 0.1107561443
H   H7        1.0  0.36480  0.30040  0.06870  1.0000 0.1107561443
H   H8        1.0  0.30040  0.36480  0.43130  1.0000 0.1107561443
H   H9        1.0  0.03900  0.47100  0.89160  1.0000 0.1107561443
H   H10       1.0  0.47100  0.03900  0.60840  1.0000 0.1107561443
H   H11       1.0  0.96100  0.52900  0.10840  1.0000 0.1107561443
H   H12       1.0  0.52900  0.96100  0.39160  1.0000 0.1107561443
H   H13       1.0  0.18850  0.68230  0.07890  1.0000 0.1203328494
H   H14       1.0  0.68230  0.18850  0.42110  1.0000 0.1203328494
H   H15       1.0  0.81150  0.31770  0.92110  1.0000 0.1203328494
H   H16       1.0  0.31770  0.81150  0.57890  1.0000 0.1203328494
H   H17       1.0  0.74170  0.00870  0.22410  1.0000 0.1203328494
H   H18       1.0  0.00870  0.74170  0.27590  1.0000 0.1203328494
H   H19       1.0  0.25830  0.99130  0.77590  1.0000 0.1203328494
H   H20       1.0  0.99130  0.25830  0.72410  1.0000 0.1203328494
H   H21       1.0  0.85970  0.13190  0.33333  1.0000 0.1203328494
H   H22       1.0  0.13190  0.85970  0.16667  1.0000 0.1203328494
H   H23       1.0  0.14030  0.86810  0.66667  1.0000 0.1203328494
H   H24       1.0  0.86810  0.14030  0.83333  1.0000 0.1203328494
H   H25       1.0  0.87270  0.36670  0.27520  1.0000 0.1279165153
H   H26       1.0  0.36670  0.87270  0.22480  1.0000 0.1279165153
H   H27       1.0  0.12730  0.63330  0.72480  1.0000 0.1279165153
H   H28       1.0  0.63330  0.12730  0.77520  1.0000 0.1279165153
H   H29       1.0  0.75940  0.24720  0.16510  1.0000 0.1203328494
H   H30       1.0  0.24720  0.75940  0.33490  1.0000 0.1203328494
H   H31       1.0  0.24060  0.75280  0.83490  1.0000 0.1203328494
H   H32       1.0  0.75280  0.24060  0.66510  1.0000 0.1203328494
H   H33       1.0  0.29880  0.58300  0.33830  1.0000 0.2851013545
H   H34       1.0  0.42640  0.64520  0.33080  1.0000 0.2725595538
H   H35       1.0  0.43370  0.68490  0.20700  1.0000 0.1107561443
H   H36       1.0  0.45420  0.77200  0.25750  1.0000 0.1019515983
H   H37       1.0  0.20440  0.52620  0.18230  1.0000 0.1402660364
H   H38       1.0  0.29820  0.67820  0.16730  1.0000 0.1402660364
H   H39       1.0  0.21120  0.59620  0.24000  1.0000 0.1279165153
H   H40       1.0  0.17880  0.39900  0.26130  1.0000 0.1019515983
H   H41       1.0  0.22160  0.39880  0.33880  1.0000 0.1019515983
H   H42       1.0  0.37390  0.50670  0.20930  1.0000 0.1402660364
H   H43       1.0  0.28480  0.36780  0.25040  1.0000 0.1279165153
H   H44       1.0  0.42370  0.51530  0.28680  1.0000 0.1279165153
H   H45       1.0  0.58300  0.29880  0.16170  1.0000 0.2851013545
H   H46       1.0  0.64520  0.42640  0.16920  1.0000 0.2725595538
H   H47       1.0  0.68490  0.43370  0.29300  1.0000 0.1107561443
H   H48       1.0  0.77200  0.45420  0.24250  1.0000 0.1019515983
H   H49       1.0  0.52620  0.20440  0.31770  1.0000 0.1402660364
H   H50       1.0  0.67820  0.29820  0.33270  1.0000 0.1402660364
H   H51       1.0  0.59620  0.21120  0.26000  1.0000 0.1279165153
H   H52       1.0  0.39900  0.17880  0.23870  1.0000 0.1019515983
H   H53       1.0  0.39880  0.22160  0.16120  1.0000 0.1019515983
H   H54       1.0  0.50670  0.37390  0.29070  1.0000 0.1402660364
H   H55       1.0  0.36780  0.28480  0.24960  1.0000 0.1279165153
H   H56       1.0  0.51530  0.42370  0.21320  1.0000 0.1279165153
H   H57       1.0  0.70120  0.41700  0.66170  1.0000 0.2851013545
H   H58       1.0  0.57360  0.35480  0.66920  1.0000 0.2725595538
H   H59       1.0  0.56630  0.31510  0.79300  1.0000 0.1107561443
H   H60       1.0  0.54580  0.22800  0.74250  1.0000 0.1019515983
H   H61       1.0  0.79560  0.47380  0.81770  1.0000 0.1402660364
H   H62       1.0  0.70180  0.32180  0.83270  1.0000 0.1402660364
H   H63       1.0  0.78880  0.40380  0.76000  1.0000 0.1279165153
H   H64       1.0  0.82120  0.60100  0.73870  1.0000 0.1019515983
H   H65       1.0  0.77840  0.60120  0.66120  1.0000 0.1019515983
H   H66       1.0  0.62610  0.49330  0.79070  1.0000 0.1402660364
H   H67       1.0  0.71520  0.63220  0.74960  1.0000 0.1279165153
H   H68       1.0  0.57630  0.48470  0.71320  1.0000 0.1279165153
H   H69       1.0  0.41700  0.70120  0.83830  1.0000 0.2851013545
H   H70       1.0  0.35480  0.57360  0.83080  1.0000 0.2725595538
H   H71       1.0  0.31510  0.56630  0.70700  1.0000 0.1107561443
H   H72       1.0  0.22800  0.54580  0.75750  1.0000 0.1019515983
H   H73       1.0  0.47380  0.79560  0.68230  1.0000 0.1402660364
H   H74       1.0  0.32180  0.70180  0.66730  1.0000 0.1402660364
H   H75       1.0  0.40380  0.78880  0.74000  1.0000 0.1279165153
H   H76       1.0  0.60100  0.82120  0.76130  1.0000 0.1019515983
H   H77       1.0  0.60120  0.77840  0.83880  1.0000 0.1019515983
H   H78       1.0  0.49330  0.62610  0.70930  1.0000 0.1402660364
H   H79       1.0  0.63220  0.71520  0.75040  1.0000 0.1279165153
H   H80       1.0  0.48470  0.57630  0.78680  1.0000 0.1279165153
C   C1        1.0  0.47355  0.64165  0.02133  1.0000 0.5452588503
C   C2        1.0  0.64165  0.47355  0.47867  1.0000 0.5452588503
C   C3        1.0  0.52645  0.35835  0.97867  1.0000 0.5452588503
C   C4        1.0  0.35835  0.52645  0.52133  1.0000 0.5452588503
C   C5        1.0  0.48698  0.56782  0.00987  1.0000 -0.0185019846
C   C6        1.0  0.56782  0.48698  0.49013  1.0000 -0.0185019846
C   C7        1.0  0.51302  0.43218  0.99013  1.0000 -0.0185019846
C   C8        1.0  0.43218  0.51302  0.50987  1.0000 -0.0185019846
C   C9        1.0  0.40671  0.44849  0.05089  1.0000 -0.1168782328
C   C10       1.0  0.44849  0.40671  0.44911  1.0000 -0.1168782328
C   C11       1.0  0.59329  0.55151  0.94911  1.0000 -0.1168782328
C   C12       1.0  0.55151  0.59329  0.55089  1.0000 -0.1168782328
C   C13       1.0  0.58034  0.61906  0.95908  1.0000 -0.1096855224
C   C14       1.0  0.61906  0.58034  0.54092  1.0000 -0.1096855224
C   C15       1.0  0.41966  0.38094  0.04092  1.0000 -0.1096855224
C   C16       1.0  0.38094  0.41966  0.45908  1.0000 -0.1096855224
C   C17       1.0  0.28146  0.68774  0.96343  1.0000 0.5783996586
C   C18       1.0  0.68774  0.28146  0.53657  1.0000 0.5783996586
C   C19       1.0  0.71854  0.31226  0.03657  1.0000 0.5783996586
C   C20       1.0  0.31226  0.71854  0.46343  1.0000 0.5783996586
C   C21       1.0  0.13659  0.59221  0.98234  1.0000 -0.0185019846
C   C22       1.0  0.59221  0.13659  0.51766  1.0000 -0.0185019846
C   C23       1.0  0.86341  0.40779  0.01766  1.0000 -0.0185019846
C   C24       1.0  0.40779  0.86341  0.48234  1.0000 -0.0185019846
C   C25       1.0  0.02348  0.48272  0.93504  1.0000 -0.1096855224
C   C26       1.0  0.48272  0.02348  0.56496  1.0000 -0.1096855224
C   C27       1.0  0.97652  0.51728  0.06496  1.0000 -0.1096855224
C   C28       1.0  0.51728  0.97652  0.43504  1.0000 -0.1096855224
C   C29       1.0  0.11310  0.60930  0.04720  1.0000 -0.0943387221
C   C30       1.0  0.60930  0.11310  0.45280  1.0000 -0.0943387221
C   C31       1.0  0.88690  0.39070  0.95280  1.0000 -0.0943387221
C   C32       1.0  0.39070  0.88690  0.54720  1.0000 -0.0943387221
C   C33       1.0  0.67387  0.04513  0.11005  1.0000 0.5893854205
C   C34       1.0  0.04513  0.67387  0.38995  1.0000 0.5893854205
C   C35       1.0  0.32613  0.95487  0.88995  1.0000 0.5893854205
C   C36       1.0  0.95487  0.32613  0.61005  1.0000 0.5893854205
C   C37       1.0  0.74267  0.11873  0.18324  1.0000 -0.0185019846
C   C38       1.0  0.11873  0.74267  0.31676  1.0000 -0.0185019846
C   C39       1.0  0.25733  0.88127  0.81676  1.0000 -0.0185019846
C   C40       1.0  0.88127  0.25733  0.68324  1.0000 -0.0185019846
C   C41       1.0  0.76984  0.08216  0.23394  1.0000 -0.1168782328
C   C42       1.0  0.08216  0.76984  0.26606  1.0000 -0.1168782328
C   C43       1.0  0.23016  0.91784  0.76606  1.0000 -0.1168782328
C   C44       1.0  0.91784  0.23016  0.73394  1.0000 -0.1168782328
C   C45       1.0  0.83947  0.15513  0.29978  1.0000 -0.1168782328
C   C46       1.0  0.15513  0.83947  0.20022  1.0000 -0.1168782328
C   C47       1.0  0.16053  0.84487  0.70022  1.0000 -0.1168782328
C   C48       1.0  0.84487  0.16053  0.79978  1.0000 -0.1168782328
C   C49       1.0  0.87867  0.26233  0.31538  1.0000 -0.031098995
C   C50       1.0  0.26233  0.87867  0.18462  1.0000 -0.031098995
C   C51       1.0  0.12133  0.73767  0.68462  1.0000 -0.031098995
C   C52       1.0  0.73767  0.12133  0.81538  1.0000 -0.031098995
C   C53       1.0  0.84771  0.29569  0.26478  1.0000 -0.1096855224
C   C54       1.0  0.29569  0.84771  0.23522  1.0000 -0.1096855224
C   C55       1.0  0.15229  0.70431  0.73522  1.0000 -0.1096855224
C   C56       1.0  0.70431  0.15229  0.76478  1.0000 -0.1096855224
C   C57       1.0  0.77981  0.22419  0.19877  1.0000 -0.1000331562
C   C58       1.0  0.22419  0.77981  0.30123  1.0000 -0.1000331562
C   C59       1.0  0.22019  0.77581  0.80123  1.0000 -0.1000331562
C   C60       1.0  0.77581  0.22019  0.69877  1.0000 -0.1000331562
C   C61       1.0  0.95498  0.34322  0.38571  1.0000 0.5783996586
C   C62       1.0  0.34322  0.95498  0.11429  1.0000 0.5783996586
C   C63       1.0  0.04502  0.65678  0.61429  1.0000 0.5783996586
C   C64       1.0  0.65678  0.04502  0.88571  1.0000 0.5783996586
C   C65       1.0  0.38690  0.67710  0.24200  1.0000 -0.0185019846
C   C66       1.0  0.26421  0.61379  0.20450  1.0000 -0.4097555425
C   C67       1.0  0.25865  0.45095  0.29280  1.0000 -0.0185019846
C   C68       1.0  0.34288  0.46112  0.25650  1.0000 -0.4097555425
C   C69       1.0  0.67710  0.38690  0.25800  1.0000 -0.0185019846
C   C70       1.0  0.61379  0.26421  0.29550  1.0000 -0.4097555425
C   C71       1.0  0.45095  0.25865  0.20720  1.0000 -0.0185019846
C   C72       1.0  0.46112  0.34288  0.24350  1.0000 -0.4097555425
C   C73       1.0  0.61310  0.32290  0.75800  1.0000 -0.0185019846
C   C74       1.0  0.73579  0.38621  0.79550  1.0000 -0.4097555425
C   C75       1.0  0.74135  0.54905  0.70720  1.0000 -0.0185019846
C   C76       1.0  0.65712  0.53888  0.74350  1.0000 -0.4097555425
C   C77       1.0  0.32290  0.61310  0.74200  1.0000 -0.0185019846
C   C78       1.0  0.38621  0.73579  0.70450  1.0000 -0.4097555425
C   C79       1.0  0.54905  0.74135  0.79280  1.0000 -0.0185019846
C   C80       1.0  0.53888  0.65712  0.75650  1.0000 -0.4097555425
N   N1        1.0  0.34643  0.59377  0.30735  1.0000 -0.1978604641
N   N2        1.0  0.59377  0.34643  0.19265  1.0000 -0.1978604641
N   N3        1.0  0.65357  0.40623  0.69265  1.0000 -0.1978604641
N   N4        1.0  0.40623  0.65357  0.80735  1.0000 -0.1978604641
O   O1        1.0  0.54536  0.74604  0.97705  1.0000 -0.5554838996
O   O2        1.0  0.74604  0.54536  0.52295  1.0000 -0.5554838996
O   O3        1.0  0.45464  0.25396  0.02295  1.0000 -0.5554838996
O   O4        1.0  0.25396  0.45464  0.47705  1.0000 -0.5554838996
O   O5        1.0  0.40064  0.60436  0.07112  1.0000 -0.5302585732
O   O6        1.0  0.60436  0.40064  0.42888  1.0000 -0.5302585732
O   O7        1.0  0.59936  0.39564  0.92888  1.0000 -0.5302585732
O   O8        1.0  0.39564  0.59936  0.57112  1.0000 -0.5302585732
O   O9        1.0  0.38455  0.79005  0.00857  1.0000 -0.5989730056
O   O10       1.0  0.79005  0.38455  0.49143  1.0000 -0.5989730056
O   O11       1.0  0.61545  0.20995  0.99143  1.0000 -0.5989730056
O   O12       1.0  0.20995  0.61545  0.50857  1.0000 -0.5989730056
O   O13       1.0  0.29899  0.66461  0.90815  1.0000 -0.5523389872
O   O14       1.0  0.66461  0.29899  0.59185  1.0000 -0.5523389872
O   O15       1.0  0.70101  0.33539  0.09185  1.0000 -0.5523389872
O   O16       1.0  0.33539  0.70101  0.40815  1.0000 -0.5523389872
O   O17       1.0  0.63594  0.94506  0.09940  1.0000 -0.5302585732
O   O18       1.0  0.94506  0.63594  0.40060  1.0000 -0.5302585732
O   O19       1.0  0.36406  0.05494  0.90060  1.0000 -0.5302585732
O   O20       1.0  0.05494  0.36406  0.59940  1.0000 -0.5302585732
O   O21       1.0  0.33823  0.90957  0.93598  1.0000 -0.5554838996
O   O22       1.0  0.90957  0.33823  0.56402  1.0000 -0.5554838996
O   O23       1.0  0.66177  0.09043  0.06402  1.0000 -0.5554838996
O   O24       1.0  0.09043  0.66177  0.43598  1.0000 -0.5554838996
O   O25       1.0  0.01287  0.33533  0.41997  1.0000 -0.5427550371
O   O26       1.0  0.33533  0.01287  0.08003  1.0000 -0.5427550371
O   O27       1.0  0.98713  0.66467  0.58003  1.0000 -0.5427550371
O   O28       1.0  0.66467  0.98713  0.91997  1.0000 -0.5427550371
O   O29       1.0  0.95484  0.41136  0.40425  1.0000 -0.5427550371
O   O30       1.0  0.41136  0.95484  0.09575  1.0000 -0.5427550371
O   O31       1.0  0.04516  0.58864  0.59575  1.0000 -0.5427550371
O   O32       1.0  0.58864  0.04516  0.90425  1.0000 -0.5427550371
