# DDEC6 charges by PACMAN v1.1 (https://github.com/mtap-research/PACMAN-charge/)
data_2006[Zn][bcg]3[ION]1
_chemical_formula_sum              "Zn6 H80 C80 N4 O32"
_cell_length_a       17.3353
_cell_length_b       17.3353
_cell_length_c       18.2156
_cell_angle_alpha    87.4933
_cell_angle_beta     92.5067
_cell_angle_gamma    147.216

_symmetry_space_group_name_H-M    "P 1"
_symmetry_Int_Tables_number       1

loop_
  _symmetry_equiv_pos_as_xyz
  'x, y, z'

loop_
  _atom_site_type_symbol
  _atom_site_label
  _atom_site_symmetry_multiplicity
  _atom_site_fract_x
  _atom_site_fract_y
  _atom_site_fract_z
  _atom_site_occupancy
  _atom_site_charge
Zn  Zn1       1.0  0.64645  0.95325  0.00349  1.0000 0.9111982992
Zn  Zn2       1.0  0.95325  0.64645  0.49651  1.0000 0.9111982992
Zn  Zn3       1.0  0.35355  0.04675  0.99651  1.0000 0.9111982992
Zn  Zn4       1.0  0.04675  0.35355  0.50349  1.0000 0.9111982992
Zn  Zn5       1.0  0.50000  0.00000  0.00000  1.0000 0.9924995115
Zn  Zn6       1.0  0.00000  0.50000  0.50000  1.0000 0.9924995115
H   H1        1.0  0.80240  0.86900  0.92900  1.0000 0.1196016481
H   H2        1.0  0.86900  0.80240  0.57100  1.0000 0.1196016481
H   H3        1.0  0.19760  0.13100  0.07100  1.0000 0.1196016481
H   H4        1.0  0.13100  0.19760  0.42900  1.0000 0.1196016481
H   H5        1.0  0.08630  0.15450  0.08760  1.0000 0.1196016481
H   H6        1.0  0.15450  0.08630  0.41240  1.0000 0.1196016481
H   H7        1.0  0.91370  0.84550  0.91240  1.0000 0.1196016481
H   H8        1.0  0.84550  0.91370  0.58760  1.0000 0.1196016481
H   H9        1.0  0.62650  0.35510  0.66510  1.0000 0.1196016481
H   H10       1.0  0.35510  0.62650  0.83490  1.0000 0.1196016481
H   H11       1.0  0.37350  0.64490  0.33490  1.0000 0.1196016481
H   H12       1.0  0.64490  0.37350  0.16510  1.0000 0.1196016481
H   H13       1.0  0.50660  0.24120  0.77520  1.0000 0.1196016481
H   H14       1.0  0.24120  0.50660  0.72480  1.0000 0.1196016481
H   H15       1.0  0.49340  0.75880  0.22480  1.0000 0.1196016481
H   H16       1.0  0.75880  0.49340  0.27520  1.0000 0.1196016481
H   H17       1.0  0.75000  0.26180  0.83500  1.0000 0.1196016481
H   H18       1.0  0.26180  0.75000  0.66500  1.0000 0.1196016481
H   H19       1.0  0.25000  0.73820  0.16500  1.0000 0.1196016481
H   H20       1.0  0.73820  0.25000  0.33500  1.0000 0.1196016481
H   H21       1.0  0.86620  0.37120  0.72420  1.0000 0.1288145276
H   H22       1.0  0.37120  0.86620  0.77580  1.0000 0.1288145276
H   H23       1.0  0.13380  0.62880  0.27580  1.0000 0.1288145276
H   H24       1.0  0.62880  0.13380  0.22420  1.0000 0.1288145276
H   H25       1.0  0.81540  0.30900  0.07840  1.0000 0.1196016481
H   H26       1.0  0.30900  0.81540  0.42160  1.0000 0.1196016481
H   H27       1.0  0.18460  0.69100  0.92160  1.0000 0.1196016481
H   H28       1.0  0.69100  0.18460  0.57840  1.0000 0.1196016481
H   H29       1.0  0.03020  0.46260  0.89090  1.0000 0.1085711946
H   H30       1.0  0.46260  0.03020  0.60910  1.0000 0.1085711946
H   H31       1.0  0.96980  0.53740  0.10910  1.0000 0.1085711946
H   H32       1.0  0.53740  0.96980  0.39090  1.0000 0.1085711946
H   H33       1.0  0.91590  0.20230  0.33670  1.0000 0.288643088
H   H34       1.0  0.85780  0.07640  0.33130  1.0000 0.2760773709
H   H35       1.0  0.72550  0.04250  0.25620  1.0000 0.1011531649
H   H36       1.0  0.81230  0.06030  0.20750  1.0000 0.1085711946
H   H37       1.0  0.89980  0.28600  0.23350  1.0000 0.1288145276
H   H38       1.0  0.82150  0.19710  0.16110  1.0000 0.1411830496
H   H39       1.0  0.97460  0.29400  0.17970  1.0000 0.1411830496
H   H40       1.0  0.10460  0.28420  0.33890  1.0000 0.1085711946
H   H41       1.0  0.10390  0.32750  0.26170  1.0000 0.1011531649
H   H42       1.0  0.99170  0.08330  0.28520  1.0000 0.1288145276
H   H43       1.0  0.14050  0.22510  0.24980  1.0000 0.1288145276
H   H44       1.0  0.00050  0.13430  0.20820  1.0000 0.1411830496
H   H45       1.0  0.20230  0.91590  0.16330  1.0000 0.288643088
H   H46       1.0  0.07640  0.85780  0.16870  1.0000 0.2760773709
H   H47       1.0  0.04250  0.72550  0.24380  1.0000 0.1011531649
H   H48       1.0  0.06030  0.81230  0.29250  1.0000 0.1085711946
H   H49       1.0  0.28600  0.89980  0.26650  1.0000 0.1288145276
H   H50       1.0  0.19710  0.82150  0.33890  1.0000 0.1411830496
H   H51       1.0  0.29400  0.97460  0.32030  1.0000 0.1411830496
H   H52       1.0  0.28420  0.10460  0.16110  1.0000 0.1085711946
H   H53       1.0  0.32750  0.10390  0.23830  1.0000 0.1011531649
H   H54       1.0  0.08330  0.99170  0.21480  1.0000 0.1288145276
H   H55       1.0  0.22510  0.14050  0.25020  1.0000 0.1288145276
H   H56       1.0  0.13430  0.00050  0.29180  1.0000 0.1411830496
H   H57       1.0  0.08410  0.79770  0.66330  1.0000 0.288643088
H   H58       1.0  0.14220  0.92360  0.66870  1.0000 0.2760773709
H   H59       1.0  0.27450  0.95750  0.74380  1.0000 0.1011531649
H   H60       1.0  0.18770  0.93970  0.79250  1.0000 0.1085711946
H   H61       1.0  0.10020  0.71400  0.76650  1.0000 0.1288145276
H   H62       1.0  0.17850  0.80290  0.83890  1.0000 0.1411830496
H   H63       1.0  0.02540  0.70600  0.82030  1.0000 0.1411830496
H   H64       1.0  0.89540  0.71580  0.66110  1.0000 0.1085711946
H   H65       1.0  0.89610  0.67250  0.73830  1.0000 0.1011531649
H   H66       1.0  0.00830  0.91670  0.71480  1.0000 0.1288145276
H   H67       1.0  0.85950  0.77490  0.75020  1.0000 0.1288145276
H   H68       1.0  0.99950  0.86570  0.79180  1.0000 0.1411830496
H   H69       1.0  0.79770  0.08410  0.83670  1.0000 0.288643088
H   H70       1.0  0.92360  0.14220  0.83130  1.0000 0.2760773709
H   H71       1.0  0.95750  0.27450  0.75620  1.0000 0.1011531649
H   H72       1.0  0.93970  0.18770  0.70750  1.0000 0.1085711946
H   H73       1.0  0.71400  0.10020  0.73350  1.0000 0.1288145276
H   H74       1.0  0.80290  0.17850  0.66110  1.0000 0.1411830496
H   H75       1.0  0.70600  0.02540  0.67970  1.0000 0.1411830496
H   H76       1.0  0.71580  0.89540  0.83890  1.0000 0.1085711946
H   H77       1.0  0.67250  0.89610  0.76170  1.0000 0.1011531649
H   H78       1.0  0.91670  0.00830  0.78520  1.0000 0.1288145276
H   H79       1.0  0.77490  0.85950  0.74980  1.0000 0.1288145276
H   H80       1.0  0.86570  0.99950  0.70820  1.0000 0.1411830496
C   C1        1.0  0.85955  0.02833  0.02137  1.0000 0.5473772696
C   C2        1.0  0.02833  0.85955  0.47863  1.0000 0.5473772696
C   C3        1.0  0.14045  0.97167  0.97863  1.0000 0.5473772696
C   C4        1.0  0.97167  0.14045  0.52137  1.0000 0.5473772696
C   C5        1.0  0.93316  0.01440  0.00956  1.0000 -0.0181777687
C   C6        1.0  0.01440  0.93316  0.49044  1.0000 -0.0181777687
C   C7        1.0  0.06684  0.98560  0.99044  1.0000 -0.0181777687
C   C8        1.0  0.98560  0.06684  0.50956  1.0000 -0.0181777687
C   C9        1.0  0.88189  0.92185  0.95748  1.0000 -0.1093364695
C   C10       1.0  0.92185  0.88189  0.54252  1.0000 -0.1093364695
C   C11       1.0  0.11811  0.07815  0.04252  1.0000 -0.1093364695
C   C12       1.0  0.07815  0.11811  0.45748  1.0000 -0.1093364695
C   C13       1.0  0.05162  0.09268  0.05243  1.0000 -0.1192322344
C   C14       1.0  0.09268  0.05162  0.44757  1.0000 -0.1192322344
C   C15       1.0  0.94838  0.90732  0.94757  1.0000 -0.1192322344
C   C16       1.0  0.90732  0.94838  0.55243  1.0000 -0.1192322344
C   C17       1.0  0.83947  0.45133  0.61349  1.0000 0.5785358584
C   C18       1.0  0.45133  0.83947  0.88651  1.0000 0.5785358584
C   C19       1.0  0.16053  0.54867  0.38651  1.0000 0.5785358584
C   C20       1.0  0.54867  0.16053  0.11349  1.0000 0.5785358584
C   C21       1.0  0.75969  0.37571  0.68379  1.0000 -0.033020545
C   C22       1.0  0.37571  0.75969  0.81621  1.0000 -0.033020545
C   C23       1.0  0.24031  0.62429  0.31621  1.0000 -0.033020545
C   C24       1.0  0.62429  0.24031  0.18379  1.0000 -0.033020545
C   C25       1.0  0.65104  0.33618  0.69919  1.0000 -0.1192322344
C   C26       1.0  0.33618  0.65104  0.80081  1.0000 -0.1192322344
C   C27       1.0  0.34896  0.66382  0.30081  1.0000 -0.1192322344
C   C28       1.0  0.66382  0.34896  0.19919  1.0000 -0.1192322344
C   C29       1.0  0.61764  0.24218  0.81693  1.0000 -0.0181777687
C   C30       1.0  0.24218  0.61764  0.68307  1.0000 -0.0181777687
C   C31       1.0  0.38236  0.75782  0.18307  1.0000 -0.0181777687
C   C32       1.0  0.75782  0.38236  0.31693  1.0000 -0.0181777687
C   C33       1.0  0.57989  0.26879  0.76527  1.0000 -0.1192322344
C   C34       1.0  0.26879  0.57989  0.73473  1.0000 -0.1192322344
C   C35       1.0  0.42011  0.73121  0.23473  1.0000 -0.1192322344
C   C36       1.0  0.73121  0.42011  0.26527  1.0000 -0.1192322344
C   C37       1.0  0.72540  0.28054  0.80105  1.0000 -0.0982536266
C   C38       1.0  0.28054  0.72540  0.69895  1.0000 -0.0982536266
C   C39       1.0  0.27460  0.71946  0.19895  1.0000 -0.0982536266
C   C40       1.0  0.71946  0.27460  0.30105  1.0000 -0.0982536266
C   C41       1.0  0.79506  0.34634  0.73481  1.0000 -0.1093364695
C   C42       1.0  0.34634  0.79506  0.76519  1.0000 -0.1093364695
C   C43       1.0  0.20494  0.65366  0.26519  1.0000 -0.1093364695
C   C44       1.0  0.65366  0.20494  0.23481  1.0000 -0.1093364695
C   C45       1.0  0.54616  0.17526  0.88965  1.0000 0.5888427308
C   C46       1.0  0.17526  0.54616  0.61035  1.0000 0.5888427308
C   C47       1.0  0.45384  0.82474  0.11035  1.0000 0.5888427308
C   C48       1.0  0.82474  0.45384  0.38965  1.0000 0.5888427308
C   C49       1.0  0.80996  0.21670  0.96195  1.0000 0.5785358584
C   C50       1.0  0.21670  0.80996  0.53805  1.0000 0.5785358584
C   C51       1.0  0.19004  0.78330  0.03805  1.0000 0.5785358584
C   C52       1.0  0.78330  0.19004  0.46195  1.0000 0.5785358584
C   C53       1.0  0.90674  0.36282  0.98182  1.0000 -0.0181777687
C   C54       1.0  0.36282  0.90674  0.51818  1.0000 -0.0181777687
C   C55       1.0  0.09326  0.63718  0.01818  1.0000 -0.0181777687
C   C56       1.0  0.63718  0.09326  0.48182  1.0000 -0.0181777687
C   C57       1.0  0.88914  0.38544  0.04709  1.0000 -0.0912740865
C   C58       1.0  0.38544  0.88914  0.45291  1.0000 -0.0912740865
C   C59       1.0  0.11086  0.61456  0.95291  1.0000 -0.0912740865
C   C60       1.0  0.61456  0.11086  0.54709  1.0000 -0.0912740865
C   C61       1.0  0.01826  0.47782  0.93445  1.0000 -0.1093364695
C   C62       1.0  0.47782  0.01826  0.56555  1.0000 -0.1093364695
C   C63       1.0  0.98174  0.52218  0.06555  1.0000 -0.1093364695
C   C64       1.0  0.52218  0.98174  0.43445  1.0000 -0.1093364695
C   C65       1.0  0.82065  0.10935  0.24078  1.0000 -0.0149948859
C   C66       1.0  0.88506  0.23294  0.20005  1.0000 -0.4107528815
C   C67       1.0  0.05260  0.24720  0.29272  1.0000 -0.0181777687
C   C68       1.0  0.04569  0.16491  0.25558  1.0000 -0.4107528815
C   C69       1.0  0.10935  0.82065  0.25922  1.0000 -0.0149948859
C   C70       1.0  0.23294  0.88506  0.29995  1.0000 -0.4107528815
C   C71       1.0  0.24720  0.05260  0.20728  1.0000 -0.0181777687
C   C72       1.0  0.16491  0.04569  0.24442  1.0000 -0.4107528815
C   C73       1.0  0.17935  0.89065  0.75922  1.0000 -0.0149948859
C   C74       1.0  0.11494  0.76706  0.79995  1.0000 -0.4107528815
C   C75       1.0  0.94740  0.75280  0.70728  1.0000 -0.0181777687
C   C76       1.0  0.95431  0.83509  0.74442  1.0000 -0.4107528815
C   C77       1.0  0.89065  0.17935  0.74078  1.0000 -0.0149948859
C   C78       1.0  0.76706  0.11494  0.70005  1.0000 -0.4107528815
C   C79       1.0  0.75280  0.94740  0.79272  1.0000 -0.0181777687
C   C80       1.0  0.83509  0.95431  0.75558  1.0000 -0.4107528815
N   N1        1.0  0.90699  0.15513  0.30685  1.0000 -0.1989561805
N   N2        1.0  0.15513  0.90699  0.19315  1.0000 -0.1989561805
N   N3        1.0  0.09301  0.84487  0.69315  1.0000 -0.1989561805
N   N4        1.0  0.84487  0.09301  0.80685  1.0000 -0.1989561805
O   O1        1.0  0.59133  0.16333  0.93631  1.0000 -0.5596739242
O   O2        1.0  0.16333  0.59133  0.56369  1.0000 -0.5596739242
O   O3        1.0  0.40867  0.83667  0.06369  1.0000 -0.5596739242
O   O4        1.0  0.83667  0.40867  0.43631  1.0000 -0.5596739242
O   O5        1.0  0.75717  0.95911  0.97549  1.0000 -0.5596739242
O   O6        1.0  0.95911  0.75717  0.52451  1.0000 -0.5596739242
O   O7        1.0  0.24283  0.04089  0.02451  1.0000 -0.5596739242
O   O8        1.0  0.04089  0.24283  0.47549  1.0000 -0.5596739242
O   O9        1.0  0.89644  0.10040  0.07192  1.0000 -0.5399567524
O   O10       1.0  0.10040  0.89644  0.42808  1.0000 -0.5399567524
O   O11       1.0  0.10356  0.89960  0.92808  1.0000 -0.5399567524
O   O12       1.0  0.89960  0.10356  0.57192  1.0000 -0.5399567524
O   O13       1.0  0.82865  0.50657  0.57806  1.0000 -0.5399567524
O   O14       1.0  0.50657  0.82865  0.92194  1.0000 -0.5399567524
O   O15       1.0  0.17135  0.49343  0.42194  1.0000 -0.5399567524
O   O16       1.0  0.49343  0.17135  0.07806  1.0000 -0.5399567524
O   O17       1.0  0.91112  0.45410  0.59536  1.0000 -0.5508224258
O   O18       1.0  0.45410  0.91112  0.90464  1.0000 -0.5508224258
O   O19       1.0  0.08888  0.54590  0.40464  1.0000 -0.5508224258
O   O20       1.0  0.54590  0.08888  0.09536  1.0000 -0.5508224258
O   O21       1.0  0.44415  0.13617  0.90010  1.0000 -0.5325870702
O   O22       1.0  0.13617  0.44415  0.59990  1.0000 -0.5325870702
O   O23       1.0  0.55585  0.86383  0.09990  1.0000 -0.5325870702
O   O24       1.0  0.86383  0.55585  0.40010  1.0000 -0.5325870702
O   O25       1.0  0.70802  0.11394  0.00796  1.0000 -0.599981744
O   O26       1.0  0.11394  0.70802  0.49204  1.0000 -0.599981744
O   O27       1.0  0.29198  0.88606  0.99204  1.0000 -0.599981744
O   O28       1.0  0.88606  0.29198  0.50796  1.0000 -0.599981744
O   O29       1.0  0.83183  0.19913  0.90635  1.0000 -0.5508224258
O   O30       1.0  0.19913  0.83183  0.59365  1.0000 -0.5508224258
O   O31       1.0  0.16817  0.80087  0.09365  1.0000 -0.5508224258
O   O32       1.0  0.80087  0.16817  0.40635  1.0000 -0.5508224258
