# DDEC6 charges by PACMAN v1.1 (https://github.com/mtap-research/PACMAN-charge/)
data_2006[Zn][bcg]3[ION]4
_chemical_formula_sum              "Zn6 H80 C80 N4 O32"
_cell_length_a       17.4938
_cell_length_b       17.4938
_cell_length_c       18.1814
_cell_angle_alpha    87.7457
_cell_angle_beta     92.2543
_cell_angle_gamma    147.198

_symmetry_space_group_name_H-M    "P 1"
_symmetry_Int_Tables_number       1

loop_
  _symmetry_equiv_pos_as_xyz
  'x, y, z'

loop_
  _atom_site_type_symbol
  _atom_site_label
  _atom_site_symmetry_multiplicity
  _atom_site_fract_x
  _atom_site_fract_y
  _atom_site_fract_z
  _atom_site_occupancy
  _atom_site_charge
Zn  Zn1       1.0  0.54355  0.85001  0.00347  1.0000 0.9073071132
Zn  Zn2       1.0  0.85001  0.54355  0.49653  1.0000 0.9073071132
Zn  Zn3       1.0  0.45645  0.14999  0.99653  1.0000 0.9073071132
Zn  Zn4       1.0  0.14999  0.45645  0.50347  1.0000 0.9073071132
Zn  Zn5       1.0  0.50000  0.00000  0.00000  1.0000 0.9915076743
Zn  Zn6       1.0  0.00000  0.50000  0.50000  1.0000 0.9915076743
H   H1        1.0  0.34410  0.41230  0.08520  1.0000 0.11983961
H   H2        1.0  0.41230  0.34410  0.41480  1.0000 0.11983961
H   H3        1.0  0.65590  0.58770  0.91480  1.0000 0.11983961
H   H4        1.0  0.58770  0.65590  0.58520  1.0000 0.11983961
H   H5        1.0  0.63670  0.70090  0.93350  1.0000 0.11983961
H   H6        1.0  0.70090  0.63670  0.56650  1.0000 0.11983961
H   H7        1.0  0.36330  0.29910  0.06650  1.0000 0.11983961
H   H8        1.0  0.29910  0.36330  0.43350  1.0000 0.11983961
H   H9        1.0  0.03980  0.47260  0.89130  1.0000 0.1069641163
H   H10       1.0  0.47260  0.03980  0.60870  1.0000 0.1069641163
H   H11       1.0  0.96020  0.52740  0.10870  1.0000 0.1069641163
H   H12       1.0  0.52740  0.96020  0.39130  1.0000 0.1069641163
H   H13       1.0  0.18650  0.67870  0.08030  1.0000 0.11983961
H   H14       1.0  0.67870  0.18650  0.41970  1.0000 0.11983961
H   H15       1.0  0.81350  0.32130  0.91970  1.0000 0.11983961
H   H16       1.0  0.32130  0.81350  0.58030  1.0000 0.11983961
H   H17       1.0  0.25130  0.98470  0.77750  1.0000 0.11983961
H   H18       1.0  0.98470  0.25130  0.72250  1.0000 0.11983961
H   H19       1.0  0.74870  0.01530  0.22250  1.0000 0.11983961
H   H20       1.0  0.01530  0.74870  0.27750  1.0000 0.11983961
H   H21       1.0  0.86240  0.13380  0.83100  1.0000 0.11983961
H   H22       1.0  0.13380  0.86240  0.66900  1.0000 0.11983961
H   H23       1.0  0.13760  0.86620  0.16900  1.0000 0.11983961
H   H24       1.0  0.86620  0.13760  0.33100  1.0000 0.11983961
H   H25       1.0  0.63500  0.12840  0.77540  1.0000 0.1280708832
H   H26       1.0  0.12840  0.63500  0.72460  1.0000 0.1280708832
H   H27       1.0  0.36500  0.87160  0.22460  1.0000 0.1280708832
H   H28       1.0  0.87160  0.36500  0.27540  1.0000 0.1280708832
H   H29       1.0  0.24090  0.75330  0.83380  1.0000 0.11983961
H   H30       1.0  0.75330  0.24090  0.66620  1.0000 0.11983961
H   H31       1.0  0.75910  0.24670  0.16620  1.0000 0.11983961
H   H32       1.0  0.24670  0.75910  0.33380  1.0000 0.11983961
H   H33       1.0  0.42780  0.64560  0.32980  1.0000 0.2744779835
H   H34       1.0  0.30030  0.58270  0.33850  1.0000 0.2861529092
H   H35       1.0  0.45490  0.77090  0.25700  1.0000 0.0997613377
H   H36       1.0  0.43000  0.68120  0.20590  1.0000 0.1069641163
H   H37       1.0  0.19780  0.52220  0.19040  1.0000 0.1398712645
H   H38       1.0  0.29980  0.67380  0.16430  1.0000 0.1398712645
H   H39       1.0  0.22480  0.61440  0.24050  1.0000 0.1280708832
H   H40       1.0  0.22180  0.39980  0.33750  1.0000 0.1069641163
H   H41       1.0  0.18390  0.40310  0.25900  1.0000 0.0997613377
H   H42       1.0  0.37800  0.50920  0.21120  1.0000 0.1398712645
H   H43       1.0  0.28520  0.36880  0.25160  1.0000 0.1280708832
H   H44       1.0  0.42250  0.51430  0.28960  1.0000 0.1280708832
H   H45       1.0  0.64560  0.42780  0.17020  1.0000 0.2744779835
H   H46       1.0  0.58270  0.30030  0.16150  1.0000 0.2861529092
H   H47       1.0  0.77090  0.45490  0.24300  1.0000 0.0997613377
H   H48       1.0  0.68120  0.43000  0.29410  1.0000 0.1069641163
H   H49       1.0  0.52220  0.19780  0.30960  1.0000 0.1398712645
H   H50       1.0  0.67380  0.29980  0.33570  1.0000 0.1398712645
H   H51       1.0  0.61440  0.22480  0.25950  1.0000 0.1280708832
H   H52       1.0  0.39980  0.22180  0.16250  1.0000 0.1069641163
H   H53       1.0  0.40310  0.18390  0.24100  1.0000 0.0997613377
H   H54       1.0  0.50920  0.37800  0.28880  1.0000 0.1398712645
H   H55       1.0  0.36880  0.28520  0.24840  1.0000 0.1280708832
H   H56       1.0  0.51430  0.42250  0.21040  1.0000 0.1280708832
H   H57       1.0  0.57220  0.35440  0.67020  1.0000 0.2744779835
H   H58       1.0  0.69970  0.41730  0.66150  1.0000 0.2861529092
H   H59       1.0  0.54510  0.22910  0.74300  1.0000 0.0997613377
H   H60       1.0  0.57000  0.31880  0.79410  1.0000 0.1069641163
H   H61       1.0  0.80220  0.47780  0.80960  1.0000 0.1398712645
H   H62       1.0  0.70020  0.32620  0.83570  1.0000 0.1398712645
H   H63       1.0  0.77520  0.38560  0.75950  1.0000 0.1280708832
H   H64       1.0  0.77820  0.60020  0.66250  1.0000 0.1069641163
H   H65       1.0  0.81610  0.59690  0.74100  1.0000 0.0997613377
H   H66       1.0  0.62200  0.49080  0.78880  1.0000 0.1398712645
H   H67       1.0  0.71480  0.63120  0.74840  1.0000 0.1280708832
H   H68       1.0  0.57750  0.48570  0.71040  1.0000 0.1280708832
H   H69       1.0  0.35440  0.57220  0.82980  1.0000 0.2744779835
H   H70       1.0  0.41730  0.69970  0.83850  1.0000 0.2861529092
H   H71       1.0  0.22910  0.54510  0.75700  1.0000 0.0997613377
H   H72       1.0  0.31880  0.57000  0.70590  1.0000 0.1069641163
H   H73       1.0  0.47780  0.80220  0.69040  1.0000 0.1398712645
H   H74       1.0  0.32620  0.70020  0.66430  1.0000 0.1398712645
H   H75       1.0  0.38560  0.77520  0.74050  1.0000 0.1280708832
H   H76       1.0  0.60020  0.77820  0.83750  1.0000 0.1069641163
H   H77       1.0  0.59690  0.81610  0.75900  1.0000 0.0997613377
H   H78       1.0  0.49080  0.62200  0.71120  1.0000 0.1398712645
H   H79       1.0  0.63120  0.71480  0.75160  1.0000 0.1280708832
H   H80       1.0  0.48570  0.57750  0.78960  1.0000 0.1280708832
C   C1        1.0  0.47640  0.64320  0.02360  1.0000 0.5473503123
C   C2        1.0  0.64320  0.47640  0.47640  1.0000 0.5473503123
C   C3        1.0  0.52360  0.35680  0.97640  1.0000 0.5473503123
C   C4        1.0  0.35680  0.52360  0.52360  1.0000 0.5473503123
C   C5        1.0  0.48877  0.56903  0.01112  1.0000 -0.0208892637
C   C6        1.0  0.56903  0.48877  0.48888  1.0000 -0.0208892637
C   C7        1.0  0.51123  0.43097  0.98888  1.0000 -0.0208892637
C   C8        1.0  0.43097  0.51123  0.51112  1.0000 -0.0208892637
C   C9        1.0  0.40728  0.44832  0.05070  1.0000 -0.1185816924
C   C10       1.0  0.44832  0.40728  0.44930  1.0000 -0.1185816924
C   C11       1.0  0.59272  0.55168  0.94930  1.0000 -0.1185816924
C   C12       1.0  0.55168  0.59272  0.55070  1.0000 -0.1185816924
C   C13       1.0  0.58110  0.61970  0.96060  1.0000 -0.1112911577
C   C14       1.0  0.61970  0.58110  0.53940  1.0000 -0.1112911577
C   C15       1.0  0.41890  0.38030  0.03940  1.0000 -0.1112911577
C   C16       1.0  0.38030  0.41890  0.46060  1.0000 -0.1112911577
C   C17       1.0  0.28082  0.68618  0.96427  1.0000 0.5744388948
C   C18       1.0  0.68618  0.28082  0.53573  1.0000 0.5744388948
C   C19       1.0  0.71918  0.31382  0.03573  1.0000 0.5744388948
C   C20       1.0  0.31382  0.71918  0.46427  1.0000 0.5744388948
C   C21       1.0  0.13666  0.59214  0.98296  1.0000 -0.0208892637
C   C22       1.0  0.59214  0.13666  0.51704  1.0000 -0.0208892637
C   C23       1.0  0.86334  0.40786  0.01704  1.0000 -0.0208892637
C   C24       1.0  0.40786  0.86334  0.48296  1.0000 -0.0208892637
C   C25       1.0  0.02393  0.48387  0.93490  1.0000 -0.1112911577
C   C26       1.0  0.48387  0.02393  0.56510  1.0000 -0.1112911577
C   C27       1.0  0.97607  0.51613  0.06510  1.0000 -0.1112911577
C   C28       1.0  0.51613  0.97607  0.43490  1.0000 -0.1112911577
C   C29       1.0  0.11214  0.60746  0.04796  1.0000 -0.0991421615
C   C30       1.0  0.60746  0.11214  0.45204  1.0000 -0.0991421615
C   C31       1.0  0.88786  0.39254  0.95204  1.0000 -0.0991421615
C   C32       1.0  0.39254  0.88786  0.54796  1.0000 -0.0991421615
C   C33       1.0  0.32592  0.95388  0.89012  1.0000 0.5909795414
C   C34       1.0  0.95388  0.32592  0.60988  1.0000 0.5909795414
C   C35       1.0  0.67408  0.04612  0.10988  1.0000 0.5909795414
C   C36       1.0  0.04612  0.67408  0.39012  1.0000 0.5909795414
C   C37       1.0  0.25548  0.87952  0.81785  1.0000 -0.0208892637
C   C38       1.0  0.87952  0.25548  0.68215  1.0000 -0.0208892637
C   C39       1.0  0.74452  0.12048  0.18215  1.0000 -0.0208892637
C   C40       1.0  0.12048  0.74452  0.31785  1.0000 -0.0208892637
C   C41       1.0  0.22499  0.91281  0.76739  1.0000 -0.1185816924
C   C42       1.0  0.91281  0.22499  0.73261  1.0000 -0.1185816924
C   C43       1.0  0.77501  0.08719  0.23261  1.0000 -0.1185816924
C   C44       1.0  0.08719  0.77501  0.26739  1.0000 -0.1185816924
C   C45       1.0  0.84027  0.15553  0.79799  1.0000 -0.1185816924
C   C46       1.0  0.15553  0.84027  0.70201  1.0000 -0.1185816924
C   C47       1.0  0.15973  0.84447  0.20201  1.0000 -0.1185816924
C   C48       1.0  0.84447  0.15973  0.29799  1.0000 -0.1185816924
C   C49       1.0  0.73473  0.11807  0.81475  1.0000 -0.0266646438
C   C50       1.0  0.11807  0.73473  0.68525  1.0000 -0.0266646438
C   C51       1.0  0.26527  0.88193  0.18525  1.0000 -0.0266646438
C   C52       1.0  0.88193  0.26527  0.31475  1.0000 -0.0266646438
C   C53       1.0  0.70463  0.15177  0.76470  1.0000 -0.1112911577
C   C54       1.0  0.15177  0.70463  0.73530  1.0000 -0.1112911577
C   C55       1.0  0.29537  0.84823  0.23530  1.0000 -0.1112911577
C   C56       1.0  0.84823  0.29537  0.26470  1.0000 -0.1112911577
C   C57       1.0  0.21939  0.77561  0.80079  1.0000 -0.0991421615
C   C58       1.0  0.77561  0.21939  0.69921  1.0000 -0.0991421615
C   C59       1.0  0.78061  0.22439  0.19921  1.0000 -0.0991421615
C   C60       1.0  0.22439  0.78061  0.30079  1.0000 -0.0991421615
C   C61       1.0  0.65482  0.04238  0.88539  1.0000 0.5815365563
C   C62       1.0  0.04238  0.65482  0.61461  1.0000 0.5815365563
C   C63       1.0  0.34518  0.95762  0.11461  1.0000 0.5815365563
C   C64       1.0  0.95762  0.34518  0.38539  1.0000 0.5815365563
C   C65       1.0  0.38590  0.67550  0.24180  1.0000 -0.0208892637
C   C66       1.0  0.26682  0.61638  0.20620  1.0000 -0.4086749454
C   C67       1.0  0.26149  0.45331  0.29180  1.0000 -0.0208892637
C   C68       1.0  0.34397  0.46223  0.25810  1.0000 -0.4086749454
C   C69       1.0  0.67550  0.38590  0.25820  1.0000 -0.0208892637
C   C70       1.0  0.61638  0.26682  0.29380  1.0000 -0.4086749454
C   C71       1.0  0.45331  0.26149  0.20820  1.0000 -0.0208892637
C   C72       1.0  0.46223  0.34397  0.24190  1.0000 -0.4086749454
C   C73       1.0  0.61410  0.32450  0.75820  1.0000 -0.0208892637
C   C74       1.0  0.73318  0.38362  0.79380  1.0000 -0.4086749454
C   C75       1.0  0.73851  0.54669  0.70820  1.0000 -0.0208892637
C   C76       1.0  0.65603  0.53777  0.74190  1.0000 -0.4086749454
C   C77       1.0  0.32450  0.61410  0.74180  1.0000 -0.0208892637
C   C78       1.0  0.38362  0.73318  0.70620  1.0000 -0.4086749454
C   C79       1.0  0.54669  0.73851  0.79180  1.0000 -0.0208892637
C   C80       1.0  0.53777  0.65603  0.75810  1.0000 -0.4086749454
N   N1        1.0  0.34768  0.59392  0.30700  1.0000 -0.2038300012
N   N2        1.0  0.59392  0.34768  0.19300  1.0000 -0.2038300012
N   N3        1.0  0.65232  0.40608  0.69300  1.0000 -0.2038300012
N   N4        1.0  0.40608  0.65232  0.80700  1.0000 -0.2038300012
O   O1        1.0  0.54561  0.74559  0.97942  1.0000 -0.551505203
O   O2        1.0  0.74559  0.54561  0.52058  1.0000 -0.551505203
O   O3        1.0  0.45439  0.25441  0.02058  1.0000 -0.551505203
O   O4        1.0  0.25441  0.45439  0.47942  1.0000 -0.551505203
O   O5        1.0  0.40539  0.60661  0.07386  1.0000 -0.5277790179
O   O6        1.0  0.60661  0.40539  0.42614  1.0000 -0.5277790179
O   O7        1.0  0.59461  0.39339  0.92614  1.0000 -0.5277790179
O   O8        1.0  0.39339  0.59461  0.57386  1.0000 -0.5277790179
O   O9        1.0  0.38282  0.78798  0.00914  1.0000 -0.5999105324
O   O10       1.0  0.78798  0.38282  0.49086  1.0000 -0.5999105324
O   O11       1.0  0.61718  0.21202  0.99086  1.0000 -0.5999105324
O   O12       1.0  0.21202  0.61718  0.50914  1.0000 -0.5999105324
O   O13       1.0  0.29773  0.66187  0.90966  1.0000 -0.551505203
O   O14       1.0  0.66187  0.29773  0.59034  1.0000 -0.551505203
O   O15       1.0  0.70227  0.33813  0.09034  1.0000 -0.551505203
O   O16       1.0  0.33813  0.70227  0.40966  1.0000 -0.551505203
O   O17       1.0  0.36254  0.05266  0.90161  1.0000 -0.5277790179
O   O18       1.0  0.05266  0.36254  0.59839  1.0000 -0.5277790179
O   O19       1.0  0.63746  0.94734  0.09839  1.0000 -0.5277790179
O   O20       1.0  0.94734  0.63746  0.40161  1.0000 -0.5277790179
O   O21       1.0  0.33998  0.91042  0.93539  1.0000 -0.551505203
O   O22       1.0  0.91042  0.33998  0.56461  1.0000 -0.551505203
O   O23       1.0  0.66002  0.08958  0.06461  1.0000 -0.551505203
O   O24       1.0  0.08958  0.66002  0.43539  1.0000 -0.551505203
O   O25       1.0  0.65996  0.98204  0.91848  1.0000 -0.5395846267
O   O26       1.0  0.98204  0.65996  0.58152  1.0000 -0.5395846267
O   O27       1.0  0.34004  0.01796  0.08152  1.0000 -0.5395846267
O   O28       1.0  0.01796  0.34004  0.41848  1.0000 -0.5395846267
O   O29       1.0  0.58998  0.04542  0.90473  1.0000 -0.5395846267
O   O30       1.0  0.04542  0.58998  0.59527  1.0000 -0.5395846267
O   O31       1.0  0.41002  0.95458  0.09527  1.0000 -0.5395846267
O   O32       1.0  0.95458  0.41002  0.40473  1.0000 -0.5395846267
