# DDEC6 charges by PACMAN v1.1 (https://github.com/mtap-research/PACMAN-charge/)
data_2007[Zn][nan]3[ION]1
_chemical_formula_sum              "Zn8 P8 H64 C64 N4 O40"
_cell_length_a       13.6877
_cell_length_b       13.6877
_cell_length_c       25.822
_cell_angle_alpha    87.6981
_cell_angle_beta     92.3019
_cell_angle_gamma    143.482

_symmetry_space_group_name_H-M    "P 1"
_symmetry_Int_Tables_number       1

loop_
  _symmetry_equiv_pos_as_xyz
  'x, y, z'

loop_
  _atom_site_type_symbol
  _atom_site_label
  _atom_site_symmetry_multiplicity
  _atom_site_fract_x
  _atom_site_fract_y
  _atom_site_fract_z
  _atom_site_occupancy
  _atom_site_charge
Zn  Zn1       1.0  0.40183  0.68427  0.89172  1.0000 1.0140454744
Zn  Zn2       1.0  0.68427  0.40183  0.60828  1.0000 1.0140454744
Zn  Zn3       1.0  0.59817  0.31573  0.10828  1.0000 1.0140454744
Zn  Zn4       1.0  0.31573  0.59817  0.39172  1.0000 1.0140454744
Zn  Zn5       1.0  0.77756  0.23638  0.00162  1.0000 1.1102865313
Zn  Zn6       1.0  0.23638  0.77756  0.49838  1.0000 1.1102865313
Zn  Zn7       1.0  0.22244  0.76362  0.99838  1.0000 1.1102865313
Zn  Zn8       1.0  0.76362  0.22244  0.50162  1.0000 1.1102865313
P   P1        1.0  0.53297  0.86729  0.00085  1.0000 1.2844543133
P   P2        1.0  0.86729  0.53297  0.49915  1.0000 1.2844543133
P   P3        1.0  0.46703  0.13271  0.99915  1.0000 1.2844543133
P   P4        1.0  0.13271  0.46703  0.50085  1.0000 1.2844543133
P   P5        1.0  0.03788  0.48840  0.91203  1.0000 1.2998062347
P   P6        1.0  0.48840  0.03788  0.58797  1.0000 1.2998062347
P   P7        1.0  0.96212  0.51160  0.08797  1.0000 1.2998062347
P   P8        1.0  0.51160  0.96212  0.41203  1.0000 1.2998062347
H   H1        1.0  0.74660  0.88960  0.04440  1.0000 0.1312134304
H   H2        1.0  0.88960  0.74660  0.45560  1.0000 0.1312134304
H   H3        1.0  0.25340  0.11040  0.95560  1.0000 0.1312134304
H   H4        1.0  0.11040  0.25340  0.54440  1.0000 0.1312134304
H   H5        1.0  0.71570  0.70850  0.07870  1.0000 0.1212717865
H   H6        1.0  0.70850  0.71570  0.42130  1.0000 0.1212717865
H   H7        1.0  0.28430  0.29150  0.92130  1.0000 0.1212717865
H   H8        1.0  0.29150  0.28430  0.57870  1.0000 0.1212717865
H   H9        1.0  0.23460  0.34060  0.05400  1.0000 0.1312134304
H   H10       1.0  0.34060  0.23460  0.44600  1.0000 0.1312134304
H   H11       1.0  0.76540  0.65940  0.94600  1.0000 0.1312134304
H   H12       1.0  0.65940  0.76540  0.55400  1.0000 0.1312134304
H   H13       1.0  0.26520  0.52640  0.02470  1.0000 0.1390229922
H   H14       1.0  0.52640  0.26520  0.47530  1.0000 0.1390229922
H   H15       1.0  0.73480  0.47360  0.97530  1.0000 0.1390229922
H   H16       1.0  0.47360  0.73480  0.52470  1.0000 0.1390229922
H   H17       1.0  0.75170  0.36630  0.88480  1.0000 0.1390229922
H   H18       1.0  0.36630  0.75170  0.61520  1.0000 0.1390229922
H   H19       1.0  0.24830  0.63370  0.11520  1.0000 0.1390229922
H   H20       1.0  0.63370  0.24830  0.38480  1.0000 0.1390229922
H   H21       1.0  0.64740  0.36040  0.81030  1.0000 0.1312134304
H   H22       1.0  0.36040  0.64740  0.68970  1.0000 0.1312134304
H   H23       1.0  0.35260  0.63960  0.18970  1.0000 0.1312134304
H   H24       1.0  0.63960  0.35260  0.31030  1.0000 0.1312134304
H   H25       1.0  0.00620  0.54420  0.72970  1.0000 0.1312134304
H   H26       1.0  0.54420  0.00620  0.77030  1.0000 0.1312134304
H   H27       1.0  0.99380  0.45580  0.27030  1.0000 0.1312134304
H   H28       1.0  0.45580  0.99380  0.22970  1.0000 0.1312134304
H   H29       1.0  0.11210  0.55010  0.80430  1.0000 0.1312134304
H   H30       1.0  0.55010  0.11210  0.69570  1.0000 0.1312134304
H   H31       1.0  0.88790  0.44990  0.19570  1.0000 0.1312134304
H   H32       1.0  0.44990  0.88790  0.30430  1.0000 0.1312134304
H   H33       1.0  0.15240  0.85480  0.58060  1.0000 0.2702005555
H   H34       1.0  0.99250  0.77110  0.58590  1.0000 0.2702005555
H   H35       1.0  0.09200  0.81060  0.66460  1.0000 0.1390229922
H   H36       1.0  0.07580  0.91160  0.65830  1.0000 0.1472817411
H   H37       1.0  0.24750  0.99970  0.65270  1.0000 0.1472817411
H   H38       1.0  0.12520  0.95620  0.52230  1.0000 0.1312134304
H   H39       1.0  0.26840  0.09320  0.56130  1.0000 0.1390229922
H   H40       1.0  0.09620  0.00380  0.56750  1.0000 0.1312134304
H   H41       1.0  0.85480  0.15240  0.91940  1.0000 0.2702005555
H   H42       1.0  0.77110  0.99250  0.91410  1.0000 0.2702005555
H   H43       1.0  0.81060  0.09200  0.83540  1.0000 0.1390229922
H   H44       1.0  0.91160  0.07580  0.84170  1.0000 0.1472817411
H   H45       1.0  0.99970  0.24750  0.84730  1.0000 0.1472817411
H   H46       1.0  0.95620  0.12520  0.97770  1.0000 0.1312134304
H   H47       1.0  0.09320  0.26840  0.93870  1.0000 0.1390229922
H   H48       1.0  0.00380  0.09620  0.93250  1.0000 0.1312134304
H   H49       1.0  0.84760  0.14520  0.41940  1.0000 0.2702005555
H   H50       1.0  0.00750  0.22890  0.41410  1.0000 0.2702005555
H   H51       1.0  0.90800  0.18940  0.33540  1.0000 0.1390229922
H   H52       1.0  0.92420  0.08840  0.34170  1.0000 0.1472817411
H   H53       1.0  0.75250  0.00030  0.34730  1.0000 0.1472817411
H   H54       1.0  0.87480  0.04380  0.47770  1.0000 0.1312134304
H   H55       1.0  0.73160  0.90680  0.43870  1.0000 0.1390229922
H   H56       1.0  0.90380  0.99620  0.43250  1.0000 0.1312134304
H   H57       1.0  0.14520  0.84760  0.08060  1.0000 0.2702005555
H   H58       1.0  0.22890  0.00750  0.08590  1.0000 0.2702005555
H   H59       1.0  0.18940  0.90800  0.16460  1.0000 0.1390229922
H   H60       1.0  0.08840  0.92420  0.15830  1.0000 0.1472817411
H   H61       1.0  0.00030  0.75250  0.15270  1.0000 0.1472817411
H   H62       1.0  0.04380  0.87480  0.02230  1.0000 0.1312134304
H   H63       1.0  0.90680  0.73160  0.06130  1.0000 0.1390229922
H   H64       1.0  0.99620  0.90380  0.06750  1.0000 0.1312134304
C   C1        1.0  0.51023  0.72777  0.02958  1.0000 -0.1591573923
C   C2        1.0  0.72777  0.51023  0.47042  1.0000 -0.1591573923
C   C3        1.0  0.48977  0.27223  0.97042  1.0000 -0.1591573923
C   C4        1.0  0.27223  0.48977  0.52958  1.0000 -0.1591573923
C   C5        1.0  0.64200  0.77860  0.04650  1.0000 -0.0682617368
C   C6        1.0  0.77860  0.64200  0.45350  1.0000 -0.0682617368
C   C7        1.0  0.35800  0.22140  0.95350  1.0000 -0.0682617368
C   C8        1.0  0.22140  0.35800  0.54650  1.0000 -0.0682617368
C   C9        1.0  0.62380  0.66940  0.06650  1.0000 -0.0922405919
C   C10       1.0  0.66940  0.62380  0.43350  1.0000 -0.0922405919
C   C11       1.0  0.37620  0.33060  0.93350  1.0000 -0.0922405919
C   C12       1.0  0.33060  0.37620  0.56650  1.0000 -0.0922405919
C   C13       1.0  0.47255  0.50465  0.06870  1.0000 -0.0068913277
C   C14       1.0  0.50465  0.47255  0.43130  1.0000 -0.0068913277
C   C15       1.0  0.52745  0.49535  0.93130  1.0000 -0.0068913277
C   C16       1.0  0.49535  0.52745  0.56870  1.0000 -0.0068913277
C   C17       1.0  0.33900  0.45200  0.05260  1.0000 -0.0837761214
C   C18       1.0  0.45200  0.33900  0.44740  1.0000 -0.0837761214
C   C19       1.0  0.66100  0.54800  0.94740  1.0000 -0.0837761214
C   C20       1.0  0.54800  0.66100  0.55260  1.0000 -0.0837761214
C   C21       1.0  0.35770  0.56390  0.03410  1.0000 -0.0837761214
C   C22       1.0  0.56390  0.35770  0.46590  1.0000 -0.0837761214
C   C23       1.0  0.64230  0.43610  0.96590  1.0000 -0.0837761214
C   C24       1.0  0.43610  0.64230  0.53410  1.0000 -0.0837761214
C   C25       1.0  0.45772  0.38788  0.08750  1.0000 0.5690083479
C   C26       1.0  0.38788  0.45772  0.41250  1.0000 0.5690083479
C   C27       1.0  0.54228  0.61212  0.91250  1.0000 0.5690083479
C   C28       1.0  0.61212  0.54228  0.58750  1.0000 0.5690083479
C   C29       1.0  0.94887  0.46813  0.85263  1.0000 -0.1591573923
C   C30       1.0  0.46813  0.94887  0.64737  1.0000 -0.1591573923
C   C31       1.0  0.05113  0.53187  0.14737  1.0000 -0.1591573923
C   C32       1.0  0.53187  0.05113  0.35263  1.0000 -0.1591573923
C   C33       1.0  0.80660  0.40520  0.85370  1.0000 -0.0593313079
C   C34       1.0  0.40520  0.80660  0.64630  1.0000 -0.0593313079
C   C35       1.0  0.19340  0.59480  0.14630  1.0000 -0.0593313079
C   C36       1.0  0.59480  0.19340  0.35370  1.0000 -0.0593313079
C   C37       1.0  0.74170  0.39830  0.80850  1.0000 -0.0922405919
C   C38       1.0  0.39830  0.74170  0.69150  1.0000 -0.0922405919
C   C39       1.0  0.25830  0.60170  0.19150  1.0000 -0.0922405919
C   C40       1.0  0.60170  0.25830  0.30850  1.0000 -0.0922405919
C   C41       1.0  0.81270  0.44530  0.76266  1.0000 -0.0018485411
C   C42       1.0  0.44530  0.81270  0.73734  1.0000 -0.0018485411
C   C43       1.0  0.18730  0.55470  0.23734  1.0000 -0.0018485411
C   C44       1.0  0.55470  0.18730  0.26266  1.0000 -0.0018485411
C   C45       1.0  0.95240  0.50620  0.76110  1.0000 -0.0837761214
C   C46       1.0  0.50620  0.95240  0.73890  1.0000 -0.0837761214
C   C47       1.0  0.04760  0.49380  0.23890  1.0000 -0.0837761214
C   C48       1.0  0.49380  0.04760  0.26110  1.0000 -0.0837761214
C   C49       1.0  0.01860  0.51340  0.80640  1.0000 -0.0682617368
C   C50       1.0  0.51340  0.01860  0.69360  1.0000 -0.0682617368
C   C51       1.0  0.98140  0.48660  0.19360  1.0000 -0.0682617368
C   C52       1.0  0.48660  0.98140  0.30640  1.0000 -0.0682617368
C   C53       1.0  0.73290  0.42430  0.71400  1.0000 0.5690083479
C   C54       1.0  0.42430  0.73290  0.78600  1.0000 0.5690083479
C   C55       1.0  0.26710  0.57570  0.28600  1.0000 0.5690083479
C   C56       1.0  0.57570  0.26710  0.21400  1.0000 0.5690083479
C   C57       1.0  0.13170  0.90010  0.64640  1.0000 -0.2718173887
C   C58       1.0  0.15200  0.99060  0.55770  1.0000 -0.2910389777
C   C59       1.0  0.90010  0.13170  0.85360  1.0000 -0.2718173887
C   C60       1.0  0.99060  0.15200  0.94230  1.0000 -0.2910389777
C   C61       1.0  0.86830  0.09990  0.35360  1.0000 -0.2718173887
C   C62       1.0  0.84800  0.00940  0.44230  1.0000 -0.2910389777
C   C63       1.0  0.09990  0.86830  0.14640  1.0000 -0.2718173887
C   C64       1.0  0.00940  0.84800  0.05770  1.0000 -0.2910389777
N   N1        1.0  0.10090  0.86730  0.59090  1.0000 -0.0922405919
N   N2        1.0  0.86730  0.10090  0.90910  1.0000 -0.0922405919
N   N3        1.0  0.89910  0.13270  0.40910  1.0000 -0.0922405919
N   N4        1.0  0.13270  0.89910  0.09090  1.0000 -0.0922405919
O   O1        1.0  0.53071  0.85769  0.94261  1.0000 -0.7510110203
O   O2        1.0  0.85769  0.53071  0.55739  1.0000 -0.7510110203
O   O3        1.0  0.46929  0.14231  0.05739  1.0000 -0.7510110203
O   O4        1.0  0.14231  0.46929  0.44261  1.0000 -0.7510110203
O   O5        1.0  0.69935  0.04025  0.01854  1.0000 -0.7510110203
O   O6        1.0  0.04025  0.69935  0.48146  1.0000 -0.7510110203
O   O7        1.0  0.30065  0.95975  0.98146  1.0000 -0.7510110203
O   O8        1.0  0.95975  0.30065  0.51854  1.0000 -0.7510110203
O   O9        1.0  0.39217  0.81243  0.02118  1.0000 -0.7657417084
O   O10       1.0  0.81243  0.39217  0.47882  1.0000 -0.7657417084
O   O11       1.0  0.60783  0.18757  0.97882  1.0000 -0.7657417084
O   O12       1.0  0.18757  0.60783  0.52118  1.0000 -0.7657417084
O   O13       1.0  0.59093  0.45027  0.09503  1.0000 -0.5352261688
O   O14       1.0  0.45027  0.59093  0.40497  1.0000 -0.5352261688
O   O15       1.0  0.40907  0.54973  0.90497  1.0000 -0.5352261688
O   O16       1.0  0.54973  0.40907  0.59503  1.0000 -0.5352261688
O   O17       1.0  0.31805  0.23775  0.09345  1.0000 -0.5693146016
O   O18       1.0  0.23775  0.31805  0.40655  1.0000 -0.5693146016
O   O19       1.0  0.68195  0.76225  0.90655  1.0000 -0.5693146016
O   O20       1.0  0.76225  0.68195  0.59345  1.0000 -0.5693146016
O   O21       1.0  0.90396  0.32204  0.93971  1.0000 -0.7510110203
O   O22       1.0  0.32204  0.90396  0.56029  1.0000 -0.7510110203
O   O23       1.0  0.09604  0.67796  0.06029  1.0000 -0.7510110203
O   O24       1.0  0.67796  0.09604  0.43971  1.0000 -0.7510110203
O   O25       1.0  0.09111  0.61869  0.94098  1.0000 -0.7577755774
O   O26       1.0  0.61869  0.09111  0.55902  1.0000 -0.7577755774
O   O27       1.0  0.90889  0.38131  0.05902  1.0000 -0.7577755774
O   O28       1.0  0.38131  0.90889  0.44098  1.0000 -0.7577755774
O   O29       1.0  0.17288  0.52932  0.89735  1.0000 -0.7510110203
O   O30       1.0  0.52932  0.17288  0.60265  1.0000 -0.7510110203
O   O31       1.0  0.82712  0.47068  0.10265  1.0000 -0.7510110203
O   O32       1.0  0.47068  0.82712  0.39735  1.0000 -0.7510110203
O   O33       1.0  0.59550  0.35150  0.71630  1.0000 -0.4997746225
O   O34       1.0  0.35150  0.59550  0.78370  1.0000 -0.4997746225
O   O35       1.0  0.40450  0.64850  0.28370  1.0000 -0.4997746225
O   O36       1.0  0.64850  0.40450  0.21630  1.0000 -0.4997746225
O   O37       1.0  0.80908  0.47632  0.67231  1.0000 -0.5317389096
O   O38       1.0  0.47632  0.80908  0.82769  1.0000 -0.5317389096
O   O39       1.0  0.19092  0.52368  0.32769  1.0000 -0.5317389096
O   O40       1.0  0.52368  0.19092  0.17231  1.0000 -0.5317389096
