# DDEC6 charges by PACMAN v1.1 (https://github.com/mtap-research/PACMAN-charge/)
data_2007[Ag][dia]3[ION]2
_chemical_formula_sum              "Ag4 P4 H68 C68 S8 N8 F24"
_cell_length_a       13.627
_cell_length_b       16.321
_cell_length_c       14.044
_cell_angle_alpha    90
_cell_angle_beta     115.186
_cell_angle_gamma    90

_symmetry_space_group_name_H-M    "P 1"
_symmetry_Int_Tables_number       1

loop_
  _symmetry_equiv_pos_as_xyz
  'x, y, z'

loop_
  _atom_site_type_symbol
  _atom_site_label
  _atom_site_symmetry_multiplicity
  _atom_site_fract_x
  _atom_site_fract_y
  _atom_site_fract_z
  _atom_site_occupancy
  _atom_site_charge
Ag  Ag1       1.0  0.40988  0.93072  0.72897  1.0000 0.1698808066
Ag  Ag2       1.0  0.09012  0.43072  0.27103  1.0000 0.1698808066
Ag  Ag3       1.0  0.59012  0.06928  0.27103  1.0000 0.1698808066
Ag  Ag4       1.0  0.90988  0.56928  0.72897  1.0000 0.1698808066
P   P1        1.0  0.23891  0.25178  0.81114  1.0000 1.4909628535
P   P2        1.0  0.26109  0.75178  0.18886  1.0000 1.4909628535
P   P3        1.0  0.76109  0.74822  0.18886  1.0000 1.4833965802
P   P4        1.0  0.73891  0.24822  0.81114  1.0000 1.4833965802
H   H1        1.0  0.18230  0.00190  0.57160  1.0000 0.1011233272
H   H2        1.0  0.31770  0.50190  0.42840  1.0000 0.1011233272
H   H3        1.0  0.81770  0.99810  0.42840  1.0000 0.1011233272
H   H4        1.0  0.68230  0.49810  0.57160  1.0000 0.1011233272
H   H5        1.0  0.09540  0.09870  0.44510  1.0000 0.1506223397
H   H6        1.0  0.40460  0.59870  0.55490  1.0000 0.1506223397
H   H7        1.0  0.90460  0.90130  0.55490  1.0000 0.1506223397
H   H8        1.0  0.59540  0.40130  0.44510  1.0000 0.1506223397
H   H9        1.0  0.37370  0.22420  0.55040  1.0000 0.1506223397
H   H10       1.0  0.12630  0.72420  0.44960  1.0000 0.1506223397
H   H11       1.0  0.62630  0.77580  0.44960  1.0000 0.1506223397
H   H12       1.0  0.87370  0.27580  0.55040  1.0000 0.1506223397
H   H13       1.0  0.45100  0.12520  0.67540  1.0000 0.1136476684
H   H14       1.0  0.04900  0.62520  0.32460  1.0000 0.1136476684
H   H15       1.0  0.54900  0.87480  0.32460  1.0000 0.1136476684
H   H16       1.0  0.95100  0.37480  0.67540  1.0000 0.1136476684
H   H17       1.0  0.09870  0.21600  0.34970  1.0000 0.1399449365
H   H18       1.0  0.40130  0.71600  0.65030  1.0000 0.1399449365
H   H19       1.0  0.90130  0.78400  0.65030  1.0000 0.1399449365
H   H20       1.0  0.59870  0.28400  0.34970  1.0000 0.1399449365
H   H21       1.0  0.21090  0.23080  0.34700  1.0000 0.1399449365
H   H22       1.0  0.28910  0.73080  0.65300  1.0000 0.1399449365
H   H23       1.0  0.78910  0.76920  0.65300  1.0000 0.1399449365
H   H24       1.0  0.71090  0.26920  0.34700  1.0000 0.1399449365
H   H25       1.0  0.00680  0.30070  0.43420  1.0000 0.1212255561
H   H26       1.0  0.49320  0.80070  0.56580  1.0000 0.1212255561
H   H27       1.0  0.99320  0.69930  0.56580  1.0000 0.1212255561
H   H28       1.0  0.50680  0.19930  0.43420  1.0000 0.1212255561
H   H29       1.0  0.09630  0.30780  0.55050  1.0000 0.1506223397
H   H30       1.0  0.40370  0.80780  0.44950  1.0000 0.1506223397
H   H31       1.0  0.90370  0.69220  0.44950  1.0000 0.1506223397
H   H32       1.0  0.59630  0.19220  0.55050  1.0000 0.1506223397
H   H33       1.0  0.16130  0.44710  0.62080  1.0000 0.1399449365
H   H34       1.0  0.33870  0.94710  0.37920  1.0000 0.1399449365
H   H35       1.0  0.83870  0.55290  0.37920  1.0000 0.1399449365
H   H36       1.0  0.66130  0.05290  0.62080  1.0000 0.1399449365
H   H37       1.0  0.78150  0.42390  0.30060  1.0000 0.1399449365
H   H38       1.0  0.71850  0.92390  0.69940  1.0000 0.1399449365
H   H39       1.0  0.21850  0.57610  0.69940  1.0000 0.1399449365
H   H40       1.0  0.28150  0.07610  0.30060  1.0000 0.1399449365
H   H41       1.0  0.85660  0.34690  0.33970  1.0000 0.1273052671
H   H42       1.0  0.64340  0.84690  0.66030  1.0000 0.1273052671
H   H43       1.0  0.14340  0.65310  0.66030  1.0000 0.1273052671
H   H44       1.0  0.35660  0.15310  0.33970  1.0000 0.1273052671
H   H45       1.0  0.75110  0.51260  0.13630  1.0000 0.1506223397
H   H46       1.0  0.74890  0.01260  0.86370  1.0000 0.1506223397
H   H47       1.0  0.24890  0.48740  0.86370  1.0000 0.1506223397
H   H48       1.0  0.25110  0.98740  0.13630  1.0000 0.1506223397
H   H49       1.0  0.86390  0.55310  0.20620  1.0000 0.1399449365
H   H50       1.0  0.63610  0.05310  0.79380  1.0000 0.1399449365
H   H51       1.0  0.13610  0.44690  0.79380  1.0000 0.1399449365
H   H52       1.0  0.36390  0.94690  0.20620  1.0000 0.1399449365
H   H53       1.0  0.74240  0.44190  0.96270  1.0000 0.1506223397
H   H54       1.0  0.75760  0.94190  0.03730  1.0000 0.1506223397
H   H55       1.0  0.25760  0.55810  0.03730  1.0000 0.1506223397
H   H56       1.0  0.24240  0.05810  0.96270  1.0000 0.1506223397
H   H57       1.0  0.95810  0.61720  0.11480  1.0000 0.1506223397
H   H58       1.0  0.54190  0.11720  0.88520  1.0000 0.1506223397
H   H59       1.0  0.04190  0.38280  0.88520  1.0000 0.1506223397
H   H60       1.0  0.45810  0.88280  0.11480  1.0000 0.1506223397
H   H61       1.0  0.98300  0.63700  0.96490  1.0000 0.1212255561
H   H62       1.0  0.51700  0.13700  0.03510  1.0000 0.1212255561
H   H63       1.0  0.01700  0.36300  0.03510  1.0000 0.1212255561
H   H64       1.0  0.48300  0.86300  0.96490  1.0000 0.1212255561
H   H65       1.0  0.77310  0.46680  0.81720  1.0000 0.1136476684
H   H66       1.0  0.72690  0.96680  0.18280  1.0000 0.1136476684
H   H67       1.0  0.22690  0.53320  0.18280  1.0000 0.1136476684
H   H68       1.0  0.27310  0.03320  0.81720  1.0000 0.1136476684
C   C1        1.0  0.22150  0.04720  0.56700  1.0000 0.0768305028
C   C2        1.0  0.27850  0.54720  0.43300  1.0000 0.0768305028
C   C3        1.0  0.77850  0.95280  0.43300  1.0000 0.0768305028
C   C4        1.0  0.72150  0.45280  0.56700  1.0000 0.0768305028
C   C5        1.0  0.16850  0.10510  0.49000  1.0000 -0.1956834292
C   C6        1.0  0.33150  0.60510  0.51000  1.0000 -0.1956834292
C   C7        1.0  0.83150  0.89490  0.51000  1.0000 -0.1956834292
C   C8        1.0  0.66850  0.39490  0.49000  1.0000 -0.1956834292
C   C9        1.0  0.22510  0.17240  0.48050  1.0000 0.1698808066
C   C10       1.0  0.27490  0.67240  0.51950  1.0000 0.1698808066
C   C11       1.0  0.77490  0.82760  0.51950  1.0000 0.1698808066
C   C12       1.0  0.72510  0.32760  0.48050  1.0000 0.1698808066
C   C13       1.0  0.33280  0.17930  0.55260  1.0000 -0.1822455136
C   C14       1.0  0.16720  0.67930  0.44740  1.0000 -0.1822455136
C   C15       1.0  0.66720  0.82070  0.44740  1.0000 -0.1822455136
C   C16       1.0  0.83280  0.32070  0.55260  1.0000 -0.1822455136
C   C17       1.0  0.37890  0.11910  0.62750  1.0000 0.1011233272
C   C18       1.0  0.12110  0.61910  0.37250  1.0000 0.1011233272
C   C19       1.0  0.62110  0.88090  0.37250  1.0000 0.1011233272
C   C20       1.0  0.87890  0.38090  0.62750  1.0000 0.1011233272
C   C21       1.0  0.17300  0.23290  0.39180  1.0000 -0.3081785387
C   C22       1.0  0.32700  0.73290  0.60820  1.0000 -0.3081785387
C   C23       1.0  0.82700  0.76710  0.60820  1.0000 -0.3081785387
C   C24       1.0  0.67300  0.26710  0.39180  1.0000 -0.3081785387
C   C25       1.0  0.06740  0.33333  0.48160  1.0000 -0.2760224214
C   C26       1.0  0.43260  0.83333  0.51840  1.0000 -0.2760224214
C   C27       1.0  0.93260  0.66667  0.51840  1.0000 -0.2760224214
C   C28       1.0  0.56740  0.16667  0.48160  1.0000 -0.2760224214
C   C29       1.0  0.02980  0.41929  0.48840  1.0000 0.0700822147
C   C30       1.0  0.47020  0.91929  0.51160  1.0000 0.0700822147
C   C31       1.0  0.97020  0.58071  0.51160  1.0000 0.0700822147
C   C32       1.0  0.52980  0.08071  0.48840  1.0000 0.0700822147
C   C33       1.0  0.93180  0.45182  0.41390  1.0000 0.0700822147
C   C34       1.0  0.56820  0.95182  0.58610  1.0000 0.0700822147
C   C35       1.0  0.06820  0.54818  0.58610  1.0000 0.0700822147
C   C36       1.0  0.43180  0.04818  0.41390  1.0000 0.0700822147
C   C37       1.0  0.09590  0.46843  0.57210  1.0000 -0.193015218
C   C38       1.0  0.40410  0.96843  0.42790  1.0000 -0.193015218
C   C39       1.0  0.90410  0.53157  0.42790  1.0000 -0.193015218
C   C40       1.0  0.59590  0.03157  0.57210  1.0000 -0.193015218
C   C41       1.0  0.85450  0.40400  0.31980  1.0000 -0.2917315459
C   C42       1.0  0.64550  0.90400  0.68020  1.0000 -0.2917315459
C   C43       1.0  0.14550  0.59600  0.68020  1.0000 -0.2917315459
C   C44       1.0  0.35450  0.09600  0.31980  1.0000 -0.2917315459
C   C45       1.0  0.82800  0.51130  0.15360  1.0000 -0.2917315459
C   C46       1.0  0.67200  0.01130  0.84640  1.0000 -0.2917315459
C   C47       1.0  0.17200  0.48870  0.84640  1.0000 -0.2917315459
C   C48       1.0  0.32800  0.98870  0.15360  1.0000 -0.2917315459
C   C49       1.0  0.84610  0.52728  0.05620  1.0000 0.1698808066
C   C50       1.0  0.65390  0.02728  0.94380  1.0000 0.1698808066
C   C51       1.0  0.15390  0.47272  0.94380  1.0000 0.1698808066
C   C52       1.0  0.34610  0.97272  0.05620  1.0000 0.1698808066
C   C53       1.0  0.79150  0.48230  0.96490  1.0000 -0.1822455136
C   C54       1.0  0.70850  0.98230  0.03510  1.0000 -0.1822455136
C   C55       1.0  0.20850  0.51770  0.03510  1.0000 -0.1822455136
C   C56       1.0  0.29150  0.01770  0.96490  1.0000 -0.1822455136
C   C57       1.0  0.91920  0.58600  0.05520  1.0000 -0.1822455136
C   C58       1.0  0.58080  0.08600  0.94480  1.0000 -0.1822455136
C   C59       1.0  0.08080  0.41400  0.94480  1.0000 -0.1822455136
C   C60       1.0  0.41920  0.91400  0.05520  1.0000 -0.1822455136
C   C61       1.0  0.93340  0.59760  0.96440  1.0000 0.0887828951
C   C62       1.0  0.56660  0.09760  0.03560  1.0000 0.0887828951
C   C63       1.0  0.06660  0.40240  0.03560  1.0000 0.0887828951
C   C64       1.0  0.43340  0.90240  0.96440  1.0000 0.0887828951
C   C65       1.0  0.81030  0.49770  0.87760  1.0000 0.0887828951
C   C66       1.0  0.68970  0.99770  0.12240  1.0000 0.0887828951
C   C67       1.0  0.18970  0.50230  0.12240  1.0000 0.0887828951
C   C68       1.0  0.31030  0.00230  0.87760  1.0000 0.0887828951
S   S1        1.0  0.17243  0.33815  0.43315  1.0000 0.0633047798
S   S2        1.0  0.32757  0.83815  0.56685  1.0000 0.0633047798
S   S3        1.0  0.82757  0.66185  0.56685  1.0000 0.0633047798
S   S4        1.0  0.67243  0.16185  0.43315  1.0000 0.0633047798
S   S5        1.0  0.88395  0.41059  0.20440  1.0000 0.0700822147
S   S6        1.0  0.61605  0.91059  0.79560  1.0000 0.0700822147
S   S7        1.0  0.11605  0.58941  0.79560  1.0000 0.0700822147
S   S8        1.0  0.38395  0.08941  0.20440  1.0000 0.0768305028
N   N1        1.0  0.32590  0.05267  0.63510  1.0000 -0.2112640126
N   N2        1.0  0.17410  0.55267  0.36490  1.0000 -0.2112640126
N   N3        1.0  0.67410  0.94733  0.36490  1.0000 -0.2112640126
N   N4        1.0  0.82590  0.44733  0.63510  1.0000 -0.2112640126
N   N5        1.0  0.87950  0.55507  0.87570  1.0000 -0.193015218
N   N6        1.0  0.62050  0.05507  0.12430  1.0000 -0.193015218
N   N7        1.0  0.12050  0.44493  0.12430  1.0000 -0.193015218
N   N8        1.0  0.37950  0.94493  0.87570  1.0000 -0.193015218
F   F1        1.0  0.27780  0.31090  0.74580  1.0000 -0.4109823468
F   F2        1.0  0.19460  0.19400  0.87200  1.0000 -0.3996720558
F   F3        1.0  0.35440  0.21120  0.86280  1.0000 -0.3996720558
F   F4        1.0  0.27620  0.31900  0.90070  1.0000 -0.3860480434
F   F5        1.0  0.20150  0.18700  0.71950  1.0000 -0.4156441486
F   F6        1.0  0.12130  0.29326  0.75670  1.0000 -0.4109823468
F   F7        1.0  0.22220  0.81090  0.25420  1.0000 -0.4109823468
F   F8        1.0  0.30540  0.69400  0.12800  1.0000 -0.3996720558
F   F9        1.0  0.14560  0.71120  0.13720  1.0000 -0.3996720558
F   F10       1.0  0.22380  0.81900  0.09930  1.0000 -0.3860480434
F   F11       1.0  0.29850  0.68700  0.28050  1.0000 -0.4156441486
F   F12       1.0  0.37870  0.79326  0.24330  1.0000 -0.4109823468
F   F13       1.0  0.72220  0.68910  0.25420  1.0000 -0.4109823468
F   F14       1.0  0.80540  0.80600  0.12800  1.0000 -0.3996720558
F   F15       1.0  0.64560  0.78880  0.13720  1.0000 -0.3996720558
F   F16       1.0  0.72380  0.68100  0.09930  1.0000 -0.3860480434
F   F17       1.0  0.79850  0.81300  0.28050  1.0000 -0.4156441486
F   F18       1.0  0.87870  0.70674  0.24330  1.0000 -0.4109823468
F   F19       1.0  0.77780  0.18910  0.74580  1.0000 -0.4109823468
F   F20       1.0  0.69460  0.30600  0.87200  1.0000 -0.3996720558
F   F21       1.0  0.85440  0.28880  0.86280  1.0000 -0.3996720558
F   F22       1.0  0.77620  0.18100  0.90070  1.0000 -0.3860480434
F   F23       1.0  0.70150  0.31300  0.71950  1.0000 -0.4109823468
F   F24       1.0  0.62130  0.20674  0.75670  1.0000 -0.4109823468
