# DDEC6 charges by PACMAN v1.1 (https://github.com/mtap-research/PACMAN-charge/)
data_2007[Ag][nan]3[ION]1
_chemical_formula_sum              "Ag8 H40 C60 N40 Cl7 O26"
_cell_length_a       17.0076
_cell_length_b       17.0076
_cell_length_c       7.8591
_cell_angle_alpha    90
_cell_angle_beta     90
_cell_angle_gamma    90

_symmetry_space_group_name_H-M    "P 1"
_symmetry_Int_Tables_number       1

loop_
  _symmetry_equiv_pos_as_xyz
  'x, y, z'

loop_
  _atom_site_type_symbol
  _atom_site_label
  _atom_site_symmetry_multiplicity
  _atom_site_fract_x
  _atom_site_fract_y
  _atom_site_fract_z
  _atom_site_occupancy
  _atom_site_charge
Ag  Ag1       1.0  0.69266  0.30739  0.26036  1.0000 0.3009149085
Ag  Ag2       1.0  0.30629  0.69378  0.24006  1.0000 0.3201679091
Ag  Ag3       1.0  0.19084  0.19056  0.75904  1.0000 0.2443546455
Ag  Ag4       1.0  0.80948  0.80918  0.75891  1.0000 0.2443546455
Ag  Ag5       1.0  0.80942  0.80917  0.24086  1.0000 0.2443546455
Ag  Ag6       1.0  0.19081  0.19062  0.24105  1.0000 0.2443546455
Ag  Ag7       1.0  0.30700  0.69335  0.75849  1.0000 0.3201679091
Ag  Ag8       1.0  0.69260  0.30735  0.73963  1.0000 0.3009149085
H   H1        1.0  0.67959  0.12160  0.19310  1.0000 0.1117749899
H   H2        1.0  0.73611  0.97690  0.19050  1.0000 0.1117749899
H   H3        1.0  0.31385  0.87637  0.19096  1.0000 0.0880685499
H   H4        1.0  0.26332  0.02272  0.19031  1.0000 0.1117749899
H   H5        1.0  0.37506  0.18798  0.69032  1.0000 0.0980963471
H   H6        1.0  0.52510  0.23433  0.69033  1.0000 0.0980963471
H   H7        1.0  0.62579  0.81217  0.69000  1.0000 0.0980963471
H   H8        1.0  0.47639  0.76597  0.68945  1.0000 0.0980963471
H   H9        1.0  0.81203  0.62493  0.30968  1.0000 0.0980963471
H   H10       1.0  0.76567  0.47490  0.30967  1.0000 0.0980963471
H   H11       1.0  0.18785  0.37425  0.31001  1.0000 0.0980963471
H   H12       1.0  0.23406  0.52374  0.31056  1.0000 0.0980963471
H   H13       1.0  0.12356  0.68497  0.80841  1.0000 0.0845643084
H   H14       1.0  0.97722  0.73666  0.80950  1.0000 0.1117749899
H   H15       1.0  0.87840  0.32040  0.80691  1.0000 0.1117749899
H   H16       1.0  0.02311  0.26389  0.80950  1.0000 0.1117749899
H   H17       1.0  0.31760  0.87690  0.80726  1.0000 0.0880685499
H   H18       1.0  0.26358  0.02272  0.80924  1.0000 0.1117749899
H   H19       1.0  0.67955  0.12169  0.80681  1.0000 0.1117749899
H   H20       1.0  0.73605  0.97684  0.80935  1.0000 0.1117749899
H   H21       1.0  0.62581  0.81217  0.31005  1.0000 0.0980963471
H   H22       1.0  0.47635  0.76599  0.31057  1.0000 0.0980963471
H   H23       1.0  0.37506  0.18798  0.30968  1.0000 0.0980963471
H   H24       1.0  0.52507  0.23434  0.30967  1.0000 0.0980963471
H   H25       1.0  0.18786  0.37430  0.69007  1.0000 0.0980963471
H   H26       1.0  0.23405  0.52373  0.68955  1.0000 0.0980963471
H   H27       1.0  0.81203  0.62495  0.69032  1.0000 0.0980963471
H   H28       1.0  0.76566  0.47493  0.69033  1.0000 0.0980963471
H   H29       1.0  0.87830  0.32046  0.19319  1.0000 0.1117749899
H   H30       1.0  0.02315  0.26395  0.19066  1.0000 0.1117749899
H   H31       1.0  0.12338  0.68392  0.19214  1.0000 0.0880685499
H   H32       1.0  0.97743  0.73656  0.19036  1.0000 0.1117749899
H   H33       1.0  0.55604  0.44397  0.19284  1.0000 0.1180328789
H   H34       1.0  0.44308  0.55692  0.19311  1.0000 0.1117749899
H   H35       1.0  0.05658  0.05796  0.69560  1.0000 0.1363207202
H   H36       1.0  0.94426  0.94155  0.69476  1.0000 0.1331741165
H   H37       1.0  0.94227  0.94326  0.30464  1.0000 0.1363207202
H   H38       1.0  0.05863  0.05521  0.30545  1.0000 0.1331741165
H   H39       1.0  0.44315  0.55686  0.80699  1.0000 0.1117749899
H   H40       1.0  0.55604  0.44397  0.80719  1.0000 0.1180328789
C   C1        1.0  0.68368  0.11914  0.32982  1.0000 0.0204429698
C   C2        1.0  0.70937  0.04950  0.41091  1.0000 0.0572404197
C   C3        1.0  0.73297  0.97947  0.32806  1.0000 0.029198072
C   C4        1.0  0.31362  0.88038  0.32808  1.0000 0.0204429698
C   C5        1.0  0.28998  0.95060  0.41061  1.0000 0.0513476899
C   C6        1.0  0.26663  0.02074  0.32803  1.0000 0.029198072
C   C7        1.0  0.37903  0.18968  0.82805  1.0000 0.0204429698
C   C8        1.0  0.45030  0.20972  0.91077  1.0000 0.0513476899
C   C9        1.0  0.52088  0.23199  0.82795  1.0000 0.0204429698
C   C10       1.0  0.62247  0.81074  0.82775  1.0000 0.0204429698
C   C11       1.0  0.55153  0.79089  0.91068  1.0000 0.0513476899
C   C12       1.0  0.48133  0.76866  0.82688  1.0000 0.0204429698
C   C13       1.0  0.81032  0.62097  0.17195  1.0000 0.0204429698
C   C14       1.0  0.79028  0.54970  0.08923  1.0000 0.0513476899
C   C15       1.0  0.76801  0.47912  0.17205  1.0000 0.0204429698
C   C16       1.0  0.18931  0.37768  0.17228  1.0000 0.0204429698
C   C17       1.0  0.20915  0.44866  0.08941  1.0000 0.0513476899
C   C18       1.0  0.23133  0.51889  0.17313  1.0000 0.0204429698
C   C19       1.0  0.11963  0.68596  0.67135  1.0000 0.0204429698
C   C20       1.0  0.04944  0.70994  0.58916  1.0000 0.0513476899
C   C21       1.0  0.97927  0.73326  0.67180  1.0000 0.029198072
C   C22       1.0  0.88086  0.31632  0.67018  1.0000 0.0204429698
C   C23       1.0  0.95050  0.29063  0.58909  1.0000 0.0572404197
C   C24       1.0  0.02054  0.26703  0.67194  1.0000 0.029198072
C   C25       1.0  0.31624  0.88098  0.67024  1.0000 0.0204429698
C   C26       1.0  0.29058  0.95072  0.58873  1.0000 0.0513476899
C   C27       1.0  0.26701  0.02079  0.67156  1.0000 0.029198072
C   C28       1.0  0.68332  0.11907  0.67003  1.0000 0.0204429698
C   C29       1.0  0.70929  0.04949  0.58898  1.0000 0.0572404197
C   C30       1.0  0.73290  0.97943  0.67181  1.0000 0.029198072
C   C31       1.0  0.62244  0.81073  0.17230  1.0000 0.0204429698
C   C32       1.0  0.55150  0.79089  0.08940  1.0000 0.0513476899
C   C33       1.0  0.48127  0.76868  0.17313  1.0000 0.0204429698
C   C34       1.0  0.37903  0.18968  0.17194  1.0000 0.0204429698
C   C35       1.0  0.45031  0.20972  0.08922  1.0000 0.0513476899
C   C36       1.0  0.52088  0.23199  0.17204  1.0000 0.0204429698
C   C37       1.0  0.18931  0.37766  0.82781  1.0000 0.0204429698
C   C38       1.0  0.20914  0.44862  0.91072  1.0000 0.0513476899
C   C39       1.0  0.23133  0.51886  0.82699  1.0000 0.0204429698
C   C40       1.0  0.81032  0.62097  0.82806  1.0000 0.0204429698
C   C41       1.0  0.79028  0.54969  0.91077  1.0000 0.0513476899
C   C42       1.0  0.76801  0.47912  0.82796  1.0000 0.0204429698
C   C43       1.0  0.88093  0.31667  0.32998  1.0000 0.0204429698
C   C44       1.0  0.95051  0.29071  0.41103  1.0000 0.0572404197
C   C45       1.0  0.02056  0.26710  0.32820  1.0000 0.029198072
C   C46       1.0  0.11918  0.68456  0.32917  1.0000 0.0204429698
C   C47       1.0  0.04934  0.70965  0.41103  1.0000 0.0513476899
C   C48       1.0  0.97925  0.73310  0.32810  1.0000 0.0204429698
C   C49       1.0  0.55208  0.44792  0.32881  1.0000 0.0204429698
C   C50       1.0  0.44683  0.55316  0.32921  1.0000 0.0204429698
C   C51       1.0  0.05251  0.05312  0.83079  1.0000 0.0011362896
C   C52       1.0  0.94738  0.94725  0.82992  1.0000 0.0011362896
C   C53       1.0  0.94703  0.94732  0.16942  1.0000 -0.0005691177
C   C54       1.0  0.05293  0.05237  0.17024  1.0000 0.0011362896
C   C55       1.0  0.44678  0.55321  0.67085  1.0000 0.0204429698
C   C56       1.0  0.55205  0.44795  0.67124  1.0000 0.0204429698
C   C57       1.0  0.49948  0.50052  0.41096  1.0000 0.0513476899
C   C58       1.0  0.99949  0.00057  0.91117  1.0000 0.0513476899
C   C59       1.0  0.99950  0.00040  0.08895  1.0000 0.0513476899
C   C60       1.0  0.49944  0.50056  0.58908  1.0000 0.0444713409
N   N1        1.0  0.67128  0.18604  0.41633  1.0000 -0.0934260879
N   N2        1.0  0.75455  0.91532  0.41576  1.0000 -0.1100221717
N   N3        1.0  0.32817  0.81450  0.41556  1.0000 -0.1150524442
N   N4        1.0  0.24560  0.08502  0.41567  1.0000 -0.1003291044
N   N5        1.0  0.31298  0.17638  0.91587  1.0000 -0.1003291044
N   N6        1.0  0.58414  0.25547  0.91639  1.0000 -0.0583314349
N   N7        1.0  0.68838  0.82406  0.91601  1.0000 -0.0934260879
N   N8        1.0  0.41884  0.74617  0.91672  1.0000 -0.0534449939
N   N9        1.0  0.82362  0.68701  0.08413  1.0000 -0.1003291044
N   N10       1.0  0.74454  0.41586  0.08361  1.0000 -0.0583314349
N   N11       1.0  0.17601  0.31175  0.08404  1.0000 -0.1003291044
N   N12       1.0  0.25373  0.58143  0.08331  1.0000 -0.0583314349
N   N13       1.0  0.18542  0.67128  0.58372  1.0000 -0.1100221717
N   N14       1.0  0.91505  0.75435  0.58411  1.0000 -0.1003291044
N   N15       1.0  0.81395  0.32870  0.58369  1.0000 -0.0934260879
N   N16       1.0  0.08469  0.24546  0.58424  1.0000 -0.1003291044
N   N17       1.0  0.32987  0.81503  0.58253  1.0000 -0.1100221717
N   N18       1.0  0.24569  0.08500  0.58412  1.0000 -0.1003291044
N   N19       1.0  0.67089  0.18596  0.58350  1.0000 -0.0934260879
N   N20       1.0  0.75450  0.91531  0.58411  1.0000 -0.1003291044
N   N21       1.0  0.68836  0.82403  0.08404  1.0000 -0.1003291044
N   N22       1.0  0.41880  0.74622  0.08322  1.0000 -0.0534449939
N   N23       1.0  0.31298  0.17640  0.08413  1.0000 -0.1003291044
N   N24       1.0  0.58415  0.25549  0.08362  1.0000 -0.0583314349
N   N25       1.0  0.17596  0.31171  0.91601  1.0000 -0.1003291044
N   N26       1.0  0.25370  0.58140  0.91677  1.0000 -0.0583314349
N   N27       1.0  0.82361  0.68701  0.91588  1.0000 -0.1003291044
N   N28       1.0  0.74451  0.41585  0.91638  1.0000 -0.0583314349
N   N29       1.0  0.81404  0.32914  0.41651  1.0000 -0.0934260879
N   N30       1.0  0.08469  0.24552  0.41589  1.0000 -0.1003291044
N   N31       1.0  0.18515  0.67077  0.41674  1.0000 -0.1100221717
N   N32       1.0  0.91503  0.75427  0.41564  1.0000 -0.1003291044
N   N33       1.0  0.59962  0.40038  0.41652  1.0000 -0.1358812053
N   N34       1.0  0.39905  0.60091  0.41663  1.0000 -0.1508341481
N   N35       1.0  0.09955  0.10094  0.91743  1.0000 -0.1100221717
N   N36       1.0  0.89933  0.90025  0.91622  1.0000 -0.1100221717
N   N37       1.0  0.89899  0.90046  0.08286  1.0000 -0.1100221717
N   N38       1.0  0.09986  0.10056  0.08408  1.0000 -0.1100221717
N   N39       1.0  0.39893  0.60105  0.58355  1.0000 -0.1508341481
N   N40       1.0  0.59959  0.40041  0.58356  1.0000 -0.1358812053
Cl  Cl1       1.0  0.40439  0.40414  0.00001  1.0000 1.2862362813
Cl  Cl2       1.0  0.59589  0.59558  0.00001  1.0000 1.2862362813
Cl  Cl3       1.0  0.07914  0.92094  0.50254  1.0000 1.1991494845
Cl  Cl4       1.0  0.92333  0.07668  0.49977  1.0000 1.2058994721
Cl  Cl5       1.0  0.16489  0.83525  0.98890  1.0000 1.1323059748
Cl  Cl6       1.0  0.82446  0.17535  0.00028  1.0000 1.3264352034
Cl  Cl7       1.0  0.16183  0.83530  0.01142  1.0000 1.1435567091
O   O1        1.0  0.39018  0.48924  0.00002  1.0000 -0.5197237854
O   O2        1.0  0.61015  0.51050  0.00001  1.0000 -0.5197237854
O   O3        1.0  0.99578  0.90084  0.49524  1.0000 -0.4611923744
O   O4        1.0  0.00661  0.09742  0.49790  1.0000 -0.4523047456
O   O5        1.0  0.09911  0.00441  0.50561  1.0000 -0.4611923744
O   O6        1.0  0.90274  0.99336  0.50167  1.0000 -0.4523047456
O   O7        1.0  0.48948  0.38990  0.00000  1.0000 -0.5197237854
O   O8        1.0  0.51077  0.60976  0.00002  1.0000 -0.5197237854
O   O9        1.0  0.37007  0.36991  0.84696  1.0000 -0.5197237854
O   O10       1.0  0.63010  0.62992  0.84696  1.0000 -0.5197237854
O   O11       1.0  0.11363  0.89120  0.34971  1.0000 -0.4715902258
O   O12       1.0  0.18503  0.80890  0.20650  1.0000 -0.4523047456
O   O13       1.0  0.89196  0.10631  0.34423  1.0000 -0.3785078277
O   O14       1.0  0.81602  0.18640  0.21662  1.0000 -0.412337025
O   O15       1.0  0.10675  0.88875  0.65952  1.0000 -0.4771671046
O   O16       1.0  0.19101  0.81396  0.79272  1.0000 -0.4611923744
O   O17       1.0  0.89359  0.10798  0.65526  1.0000 -0.3785078277
O   O18       1.0  0.81376  0.18399  0.78310  1.0000 -0.412337025
O   O19       1.0  0.37007  0.36990  0.15305  1.0000 -0.5197237854
O   O20       1.0  0.63011  0.62992  0.15306  1.0000 -0.5197237854
O   O21       1.0  0.26870  0.73305  0.99850  1.0000 -0.6319914112
O   O22       1.0  0.75096  0.24899  0.99994  1.0000 -0.5716295887
O   O23       1.0  0.23131  0.91711  0.99662  1.0000 -0.5506291439
O   O24       1.0  0.76708  0.08623  0.99740  1.0000 -0.6319914112
O   O25       1.0  0.07875  0.77027  0.99802  1.0000 -0.5571025063
O   O26       1.0  0.91394  0.23303  0.00246  1.0000 -0.6319914112
