# DDEC6 charges by PACMAN v1.1 (https://github.com/mtap-research/PACMAN-charge/)
data_2007[KCu][nan]3[ION]1
_chemical_formula_sum              "K6 Cu6 P6 H60 C36 N12 O36"
_cell_length_a       16.6939
_cell_length_b       16.6939
_cell_length_c       16.6939
_cell_angle_alpha    117.06
_cell_angle_beta     117.06
_cell_angle_gamma    117.06

_symmetry_space_group_name_H-M    "P 1"
_symmetry_Int_Tables_number       1

loop_
  _symmetry_equiv_pos_as_xyz
  'x, y, z'

loop_
  _atom_site_type_symbol
  _atom_site_label
  _atom_site_symmetry_multiplicity
  _atom_site_fract_x
  _atom_site_fract_y
  _atom_site_fract_z
  _atom_site_occupancy
  _atom_site_charge
K   K1        1.0  0.38354  0.07168  0.63008  1.0000 0.8451168368
K   K2        1.0  0.63008  0.38354  0.07168  1.0000 0.8451168368
K   K3        1.0  0.07168  0.63008  0.38354  1.0000 0.8451168368
K   K4        1.0  0.61646  0.92832  0.36992  1.0000 0.8451168368
K   K5        1.0  0.36992  0.61646  0.92832  1.0000 0.8451168368
K   K6        1.0  0.92832  0.36992  0.61646  1.0000 0.8451168368
Cu  Cu1       1.0  0.01216  0.03959  0.41213  1.0000 0.7690263221
Cu  Cu2       1.0  0.41213  0.01216  0.03959  1.0000 0.7690263221
Cu  Cu3       1.0  0.03959  0.41213  0.01216  1.0000 0.7690263221
Cu  Cu4       1.0  0.98784  0.96041  0.58787  1.0000 0.7690263221
Cu  Cu5       1.0  0.58787  0.98784  0.96041  1.0000 0.7690263221
Cu  Cu6       1.0  0.96041  0.58787  0.98784  1.0000 0.7690263221
P   P1        1.0  0.01822  0.84022  0.21646  1.0000 1.0969206522
P   P2        1.0  0.21646  0.01822  0.84022  1.0000 1.0969206522
P   P3        1.0  0.84022  0.21646  0.01822  1.0000 1.0969206522
P   P4        1.0  0.98178  0.15978  0.78354  1.0000 1.0969206522
P   P5        1.0  0.78354  0.98178  0.15978  1.0000 1.0969206522
P   P6        1.0  0.15978  0.78354  0.98178  1.0000 1.0969206522
H   H1        1.0  0.23950  0.09970  0.37920  1.0000 0.1505062678
H   H2        1.0  0.08170  0.02710  0.26580  1.0000 0.1505062678
H   H3        1.0  0.27610  0.30150  0.51250  1.0000 0.1410949309
H   H4        1.0  0.41590  0.37160  0.65720  1.0000 0.1410949309
H   H5        1.0  0.78420  0.73080  0.05200  1.0000 0.1505062678
H   H6        1.0  0.75150  0.61800  0.03850  1.0000 0.1505062678
H   H7        1.0  0.63190  0.61470  0.10110  1.0000 0.1336320022
H   H8        1.0  0.63240  0.68170  0.05880  1.0000 0.1410949309
H   H9        1.0  0.24630  0.14020  0.53260  1.0000 0.2419028212
H   H10       1.0  0.88240  0.79080  0.27810  1.0000 0.2522909671
H   H11       1.0  0.37920  0.23950  0.09970  1.0000 0.1505062678
H   H12       1.0  0.26580  0.08170  0.02710  1.0000 0.1505062678
H   H13       1.0  0.51250  0.27610  0.30150  1.0000 0.1410949309
H   H14       1.0  0.65720  0.41590  0.37160  1.0000 0.1410949309
H   H15       1.0  0.05200  0.78420  0.73080  1.0000 0.1505062678
H   H16       1.0  0.03850  0.75150  0.61800  1.0000 0.1505062678
H   H17       1.0  0.10110  0.63190  0.61470  1.0000 0.1336320022
H   H18       1.0  0.05880  0.63240  0.68170  1.0000 0.1410949309
H   H19       1.0  0.53260  0.24630  0.14020  1.0000 0.2419028212
H   H20       1.0  0.27810  0.88240  0.79080  1.0000 0.2522909671
H   H21       1.0  0.09970  0.37920  0.23950  1.0000 0.1505062678
H   H22       1.0  0.02710  0.26580  0.08170  1.0000 0.1505062678
H   H23       1.0  0.30150  0.51250  0.27610  1.0000 0.1410949309
H   H24       1.0  0.37160  0.65720  0.41590  1.0000 0.1410949309
H   H25       1.0  0.73080  0.05200  0.78420  1.0000 0.1505062678
H   H26       1.0  0.61800  0.03850  0.75150  1.0000 0.1505062678
H   H27       1.0  0.61470  0.10110  0.63190  1.0000 0.1336320022
H   H28       1.0  0.68170  0.05880  0.63240  1.0000 0.1410949309
H   H29       1.0  0.14020  0.53260  0.24630  1.0000 0.2419028212
H   H30       1.0  0.79080  0.27810  0.88240  1.0000 0.2522909671
H   H31       1.0  0.76050  0.90030  0.62080  1.0000 0.1505062678
H   H32       1.0  0.91830  0.97290  0.73420  1.0000 0.1505062678
H   H33       1.0  0.72390  0.69850  0.48750  1.0000 0.1410949309
H   H34       1.0  0.58410  0.62840  0.34280  1.0000 0.1410949309
H   H35       1.0  0.21580  0.26920  0.94800  1.0000 0.1505062678
H   H36       1.0  0.24850  0.38200  0.96150  1.0000 0.1505062678
H   H37       1.0  0.36810  0.38530  0.89890  1.0000 0.1336320022
H   H38       1.0  0.36760  0.31830  0.94120  1.0000 0.1410949309
H   H39       1.0  0.75370  0.85980  0.46740  1.0000 0.2419028212
H   H40       1.0  0.11760  0.20920  0.72190  1.0000 0.2522909671
H   H41       1.0  0.62080  0.76050  0.90030  1.0000 0.1505062678
H   H42       1.0  0.73420  0.91830  0.97290  1.0000 0.1505062678
H   H43       1.0  0.48750  0.72390  0.69850  1.0000 0.1410949309
H   H44       1.0  0.34280  0.58410  0.62840  1.0000 0.1410949309
H   H45       1.0  0.94800  0.21580  0.26920  1.0000 0.1505062678
H   H46       1.0  0.96150  0.24850  0.38200  1.0000 0.1505062678
H   H47       1.0  0.89890  0.36810  0.38530  1.0000 0.1336320022
H   H48       1.0  0.94120  0.36760  0.31830  1.0000 0.1410949309
H   H49       1.0  0.46740  0.75370  0.85980  1.0000 0.2419028212
H   H50       1.0  0.72190  0.11760  0.20920  1.0000 0.2522909671
H   H51       1.0  0.90030  0.62080  0.76050  1.0000 0.1505062678
H   H52       1.0  0.97290  0.73420  0.91830  1.0000 0.1505062678
H   H53       1.0  0.69850  0.48750  0.72390  1.0000 0.1410949309
H   H54       1.0  0.62840  0.34280  0.58410  1.0000 0.1410949309
H   H55       1.0  0.26920  0.94800  0.21580  1.0000 0.1505062678
H   H56       1.0  0.38200  0.96150  0.24850  1.0000 0.1505062678
H   H57       1.0  0.38530  0.89890  0.36810  1.0000 0.1336320022
H   H58       1.0  0.31830  0.94120  0.36760  1.0000 0.1410949309
H   H59       1.0  0.85980  0.46740  0.75370  1.0000 0.2419028212
H   H60       1.0  0.20920  0.72190  0.11760  1.0000 0.2522909671
C   C1        1.0  0.14270  0.03970  0.33560  1.0000 -0.3687926923
C   C2        1.0  0.30510  0.30200  0.57810  1.0000 -0.2314048281
C   C3        1.0  0.29620  0.36920  0.66680  1.0000 0.5954578648
C   C4        1.0  0.82900  0.73070  0.11440  1.0000 -0.3687926923
C   C5        1.0  0.69540  0.71340  0.14740  1.0000 -0.2675111314
C   C6        1.0  0.72710  0.81800  0.26580  1.0000 0.6124306152
C   C7        1.0  0.33560  0.14270  0.03970  1.0000 -0.3687926923
C   C8        1.0  0.57810  0.30510  0.30200  1.0000 -0.2314048281
C   C9        1.0  0.66680  0.29620  0.36920  1.0000 0.5954578648
C   C10       1.0  0.11440  0.82900  0.73070  1.0000 -0.3687926923
C   C11       1.0  0.14740  0.69540  0.71340  1.0000 -0.2675111314
C   C12       1.0  0.26580  0.72710  0.81800  1.0000 0.6124306152
C   C13       1.0  0.03970  0.33560  0.14270  1.0000 -0.3687926923
C   C14       1.0  0.30200  0.57810  0.30510  1.0000 -0.2314048281
C   C15       1.0  0.36920  0.66680  0.29620  1.0000 0.5954578648
C   C16       1.0  0.73070  0.11440  0.82900  1.0000 -0.3687926923
C   C17       1.0  0.71340  0.14740  0.69540  1.0000 -0.2675111314
C   C18       1.0  0.81800  0.26580  0.72710  1.0000 0.6124306152
C   C19       1.0  0.85730  0.96030  0.66440  1.0000 -0.3687926923
C   C20       1.0  0.69490  0.69800  0.42190  1.0000 -0.2314048281
C   C21       1.0  0.70380  0.63080  0.33320  1.0000 0.5954578648
C   C22       1.0  0.17100  0.26930  0.88560  1.0000 -0.3687926923
C   C23       1.0  0.30460  0.28660  0.85260  1.0000 -0.2675111314
C   C24       1.0  0.27290  0.18200  0.73420  1.0000 0.6124306152
C   C25       1.0  0.66440  0.85730  0.96030  1.0000 -0.3687926923
C   C26       1.0  0.42190  0.69490  0.69800  1.0000 -0.2314048281
C   C27       1.0  0.33320  0.70380  0.63080  1.0000 0.5954578648
C   C28       1.0  0.88560  0.17100  0.26930  1.0000 -0.3687926923
C   C29       1.0  0.85260  0.30460  0.28660  1.0000 -0.2675111314
C   C30       1.0  0.73420  0.27290  0.18200  1.0000 0.6124306152
C   C31       1.0  0.96030  0.66440  0.85730  1.0000 -0.3687926923
C   C32       1.0  0.69800  0.42190  0.69490  1.0000 -0.2314048281
C   C33       1.0  0.63080  0.33320  0.70380  1.0000 0.5954578648
C   C34       1.0  0.26930  0.88560  0.17100  1.0000 -0.3687926923
C   C35       1.0  0.28660  0.85260  0.30460  1.0000 -0.2675111314
C   C36       1.0  0.18200  0.73420  0.27290  1.0000 0.6124306152
N   N1        1.0  0.19100  0.13200  0.47070  1.0000 -0.2622850111
N   N2        1.0  0.84960  0.80230  0.22950  1.0000 -0.2501824941
N   N3        1.0  0.47070  0.19100  0.13200  1.0000 -0.2622850111
N   N4        1.0  0.22950  0.84960  0.80230  1.0000 -0.2501824941
N   N5        1.0  0.13200  0.47070  0.19100  1.0000 -0.2622850111
N   N6        1.0  0.80230  0.22950  0.84960  1.0000 -0.2501824941
N   N7        1.0  0.80900  0.86800  0.52930  1.0000 -0.2622850111
N   N8        1.0  0.15040  0.19770  0.77050  1.0000 -0.2501824941
N   N9        1.0  0.52930  0.80900  0.86800  1.0000 -0.2622850111
N   N10       1.0  0.77050  0.15040  0.19770  1.0000 -0.2501824941
N   N11       1.0  0.86800  0.52930  0.80900  1.0000 -0.2622850111
N   N12       1.0  0.19770  0.77050  0.15040  1.0000 -0.2501824941
O   O1        1.0  0.09980  0.86530  0.33600  1.0000 -0.7810428908
O   O2        1.0  0.98600  0.75900  0.09140  1.0000 -0.7375887802
O   O3        1.0  0.17570  0.26650  0.61400  1.0000 -0.5440877845
O   O4        1.0  0.40150  0.51540  0.78040  1.0000 -0.5775305202
O   O5        1.0  0.87190  0.97020  0.40200  1.0000 -0.5493784418
O   O6        1.0  0.61100  0.75140  0.22230  1.0000 -0.6334906787
O   O7        1.0  0.33600  0.09980  0.86530  1.0000 -0.7810428908
O   O8        1.0  0.09140  0.98600  0.75900  1.0000 -0.7375887802
O   O9        1.0  0.61400  0.17570  0.26650  1.0000 -0.5440877845
O   O10       1.0  0.78040  0.40150  0.51540  1.0000 -0.5775305202
O   O11       1.0  0.40200  0.87190  0.97020  1.0000 -0.5493784418
O   O12       1.0  0.22230  0.61100  0.75140  1.0000 -0.6334906787
O   O13       1.0  0.86530  0.33600  0.09980  1.0000 -0.7810428908
O   O14       1.0  0.75900  0.09140  0.98600  1.0000 -0.7375887802
O   O15       1.0  0.26650  0.61400  0.17570  1.0000 -0.5440877845
O   O16       1.0  0.51540  0.78040  0.40150  1.0000 -0.5775305202
O   O17       1.0  0.97020  0.40200  0.87190  1.0000 -0.5493784418
O   O18       1.0  0.75140  0.22230  0.61100  1.0000 -0.6334906787
O   O19       1.0  0.90020  0.13470  0.66400  1.0000 -0.7810428908
O   O20       1.0  0.01400  0.24100  0.90860  1.0000 -0.7375887802
O   O21       1.0  0.82430  0.73350  0.38600  1.0000 -0.5440877845
O   O22       1.0  0.59850  0.48460  0.21960  1.0000 -0.5775305202
O   O23       1.0  0.12810  0.02980  0.59800  1.0000 -0.5493784418
O   O24       1.0  0.38900  0.24860  0.77770  1.0000 -0.6334906787
O   O25       1.0  0.66400  0.90020  0.13470  1.0000 -0.7810428908
O   O26       1.0  0.90860  0.01400  0.24100  1.0000 -0.7375887802
O   O27       1.0  0.38600  0.82430  0.73350  1.0000 -0.5440877845
O   O28       1.0  0.21960  0.59850  0.48460  1.0000 -0.5775305202
O   O29       1.0  0.59800  0.12810  0.02980  1.0000 -0.5493784418
O   O30       1.0  0.77770  0.38900  0.24860  1.0000 -0.6334906787
O   O31       1.0  0.13470  0.66400  0.90020  1.0000 -0.7810428908
O   O32       1.0  0.24100  0.90860  0.01400  1.0000 -0.7375887802
O   O33       1.0  0.73350  0.38600  0.82430  1.0000 -0.5440877845
O   O34       1.0  0.48460  0.21960  0.59850  1.0000 -0.5775305202
O   O35       1.0  0.02980  0.59800  0.12810  1.0000 -0.5493784418
O   O36       1.0  0.24860  0.77770  0.38900  1.0000 -0.6334906787
