# DDEC6 charges by PACMAN v1.1 (https://github.com/mtap-research/PACMAN-charge/)
data_2007[SiAg][nan]3[ION]1
_chemical_formula_sum              "Si8 Ag16 H88 C96 N48 O8 F48"
_cell_length_a       31.7734
_cell_length_b       25.6963
_cell_length_c       19.4728
_cell_angle_alpha    88.2855
_cell_angle_beta     53.9375
_cell_angle_gamma    37.777

_symmetry_space_group_name_H-M    "P 1"
_symmetry_Int_Tables_number       1

loop_
  _symmetry_equiv_pos_as_xyz
  'x, y, z'

loop_
  _atom_site_type_symbol
  _atom_site_label
  _atom_site_symmetry_multiplicity
  _atom_site_fract_x
  _atom_site_fract_y
  _atom_site_fract_z
  _atom_site_occupancy
  _atom_site_charge
Si  Si1       1.0  0.31605  0.31605  0.68395  1.0000 1.6819043411
Si  Si2       1.0  0.68395  0.68395  0.31605  1.0000 1.6819043411
Si  Si3       1.0  0.93395  0.93395  0.56605  1.0000 1.6819043411
Si  Si4       1.0  0.56605  0.56605  0.93395  1.0000 1.6819043411
Si  Si5       1.0  0.64763  0.85237  0.64763  1.0000 1.7304211212
Si  Si6       1.0  0.85237  0.64763  0.85237  1.0000 1.7304211212
Si  Si7       1.0  0.60237  0.39763  0.60237  1.0000 1.7304211212
Si  Si8       1.0  0.39763  0.60237  0.39763  1.0000 1.7304211212
Ag  Ag1       1.0  0.38938  0.92186  0.39454  1.0000 0.3260066761
Ag  Ag2       1.0  0.29422  0.39454  0.92186  1.0000 0.3260066761
Ag  Ag3       1.0  0.39454  0.29422  0.38938  1.0000 0.3260066761
Ag  Ag4       1.0  0.92186  0.38938  0.29422  1.0000 0.3260066761
Ag  Ag5       1.0  0.86062  0.32814  0.85546  1.0000 0.3260066761
Ag  Ag6       1.0  0.95578  0.85546  0.32814  1.0000 0.3260066761
Ag  Ag7       1.0  0.85546  0.95578  0.86062  1.0000 0.3260066761
Ag  Ag8       1.0  0.32814  0.86062  0.95578  1.0000 0.3260066761
Ag  Ag9       1.0  0.96722  0.33556  0.85208  1.0000 0.3175862311
Ag  Ag10      1.0  0.84514  0.85208  0.33556  1.0000 0.3175862311
Ag  Ag11      1.0  0.85208  0.84514  0.96722  1.0000 0.3175862311
Ag  Ag12      1.0  0.33556  0.96722  0.84514  1.0000 0.3175862311
Ag  Ag13      1.0  0.28278  0.91444  0.39792  1.0000 0.3175862311
Ag  Ag14      1.0  0.40486  0.39792  0.91444  1.0000 0.3175862311
Ag  Ag15      1.0  0.39792  0.40486  0.28278  1.0000 0.3175862311
Ag  Ag16      1.0  0.91444  0.28278  0.40486  1.0000 0.3175862311
H   H1        1.0  0.74110  0.64630  0.05010  1.0000 0.3453901065
H   H2        1.0  0.56250  0.05010  0.64630  1.0000 0.3373328699
H   H3        1.0  0.05010  0.56250  0.74110  1.0000 0.3453901065
H   H4        1.0  0.64630  0.74110  0.56250  1.0000 0.3453901065
H   H5        1.0  0.50890  0.60370  0.19990  1.0000 0.3453901065
H   H6        1.0  0.68750  0.19990  0.60370  1.0000 0.3373328699
H   H7        1.0  0.19990  0.68750  0.50890  1.0000 0.3453901065
H   H8        1.0  0.60370  0.50890  0.68750  1.0000 0.3453901065
H   H9        1.0  0.72160  0.64200  0.13020  1.0000 0.3373328699
H   H10       1.0  0.50620  0.13020  0.64200  1.0000 0.3373328699
H   H11       1.0  0.13020  0.50620  0.72160  1.0000 0.3373328699
H   H12       1.0  0.64200  0.72160  0.50620  1.0000 0.3373328699
H   H13       1.0  0.52840  0.60800  0.11980  1.0000 0.3373328699
H   H14       1.0  0.74380  0.11980  0.60800  1.0000 0.3373328699
H   H15       1.0  0.11980  0.74380  0.52840  1.0000 0.3373328699
H   H16       1.0  0.60800  0.52840  0.74380  1.0000 0.3373328699
H   H17       1.0  0.24400  0.86980  0.56300  1.0000 0.1310776127
H   H18       1.0  0.32320  0.56300  0.86980  1.0000 0.1310776127
H   H19       1.0  0.56300  0.32320  0.24400  1.0000 0.1310776127
H   H20       1.0  0.86980  0.24400  0.32320  1.0000 0.1310776127
H   H21       1.0  0.00600  0.38020  0.68700  1.0000 0.1310776127
H   H22       1.0  0.92680  0.68700  0.38020  1.0000 0.1310776127
H   H23       1.0  0.68700  0.92680  0.00600  1.0000 0.1310776127
H   H24       1.0  0.38020  0.00600  0.92680  1.0000 0.1310776127
H   H25       1.0  0.26530  0.84010  0.66150  1.0000 0.1539822639
H   H26       1.0  0.23310  0.66150  0.84010  1.0000 0.1539822639
H   H27       1.0  0.66150  0.23310  0.26530  1.0000 0.1539822639
H   H28       1.0  0.84010  0.26530  0.23310  1.0000 0.1539822639
H   H29       1.0  0.98470  0.40990  0.58850  1.0000 0.1539822639
H   H30       1.0  0.01690  0.58850  0.40990  1.0000 0.1539822639
H   H31       1.0  0.58850  0.01690  0.98470  1.0000 0.1539822639
H   H32       1.0  0.40990  0.98470  0.01690  1.0000 0.1539822639
H   H33       1.0  0.40200  0.85960  0.53640  1.0000 0.1310776127
H   H34       1.0  0.20200  0.53640  0.85960  1.0000 0.1310776127
H   H35       1.0  0.53640  0.20200  0.40200  1.0000 0.1310776127
H   H36       1.0  0.85960  0.40200  0.20200  1.0000 0.1310776127
H   H37       1.0  0.84800  0.39040  0.71360  1.0000 0.1310776127
H   H38       1.0  0.04800  0.71360  0.39040  1.0000 0.1310776127
H   H39       1.0  0.71360  0.04800  0.84800  1.0000 0.1310776127
H   H40       1.0  0.39040  0.84800  0.04800  1.0000 0.1310776127
H   H41       1.0  0.38010  0.73050  0.78230  1.0000 0.1419787071
H   H42       1.0  0.10710  0.78230  0.73050  1.0000 0.1419787071
H   H43       1.0  0.78230  0.10710  0.38010  1.0000 0.1419787071
H   H44       1.0  0.73050  0.38010  0.10710  1.0000 0.1419787071
H   H45       1.0  0.86990  0.51950  0.46770  1.0000 0.1419787071
H   H46       1.0  0.14290  0.46770  0.51950  1.0000 0.1419787071
H   H47       1.0  0.46770  0.14290  0.86990  1.0000 0.1419787071
H   H48       1.0  0.51950  0.86990  0.14290  1.0000 0.1419787071
H   H49       1.0  0.37530  0.73050  0.66810  1.0000 0.1586557599
H   H50       1.0  0.22610  0.66810  0.73050  1.0000 0.1586557599
H   H51       1.0  0.66810  0.22610  0.37530  1.0000 0.1586557599
H   H52       1.0  0.73050  0.37530  0.22610  1.0000 0.1586557599
H   H53       1.0  0.87470  0.51950  0.58190  1.0000 0.1586557599
H   H54       1.0  0.02390  0.58190  0.51950  1.0000 0.1586557599
H   H55       1.0  0.58190  0.02390  0.87470  1.0000 0.1586557599
H   H56       1.0  0.51950  0.87470  0.02390  1.0000 0.1586557599
H   H57       1.0  0.32850  0.92910  0.70690  1.0000 0.1310776127
H   H58       1.0  0.03550  0.70690  0.92910  1.0000 0.1310776127
H   H59       1.0  0.70690  0.03550  0.32850  1.0000 0.1310776127
H   H60       1.0  0.92910  0.32850  0.03550  1.0000 0.1310776127
H   H61       1.0  0.92150  0.32090  0.54310  1.0000 0.1310776127
H   H62       1.0  0.21450  0.54310  0.32090  1.0000 0.1310776127
H   H63       1.0  0.54310  0.21450  0.92150  1.0000 0.1310776127
H   H64       1.0  0.32090  0.92150  0.21450  1.0000 0.1310776127
H   H65       1.0  0.01750  0.39630  0.88430  1.0000 0.1419787071
H   H66       1.0  0.70190  0.88430  0.39630  1.0000 0.1419787071
H   H67       1.0  0.88430  0.70190  0.01750  1.0000 0.1419787071
H   H68       1.0  0.39630  0.01750  0.70190  1.0000 0.1419787071
H   H69       1.0  0.23250  0.85370  0.36570  1.0000 0.1419787071
H   H70       1.0  0.54810  0.36570  0.85370  1.0000 0.1419787071
H   H71       1.0  0.36570  0.54810  0.23250  1.0000 0.1419787071
H   H72       1.0  0.85370  0.23250  0.54810  1.0000 0.1419787071
H   H73       1.0  0.19180  0.30380  0.71900  1.0000 0.1586557599
H   H74       1.0  0.78540  0.71900  0.30380  1.0000 0.1586557599
H   H75       1.0  0.71900  0.78540  0.19180  1.0000 0.1586557599
H   H76       1.0  0.30380  0.19180  0.78540  1.0000 0.1586557599
H   H77       1.0  0.05820  0.94620  0.53100  1.0000 0.1586557599
H   H78       1.0  0.46460  0.53100  0.94620  1.0000 0.1586557599
H   H79       1.0  0.53100  0.46460  0.05820  1.0000 0.1586557599
H   H80       1.0  0.94620  0.05820  0.46460  1.0000 0.1586557599
H   H81       1.0  0.50530  0.92990  0.29950  1.0000 0.1310776127
H   H82       1.0  0.26530  0.29950  0.92990  1.0000 0.1310776127
H   H83       1.0  0.29950  0.26530  0.50530  1.0000 0.1310776127
H   H84       1.0  0.92990  0.50530  0.26530  1.0000 0.1310776127
H   H85       1.0  0.74470  0.32010  0.95050  1.0000 0.1310776127
H   H86       1.0  0.98470  0.95050  0.32010  1.0000 0.1310776127
H   H87       1.0  0.95050  0.98470  0.74470  1.0000 0.1310776127
H   H88       1.0  0.32010  0.74470  0.98470  1.0000 0.1310776127
C   C1        1.0  0.27260  0.87140  0.56200  1.0000 0.0660347733
C   C2        1.0  0.29400  0.56200  0.87140  1.0000 0.0660347733
C   C3        1.0  0.56200  0.29400  0.27260  1.0000 0.0660347733
C   C4        1.0  0.87140  0.27260  0.29400  1.0000 0.0660347733
C   C5        1.0  0.97740  0.37860  0.68800  1.0000 0.0660347733
C   C6        1.0  0.95600  0.68800  0.37860  1.0000 0.0660347733
C   C7        1.0  0.68800  0.95600  0.97740  1.0000 0.0660347733
C   C8        1.0  0.37860  0.97740  0.95600  1.0000 0.0660347733
C   C9        1.0  0.28687  0.85159  0.61981  1.0000 -0.1296332144
C   C10       1.0  0.24173  0.61981  0.85159  1.0000 -0.1296332144
C   C11       1.0  0.61981  0.24173  0.28687  1.0000 -0.1296332144
C   C12       1.0  0.85159  0.28687  0.24173  1.0000 -0.1296332144
C   C13       1.0  0.96313  0.39841  0.63019  1.0000 -0.1296332144
C   C14       1.0  0.00827  0.63019  0.39841  1.0000 -0.1296332144
C   C15       1.0  0.63019  0.00827  0.96313  1.0000 -0.1296332144
C   C16       1.0  0.39841  0.96313  0.00827  1.0000 -0.1296332144
C   C17       1.0  0.33363  0.84963  0.61357  1.0000 0.0584203284
C   C18       1.0  0.20317  0.61357  0.84963  1.0000 0.0584203284
C   C19       1.0  0.61357  0.20317  0.33363  1.0000 0.0584203284
C   C20       1.0  0.84963  0.33363  0.20317  1.0000 0.0584203284
C   C21       1.0  0.91637  0.40037  0.63643  1.0000 0.0584203284
C   C22       1.0  0.04683  0.63643  0.40037  1.0000 0.0584203284
C   C23       1.0  0.63643  0.04683  0.91637  1.0000 0.0584203284
C   C24       1.0  0.40037  0.91637  0.04683  1.0000 0.0584203284
C   C25       1.0  0.36613  0.86473  0.54587  1.0000 0.0088932507
C   C26       1.0  0.22327  0.54587  0.86473  1.0000 0.0088932507
C   C27       1.0  0.54587  0.22327  0.36613  1.0000 0.0088932507
C   C28       1.0  0.86473  0.36613  0.22327  1.0000 0.0088932507
C   C29       1.0  0.88387  0.38527  0.70413  1.0000 0.0088932507
C   C30       1.0  0.02673  0.70413  0.38527  1.0000 0.0088932507
C   C31       1.0  0.70413  0.02673  0.88387  1.0000 0.0088932507
C   C32       1.0  0.38527  0.88387  0.02673  1.0000 0.0088932507
C   C33       1.0  0.36620  0.77432  0.76888  1.0000 0.0584203284
C   C34       1.0  0.09060  0.76888  0.77432  1.0000 0.0584203284
C   C35       1.0  0.76888  0.09060  0.36620  1.0000 0.0584203284
C   C36       1.0  0.77432  0.36620  0.09060  1.0000 0.0584203284
C   C37       1.0  0.88380  0.47568  0.48112  1.0000 0.0584203284
C   C38       1.0  0.15940  0.48112  0.47568  1.0000 0.0584203284
C   C39       1.0  0.48112  0.15940  0.88380  1.0000 0.0584203284
C   C40       1.0  0.47568  0.88380  0.15940  1.0000 0.0584203284
C   C41       1.0  0.36441  0.77281  0.69919  1.0000 -0.1393345232
C   C42       1.0  0.16359  0.69919  0.77281  1.0000 -0.1393345232
C   C43       1.0  0.69919  0.16359  0.36441  1.0000 -0.1393345232
C   C44       1.0  0.77281  0.36441  0.16359  1.0000 -0.1393345232
C   C45       1.0  0.88559  0.47719  0.55081  1.0000 -0.1393345232
C   C46       1.0  0.08641  0.55081  0.47719  1.0000 -0.1393345232
C   C47       1.0  0.55081  0.08641  0.88559  1.0000 -0.1393345232
C   C48       1.0  0.47719  0.88559  0.08641  1.0000 -0.1393345232
C   C49       1.0  0.34608  0.83572  0.67808  1.0000 0.0533062396
C   C50       1.0  0.14012  0.67808  0.83572  1.0000 0.0533062396
C   C51       1.0  0.67808  0.14012  0.34608  1.0000 0.0533062396
C   C52       1.0  0.83572  0.34608  0.14012  1.0000 0.0533062396
C   C53       1.0  0.90392  0.41428  0.57192  1.0000 0.0533062396
C   C54       1.0  0.10988  0.57192  0.41428  1.0000 0.0533062396
C   C55       1.0  0.57192  0.10988  0.90392  1.0000 0.0533062396
C   C56       1.0  0.41428  0.90392  0.10988  1.0000 0.0533062396
C   C57       1.0  0.33622  0.89020  0.72420  1.0000 -0.0180127978
C   C58       1.0  0.04938  0.72420  0.89020  1.0000 -0.0180127978
C   C59       1.0  0.72420  0.04938  0.33622  1.0000 -0.0180127978
C   C60       1.0  0.89020  0.33622  0.04938  1.0000 -0.0180127978
C   C61       1.0  0.91378  0.35980  0.52580  1.0000 -0.0180127978
C   C62       1.0  0.20062  0.52580  0.35980  1.0000 -0.0180127978
C   C63       1.0  0.52580  0.20062  0.91378  1.0000 -0.0180127978
C   C64       1.0  0.35980  0.91378  0.20062  1.0000 -0.0180127978
C   C65       1.0  0.11723  0.30185  0.76395  1.0000 0.0825043674
C   C66       1.0  0.81697  0.76395  0.30185  1.0000 0.0825043674
C   C67       1.0  0.76395  0.81697  0.11723  1.0000 0.0825043674
C   C68       1.0  0.30185  0.11723  0.81697  1.0000 0.0825043674
C   C69       1.0  0.13277  0.94815  0.48605  1.0000 0.0825043674
C   C70       1.0  0.43303  0.48605  0.94815  1.0000 0.0825043674
C   C71       1.0  0.48605  0.43303  0.13277  1.0000 0.0825043674
C   C72       1.0  0.94815  0.13277  0.43303  1.0000 0.0825043674
C   C73       1.0  0.22152  0.24660  0.66600  1.0000 -0.0915332665
C   C74       1.0  0.86588  0.66600  0.24660  1.0000 -0.0915332665
C   C75       1.0  0.66600  0.86588  0.22152  1.0000 -0.0915332665
C   C76       1.0  0.24660  0.22152  0.86588  1.0000 -0.0915332665
C   C77       1.0  0.02848  0.00340  0.58400  1.0000 -0.0915332665
C   C78       1.0  0.38412  0.58400  0.00340  1.0000 -0.0915332665
C   C79       1.0  0.58400  0.38412  0.02848  1.0000 -0.0915332665
C   C80       1.0  0.00340  0.02848  0.38412  1.0000 -0.0915332665
C   C81       1.0  0.36907  0.10559  0.48921  1.0000 0.0825043674
C   C82       1.0  0.03613  0.48921  0.10559  1.0000 0.0825043674
C   C83       1.0  0.48921  0.03613  0.36907  1.0000 0.0825043674
C   C84       1.0  0.10559  0.36907  0.03613  1.0000 0.0825043674
C   C85       1.0  0.88093  0.14441  0.76079  1.0000 0.0825043674
C   C86       1.0  0.21387  0.76079  0.14441  1.0000 0.0825043674
C   C87       1.0  0.76079  0.21387  0.88093  1.0000 0.0825043674
C   C88       1.0  0.14441  0.88093  0.21387  1.0000 0.0825043674
C   C89       1.0  0.40354  0.02800  0.42060  1.0000 0.0396406678
C   C90       1.0  0.14786  0.42060  0.02800  1.0000 0.0396406678
C   C91       1.0  0.42060  0.14786  0.40354  1.0000 0.0396406678
C   C92       1.0  0.02800  0.40354  0.14786  1.0000 0.0396406678
C   C93       1.0  0.84646  0.22200  0.82940  1.0000 0.0396406678
C   C94       1.0  0.10214  0.82940  0.22200  1.0000 0.0396406678
C   C95       1.0  0.82940  0.10214  0.84646  1.0000 0.0396406678
C   C96       1.0  0.22200  0.84646  0.10214  1.0000 0.0396406678
N   N1        1.0  0.34847  0.88587  0.49453  1.0000 -0.0915332665
N   N2        1.0  0.27113  0.49453  0.88587  1.0000 -0.0915332665
N   N3        1.0  0.49453  0.27113  0.34847  1.0000 -0.0915332665
N   N4        1.0  0.88587  0.34847  0.27113  1.0000 -0.0915332665
N   N5        1.0  0.90153  0.36413  0.75547  1.0000 -0.0915332665
N   N6        1.0  0.97887  0.75547  0.36413  1.0000 -0.0915332665
N   N7        1.0  0.75547  0.97887  0.90153  1.0000 -0.0915332665
N   N8        1.0  0.36413  0.90153  0.97887  1.0000 -0.0915332665
N   N9        1.0  0.29819  0.89269  0.50471  1.0000 -0.1296332144
N   N10       1.0  0.30441  0.50471  0.89269  1.0000 -0.1296332144
N   N11       1.0  0.50471  0.30441  0.29819  1.0000 -0.1296332144
N   N12       1.0  0.89269  0.29819  0.30441  1.0000 -0.1296332144
N   N13       1.0  0.95181  0.35731  0.74529  1.0000 -0.1296332144
N   N14       1.0  0.94559  0.74529  0.35731  1.0000 -0.1296332144
N   N15       1.0  0.74529  0.94559  0.95181  1.0000 -0.1296332144
N   N16       1.0  0.35731  0.95181  0.94559  1.0000 -0.1296332144
N   N17       1.0  0.33704  0.89058  0.79162  1.0000 -0.063489141
N   N18       1.0  0.98076  0.79162  0.89058  1.0000 -0.063489141
N   N19       1.0  0.79162  0.98076  0.33704  1.0000 -0.063489141
N   N20       1.0  0.89058  0.33704  0.98076  1.0000 -0.063489141
N   N21       1.0  0.91296  0.35942  0.45838  1.0000 -0.063489141
N   N22       1.0  0.26924  0.45838  0.35942  1.0000 -0.063489141
N   N23       1.0  0.45838  0.26924  0.91296  1.0000 -0.063489141
N   N24       1.0  0.35942  0.91296  0.26924  1.0000 -0.063489141
N   N25       1.0  0.34920  0.83490  0.81710  1.0000 -0.0915332665
N   N26       1.0  0.99880  0.81710  0.83490  1.0000 -0.0915332665
N   N27       1.0  0.81710  0.99880  0.34920  1.0000 -0.0915332665
N   N28       1.0  0.83490  0.34920  0.99880  1.0000 -0.0915332665
N   N29       1.0  0.90080  0.41510  0.43290  1.0000 -0.0915332665
N   N30       1.0  0.25120  0.43290  0.41510  1.0000 -0.0915332665
N   N31       1.0  0.43290  0.25120  0.90080  1.0000 -0.0915332665
N   N32       1.0  0.41510  0.90080  0.25120  1.0000 -0.0915332665
N   N33       1.0  0.15238  0.22692  0.69468  1.0000 -0.0915332665
N   N34       1.0  0.92602  0.69468  0.22692  1.0000 -0.0915332665
N   N35       1.0  0.69468  0.92602  0.15238  1.0000 -0.0915332665
N   N36       1.0  0.22692  0.15238  0.92602  1.0000 -0.0915332665
N   N37       1.0  0.09762  0.02308  0.55532  1.0000 -0.0915332665
N   N38       1.0  0.32398  0.55532  0.02308  1.0000 -0.0915332665
N   N39       1.0  0.55532  0.32398  0.09762  1.0000 -0.0915332665
N   N40       1.0  0.02308  0.09762  0.32398  1.0000 -0.0915332665
N   N41       1.0  0.29802  0.08764  0.51996  1.0000 -0.0824651961
N   N42       1.0  0.09438  0.51996  0.08764  1.0000 -0.0824651961
N   N43       1.0  0.51996  0.09438  0.29802  1.0000 -0.0824651961
N   N44       1.0  0.08764  0.29802  0.09438  1.0000 -0.0824651961
N   N45       1.0  0.95198  0.16236  0.73004  1.0000 -0.0824651961
N   N46       1.0  0.15562  0.73004  0.16236  1.0000 -0.0824651961
N   N47       1.0  0.73004  0.15562  0.95198  1.0000 -0.0824651961
N   N48       1.0  0.16236  0.95198  0.15562  1.0000 -0.0824651961
O   O1        1.0  0.71085  0.64433  0.09847  1.0000 -0.6304748701
O   O2        1.0  0.54635  0.09847  0.64433  1.0000 -0.6304748701
O   O3        1.0  0.09847  0.54635  0.71085  1.0000 -0.6304748701
O   O4        1.0  0.64433  0.71085  0.54635  1.0000 -0.6304748701
O   O5        1.0  0.53915  0.60567  0.15153  1.0000 -0.6304748701
O   O6        1.0  0.70365  0.15153  0.60567  1.0000 -0.6304748701
O   O7        1.0  0.15153  0.70365  0.53915  1.0000 -0.6304748701
O   O8        1.0  0.60567  0.53915  0.70365  1.0000 -0.6304748701
F   F1        1.0  0.43091  0.24861  0.62539  1.0000 -0.5247151898
F   F2        1.0  0.24861  0.43091  0.69509  1.0000 -0.5247151898
F   F3        1.0  0.38193  0.20539  0.67621  1.0000 -0.5089734541
F   F4        1.0  0.20539  0.38193  0.73647  1.0000 -0.5089734541
F   F5        1.0  0.13517  0.49801  0.89879  1.0000 -0.5286413153
F   F6        1.0  0.49801  0.13517  0.46803  1.0000 -0.5286413153
F   F7        1.0  0.69509  0.62539  0.24861  1.0000 -0.5286413153
F   F8        1.0  0.62539  0.69509  0.43091  1.0000 -0.5286413153
F   F9        1.0  0.73647  0.67621  0.20539  1.0000 -0.5089734541
F   F10       1.0  0.67621  0.73647  0.38193  1.0000 -0.5089734541
F   F11       1.0  0.46803  0.89879  0.49801  1.0000 -0.5286413153
F   F12       1.0  0.89879  0.46803  0.13517  1.0000 -0.5286413153
F   F13       1.0  0.81909  0.00139  0.62461  1.0000 -0.5286413153
F   F14       1.0  0.00139  0.81909  0.55491  1.0000 -0.5286413153
F   F15       1.0  0.86807  0.04461  0.57379  1.0000 -0.5089734541
F   F16       1.0  0.04461  0.86807  0.51353  1.0000 -0.5089734541
F   F17       1.0  0.11483  0.75199  0.35121  1.0000 -0.5286413153
F   F18       1.0  0.75199  0.11483  0.78197  1.0000 -0.5286413153
F   F19       1.0  0.55491  0.62461  0.00139  1.0000 -0.5286413153
F   F20       1.0  0.62461  0.55491  0.81909  1.0000 -0.5286413153
F   F21       1.0  0.51353  0.57379  0.04461  1.0000 -0.5089734541
F   F22       1.0  0.57379  0.51353  0.86807  1.0000 -0.5089734541
F   F23       1.0  0.78197  0.35121  0.75199  1.0000 -0.5286413153
F   F24       1.0  0.35121  0.78197  0.11483  1.0000 -0.5286413153
F   F25       1.0  0.86544  0.65718  0.42302  1.0000 -0.5565318065
F   F26       1.0  0.42302  0.05436  0.86544  1.0000 -0.5565318065
F   F27       1.0  0.59005  0.95545  0.63995  1.0000 -0.5286413153
F   F28       1.0  0.63995  0.81455  0.59005  1.0000 -0.5286413153
F   F29       1.0  0.66025  0.88371  0.69965  1.0000 -0.5501265796
F   F30       1.0  0.69965  0.75639  0.66025  1.0000 -0.5501265796
F   F31       1.0  0.05436  0.42302  0.65718  1.0000 -0.5565318065
F   F32       1.0  0.65718  0.86544  0.05436  1.0000 -0.5565318065
F   F33       1.0  0.81455  0.63995  0.95545  1.0000 -0.5286413153
F   F34       1.0  0.95545  0.59005  0.81455  1.0000 -0.5286413153
F   F35       1.0  0.75639  0.69965  0.88371  1.0000 -0.5501265796
F   F36       1.0  0.88371  0.66025  0.75639  1.0000 -0.5501265796
F   F37       1.0  0.38456  0.59282  0.82698  1.0000 -0.5565318065
F   F38       1.0  0.82698  0.19564  0.38456  1.0000 -0.5565318065
F   F39       1.0  0.65995  0.29455  0.61005  1.0000 -0.5286413153
F   F40       1.0  0.61005  0.43545  0.65995  1.0000 -0.5286413153
F   F41       1.0  0.58975  0.36629  0.55035  1.0000 -0.5501265796
F   F42       1.0  0.55035  0.49361  0.58975  1.0000 -0.5501265796
F   F43       1.0  0.19564  0.82698  0.59282  1.0000 -0.5565318065
F   F44       1.0  0.59282  0.38456  0.19564  1.0000 -0.5565318065
F   F45       1.0  0.43545  0.61005  0.29455  1.0000 -0.5286413153
F   F46       1.0  0.29455  0.65995  0.43545  1.0000 -0.5286413153
F   F47       1.0  0.49361  0.55035  0.36629  1.0000 -0.5501265796
F   F48       1.0  0.36629  0.58975  0.49361  1.0000 -0.5501265796
