# DDEC6 charges by PACMAN v1.1 (https://github.com/mtap-research/PACMAN-charge/)
data_2007[Ag][dia]3[ION]1
_chemical_formula_sum              "Ag4 H68 C68 S8 N8 Cl4 O16"
_cell_length_a       12.489
_cell_length_b       16.293
_cell_length_c       14.085
_cell_angle_alpha    90
_cell_angle_beta     112.425
_cell_angle_gamma    90

_symmetry_space_group_name_H-M    "P 1"
_symmetry_Int_Tables_number       1

loop_
  _symmetry_equiv_pos_as_xyz
  'x, y, z'

loop_
  _atom_site_type_symbol
  _atom_site_label
  _atom_site_symmetry_multiplicity
  _atom_site_fract_x
  _atom_site_fract_y
  _atom_site_fract_z
  _atom_site_occupancy
  _atom_site_charge
Ag  Ag1       1.0  0.33184  0.96308  0.22947  1.0000 0.1761914586
Ag  Ag2       1.0  0.16816  0.46308  0.77053  1.0000 0.1761914586
Ag  Ag3       1.0  0.66816  0.03692  0.77053  1.0000 0.1761914586
Ag  Ag4       1.0  0.83184  0.53692  0.22947  1.0000 0.1761914586
H   H1        1.0  0.07600  0.95090  0.88590  1.0000 0.1181513538
H   H2        1.0  0.42400  0.45090  0.11410  1.0000 0.1181513538
H   H3        1.0  0.92400  0.04910  0.11410  1.0000 0.1181513538
H   H4        1.0  0.57600  0.54910  0.88590  1.0000 0.1181513538
H   H5        1.0  0.94070  0.14020  0.80570  1.0000 0.1300357268
H   H6        1.0  0.55930  0.64020  0.19430  1.0000 0.1382235322
H   H7        1.0  0.05930  0.85980  0.19430  1.0000 0.1300357268
H   H8        1.0  0.44070  0.35980  0.80570  1.0000 0.1300357268
H   H9        1.0  0.02780  0.07780  0.78820  1.0000 0.1382235322
H   H10       1.0  0.47220  0.57780  0.21180  1.0000 0.1382235322
H   H11       1.0  0.97220  0.92220  0.21180  1.0000 0.1382235322
H   H12       1.0  0.52780  0.42220  0.78820  1.0000 0.1382235322
H   H13       1.0  0.88100  0.07970  0.57350  1.0000 0.149156691
H   H14       1.0  0.61900  0.57970  0.42650  1.0000 0.149156691
H   H15       1.0  0.11900  0.92030  0.42650  1.0000 0.149156691
H   H16       1.0  0.38100  0.42030  0.57350  1.0000 0.149156691
H   H17       1.0  0.80800  0.14450  0.60600  1.0000 0.149156691
H   H18       1.0  0.69200  0.64450  0.39400  1.0000 0.149156691
H   H19       1.0  0.19200  0.85550  0.39400  1.0000 0.149156691
H   H20       1.0  0.30800  0.35550  0.60600  1.0000 0.149156691
H   H21       1.0  0.60540  0.15430  0.50140  1.0000 0.1382235322
H   H22       1.0  0.89460  0.65430  0.49860  1.0000 0.1382235322
H   H23       1.0  0.39460  0.84570  0.49860  1.0000 0.1382235322
H   H24       1.0  0.10540  0.34570  0.50140  1.0000 0.1382235322
H   H25       1.0  0.44110  0.10420  0.37470  1.0000 0.0983475467
H   H26       1.0  0.05890  0.60420  0.62530  1.0000 0.0983475467
H   H27       1.0  0.55890  0.89580  0.62530  1.0000 0.0983475467
H   H28       1.0  0.94110  0.39580  0.37470  1.0000 0.0983475467
H   H29       1.0  0.76600  0.94430  0.48970  1.0000 0.1382235322
H   H30       1.0  0.73400  0.44430  0.51030  1.0000 0.1382235322
H   H31       1.0  0.23400  0.05570  0.51030  1.0000 0.1382235322
H   H32       1.0  0.26600  0.55570  0.48970  1.0000 0.1382235322
H   H33       1.0  0.59510  0.89840  0.36530  1.0000 0.1146439558
H   H34       1.0  0.90490  0.39840  0.63470  1.0000 0.1146439558
H   H35       1.0  0.40490  0.10160  0.63470  1.0000 0.1146439558
H   H36       1.0  0.09510  0.60160  0.36530  1.0000 0.1146439558
H   H37       1.0  0.88950  0.18570  0.01910  1.0000 0.1300357268
H   H38       1.0  0.61050  0.68570  0.98090  1.0000 0.1300357268
H   H39       1.0  0.11050  0.81430  0.98090  1.0000 0.1300357268
H   H40       1.0  0.38950  0.31430  0.01910  1.0000 0.1300357268
H   H41       1.0  0.86390  0.18040  0.90080  1.0000 0.1382235322
H   H42       1.0  0.63610  0.68040  0.09920  1.0000 0.1382235322
H   H43       1.0  0.13610  0.81960  0.09920  1.0000 0.1382235322
H   H44       1.0  0.36390  0.31960  0.90080  1.0000 0.1382235322
H   H45       1.0  0.55200  0.20720  0.89180  1.0000 0.149156691
H   H46       1.0  0.94800  0.70720  0.10820  1.0000 0.149156691
H   H47       1.0  0.44800  0.79280  0.10820  1.0000 0.149156691
H   H48       1.0  0.05200  0.29280  0.89180  1.0000 0.149156691
H   H49       1.0  0.63340  0.23670  0.83700  1.0000 0.149156691
H   H50       1.0  0.86660  0.73670  0.16300  1.0000 0.149156691
H   H51       1.0  0.36660  0.76330  0.16300  1.0000 0.149156691
H   H52       1.0  0.13340  0.26330  0.83700  1.0000 0.149156691
H   H53       1.0  0.77620  0.34030  0.91460  1.0000 0.149156691
H   H54       1.0  0.72380  0.84030  0.08540  1.0000 0.149156691
H   H55       1.0  0.22380  0.65970  0.08540  1.0000 0.149156691
H   H56       1.0  0.27620  0.15970  0.91460  1.0000 0.149156691
H   H57       1.0  0.85290  0.43820  0.03980  1.0000 0.0887848624
H   H58       1.0  0.64710  0.93820  0.96020  1.0000 0.0887848624
H   H59       1.0  0.14710  0.56180  0.96020  1.0000 0.0887848624
H   H60       1.0  0.35290  0.06180  0.03980  1.0000 0.0887848624
H   H61       1.0  0.60900  0.24450  0.08160  1.0000 0.1300357268
H   H62       1.0  0.89100  0.74450  0.91840  1.0000 0.1300357268
H   H63       1.0  0.39100  0.75550  0.91840  1.0000 0.1300357268
H   H64       1.0  0.10900  0.25550  0.08160  1.0000 0.1300357268
H   H65       1.0  0.68800  0.34730  0.20120  1.0000 0.0983475467
H   H66       1.0  0.81200  0.84730  0.79880  1.0000 0.0983475467
H   H67       1.0  0.31200  0.65270  0.79880  1.0000 0.0983475467
H   H68       1.0  0.18800  0.15270  0.20120  1.0000 0.0983475467
C   C1        1.0  0.98030  0.04320  0.90770  1.0000 0.0641850413
C   C2        1.0  0.51970  0.54320  0.09230  1.0000 0.0672416535
C   C3        1.0  0.01970  0.95680  0.09230  1.0000 0.0641850413
C   C4        1.0  0.48030  0.45680  0.90770  1.0000 0.0641850413
C   C5        1.0  0.93380  0.07320  0.97740  1.0000 0.0672416535
C   C6        1.0  0.56620  0.57320  0.02260  1.0000 0.0672416535
C   C7        1.0  0.06620  0.92680  0.02260  1.0000 0.0672416535
C   C8        1.0  0.43380  0.42680  0.97740  1.0000 0.0672416535
C   C9        1.0  0.04530  0.97070  0.93210  1.0000 -0.2116952183
C   C10       1.0  0.45470  0.47070  0.06790  1.0000 -0.2116952183
C   C11       1.0  0.95470  0.02930  0.06790  1.0000 -0.2116952183
C   C12       1.0  0.54530  0.52930  0.93210  1.0000 -0.2116952183
C   C13       1.0  0.95930  0.08250  0.80460  1.0000 -0.2725876587
C   C14       1.0  0.54070  0.58250  0.19540  1.0000 -0.2725876587
C   C15       1.0  0.04070  0.91750  0.19540  1.0000 -0.2725876587
C   C16       1.0  0.45930  0.41750  0.80460  1.0000 -0.2725876587
C   C17       1.0  0.81550  0.08670  0.59370  1.0000 -0.2725876587
C   C18       1.0  0.68450  0.58670  0.40630  1.0000 -0.2725876587
C   C19       1.0  0.18450  0.91330  0.40630  1.0000 -0.2725876587
C   C20       1.0  0.31550  0.41330  0.59370  1.0000 -0.2725876587
C   C21       1.0  0.70580  0.05540  0.50980  1.0000 0.149156691
C   C22       1.0  0.79420  0.55540  0.49020  1.0000 0.149156691
C   C23       1.0  0.29420  0.94460  0.49020  1.0000 0.149156691
C   C24       1.0  0.20580  0.44460  0.50980  1.0000 0.149156691
C   C25       1.0  0.60610  0.10230  0.47430  1.0000 -0.1843423153
C   C26       1.0  0.89390  0.60230  0.52570  1.0000 -0.1843423153
C   C27       1.0  0.39390  0.89770  0.52570  1.0000 -0.191718422
C   C28       1.0  0.10610  0.39770  0.47430  1.0000 -0.191718422
C   C29       1.0  0.50720  0.07160  0.39790  1.0000 0.0672416535
C   C30       1.0  0.99280  0.57160  0.60210  1.0000 0.0672416535
C   C31       1.0  0.49280  0.92840  0.60210  1.0000 0.0672416535
C   C32       1.0  0.00720  0.42840  0.39790  1.0000 0.0672416535
C   C33       1.0  0.70100  0.97800  0.46770  1.0000 -0.191718422
C   C34       1.0  0.79900  0.47800  0.53230  1.0000 -0.191718422
C   C35       1.0  0.29900  0.02200  0.53230  1.0000 -0.191718422
C   C36       1.0  0.20100  0.52200  0.46770  1.0000 -0.191718422
C   C37       1.0  0.59760  0.95090  0.39190  1.0000 0.0887848624
C   C38       1.0  0.90240  0.45090  0.60810  1.0000 0.0887848624
C   C39       1.0  0.40240  0.04910  0.60810  1.0000 0.0887848624
C   C40       1.0  0.09760  0.54910  0.39190  1.0000 0.0887848624
C   C41       1.0  0.86080  0.15040  0.95920  1.0000 -0.2855730708
C   C42       1.0  0.63920  0.65040  0.04080  1.0000 -0.2855730708
C   C43       1.0  0.13920  0.84960  0.04080  1.0000 -0.2855730708
C   C44       1.0  0.36080  0.34960  0.95920  1.0000 -0.2855730708
C   C45       1.0  0.63210  0.21660  0.90140  1.0000 -0.3006491418
C   C46       1.0  0.86790  0.71660  0.09860  1.0000 -0.3006491418
C   C47       1.0  0.36790  0.78340  0.09860  1.0000 -0.3006491418
C   C48       1.0  0.13210  0.28340  0.90140  1.0000 -0.3006491418
C   C49       1.0  0.68290  0.28050  0.98300  1.0000 0.1669648384
C   C50       1.0  0.81710  0.78050  0.01700  1.0000 0.1669648384
C   C51       1.0  0.31710  0.71950  0.01700  1.0000 0.1669648384
C   C52       1.0  0.18290  0.21950  0.98300  1.0000 0.1669648384
C   C53       1.0  0.75710  0.34010  0.97220  1.0000 -0.191718422
C   C54       1.0  0.74290  0.84010  0.02780  1.0000 -0.191718422
C   C55       1.0  0.24290  0.65990  0.02780  1.0000 -0.191718422
C   C56       1.0  0.25710  0.15990  0.97220  1.0000 -0.191718422
C   C57       1.0  0.80270  0.39920  0.04810  1.0000 0.0672416535
C   C58       1.0  0.69730  0.89920  0.95190  1.0000 0.0672416535
C   C59       1.0  0.19730  0.60080  0.95190  1.0000 0.0672416535
C   C60       1.0  0.30270  0.10080  0.04810  1.0000 0.0672416535
C   C61       1.0  0.65770  0.28340  0.07090  1.0000 -0.2116952183
C   C62       1.0  0.84230  0.78340  0.92910  1.0000 -0.2116952183
C   C63       1.0  0.34230  0.71660  0.92910  1.0000 -0.2116952183
C   C64       1.0  0.15770  0.21660  0.07090  1.0000 -0.2116952183
C   C65       1.0  0.70640  0.34570  0.14310  1.0000 0.0756946971
C   C66       1.0  0.79360  0.84570  0.85690  1.0000 0.0756946971
C   C67       1.0  0.29360  0.65430  0.85690  1.0000 0.0756946971
C   C68       1.0  0.20640  0.15430  0.14310  1.0000 0.0756946971
S   S1        1.0  0.83765  0.02746  0.70983  1.0000 0.0465952132
S   S2        1.0  0.66235  0.52746  0.29017  1.0000 0.0465952132
S   S3        1.0  0.16235  0.97254  0.29017  1.0000 0.0465952132
S   S4        1.0  0.33765  0.47254  0.70983  1.0000 0.0465952132
S   S5        1.0  0.71149  0.11888  0.93411  1.0000 0.0641850413
S   S6        1.0  0.78851  0.61888  0.06589  1.0000 0.0641850413
S   S7        1.0  0.28851  0.88112  0.06589  1.0000 0.0641850413
S   S8        1.0  0.21149  0.38112  0.93411  1.0000 0.0641850413
N   N1        1.0  0.50190  0.99700  0.35560  1.0000 -0.191718422
N   N2        1.0  0.99810  0.49700  0.64440  1.0000 -0.191718422
N   N3        1.0  0.49810  0.00300  0.64440  1.0000 -0.191718422
N   N4        1.0  0.00190  0.50300  0.35560  1.0000 -0.191718422
N   N5        1.0  0.77790  0.40280  0.13280  1.0000 -0.2457078601
N   N6        1.0  0.72210  0.90280  0.86720  1.0000 -0.2457078601
N   N7        1.0  0.22210  0.59720  0.86720  1.0000 -0.2457078601
N   N8        1.0  0.27790  0.09720  0.13280  1.0000 -0.2457078601
Cl  Cl1       1.0  0.31436  0.69973  0.33895  1.0000 1.2480573451
Cl  Cl2       1.0  0.18564  0.19973  0.66105  1.0000 1.2480573451
Cl  Cl3       1.0  0.68564  0.30027  0.66105  1.0000 1.2480573451
Cl  Cl4       1.0  0.81436  0.80027  0.33895  1.0000 1.2480573451
O   O1        1.0  0.21800  0.73030  0.26080  1.0000 -0.4794101347
O   O2        1.0  0.33500  0.61880  0.31340  1.0000 -0.4794101347
O   O3        1.0  0.29660  0.70060  0.43480  1.0000 -0.4894994179
O   O4        1.0  0.41100  0.74930  0.34860  1.0000 -0.4794101347
O   O5        1.0  0.28200  0.23030  0.73920  1.0000 -0.4794101347
O   O6        1.0  0.16500  0.11880  0.68660  1.0000 -0.4794101347
O   O7        1.0  0.20340  0.20060  0.56520  1.0000 -0.4894994179
O   O8        1.0  0.08900  0.24930  0.65140  1.0000 -0.4794101347
O   O9        1.0  0.78200  0.26970  0.73920  1.0000 -0.4794101347
O   O10       1.0  0.66500  0.38120  0.68660  1.0000 -0.4794101347
O   O11       1.0  0.70340  0.29940  0.56520  1.0000 -0.4894994179
O   O12       1.0  0.58900  0.25070  0.65140  1.0000 -0.4794101347
O   O13       1.0  0.71800  0.76970  0.26080  1.0000 -0.4794101347
O   O14       1.0  0.83500  0.88120  0.31340  1.0000 -0.4794101347
O   O15       1.0  0.79660  0.79940  0.43480  1.0000 -0.4894994179
O   O16       1.0  0.91100  0.75070  0.34860  1.0000 -0.4794101347
