# DDEC6 charges by PACMAN v1.1 (https://github.com/mtap-research/PACMAN-charge/)
data_2007[CoV][nan]3[ION]1
_chemical_formula_sum              "V32 Co4 H64 C80 N16 Cl2 O80"
_cell_length_a       17.038
_cell_length_b       17.038
_cell_length_c       14.754
_cell_angle_alpha    90
_cell_angle_beta     90
_cell_angle_gamma    90

_symmetry_space_group_name_H-M    "P 1"
_symmetry_Int_Tables_number       1

loop_
  _symmetry_equiv_pos_as_xyz
  'x, y, z'

loop_
  _atom_site_type_symbol
  _atom_site_label
  _atom_site_symmetry_multiplicity
  _atom_site_fract_x
  _atom_site_fract_y
  _atom_site_fract_z
  _atom_site_occupancy
  _atom_site_charge
V   V1        1.0  0.07100  0.06433  0.27056  1.0000 1.7530903495
V   V2        1.0  0.92900  0.93567  0.27056  1.0000 1.7530903495
V   V3        1.0  0.93567  0.07100  0.72944  1.0000 1.7530903495
V   V4        1.0  0.06433  0.92900  0.72944  1.0000 1.7530903495
V   V5        1.0  0.42900  0.56433  0.77056  1.0000 1.7530903495
V   V6        1.0  0.57100  0.43567  0.77056  1.0000 1.7530903495
V   V7        1.0  0.56433  0.57100  0.22944  1.0000 1.7530903495
V   V8        1.0  0.43567  0.42900  0.22944  1.0000 1.7530903495
V   V9        1.0  0.05237  0.18396  0.41280  1.0000 1.8969402985
V   V10       1.0  0.94763  0.81604  0.41280  1.0000 1.8940826333
V   V11       1.0  0.81604  0.05237  0.58720  1.0000 1.8969402985
V   V12       1.0  0.18396  0.94763  0.58720  1.0000 1.8940826333
V   V13       1.0  0.44763  0.68396  0.91280  1.0000 1.8969402985
V   V14       1.0  0.55237  0.31604  0.91280  1.0000 1.8969402985
V   V15       1.0  0.68396  0.55237  0.08720  1.0000 1.8969402985
V   V16       1.0  0.31604  0.44763  0.08720  1.0000 1.8969402985
V   V17       1.0  0.81216  0.96862  0.41450  1.0000 1.9234762467
V   V18       1.0  0.18784  0.03138  0.41450  1.0000 1.9234762467
V   V19       1.0  0.03138  0.81216  0.58550  1.0000 1.9234762467
V   V20       1.0  0.96862  0.18784  0.58550  1.0000 1.9234762467
V   V21       1.0  0.68784  0.46862  0.91450  1.0000 1.9234762467
V   V22       1.0  0.31216  0.53138  0.91450  1.0000 1.9234762467
V   V23       1.0  0.46862  0.31216  0.08550  1.0000 1.9234762467
V   V24       1.0  0.53138  0.68784  0.08550  1.0000 1.9234762467
V   V25       1.0  0.88955  0.12199  0.37313  1.0000 1.9713843441
V   V26       1.0  0.11045  0.87801  0.37313  1.0000 1.9713843441
V   V27       1.0  0.87801  0.88955  0.62687  1.0000 1.9713843441
V   V28       1.0  0.12199  0.11045  0.62687  1.0000 1.9713843441
V   V29       1.0  0.61045  0.62199  0.87313  1.0000 1.9713843441
V   V30       1.0  0.38955  0.37801  0.87313  1.0000 1.9713843441
V   V31       1.0  0.62199  0.38955  0.12687  1.0000 1.9713843441
V   V32       1.0  0.37801  0.61045  0.12687  1.0000 1.9713843441
Co  Co1       1.0  0.75500  0.25500  0.25000  1.0000 0.761352805
Co  Co2       1.0  0.24500  0.74500  0.25000  1.0000 0.761352805
Co  Co3       1.0  0.74500  0.75500  0.75000  1.0000 0.761352805
Co  Co4       1.0  0.25500  0.24500  0.75000  1.0000 0.761352805
H   H1        1.0  0.75660  0.08040  0.24090  1.0000 0.0985954493
H   H2        1.0  0.24340  0.91960  0.24090  1.0000 0.0985954493
H   H3        1.0  0.91960  0.75660  0.75910  1.0000 0.0985954493
H   H4        1.0  0.08040  0.24340  0.75910  1.0000 0.0985954493
H   H5        1.0  0.74340  0.58040  0.74090  1.0000 0.0985954493
H   H6        1.0  0.25660  0.41960  0.74090  1.0000 0.0985954493
H   H7        1.0  0.58040  0.25660  0.25910  1.0000 0.0985954493
H   H8        1.0  0.41960  0.74340  0.25910  1.0000 0.0985954493
H   H9        1.0  0.74750  0.97390  0.14360  1.0000 0.1375782913
H   H10       1.0  0.25250  0.02610  0.14360  1.0000 0.1375782913
H   H11       1.0  0.02610  0.74750  0.85640  1.0000 0.1375782913
H   H12       1.0  0.97390  0.25250  0.85640  1.0000 0.1375782913
H   H13       1.0  0.75250  0.47390  0.64360  1.0000 0.1375782913
H   H14       1.0  0.24750  0.52610  0.64360  1.0000 0.1375782913
H   H15       1.0  0.47390  0.24750  0.35640  1.0000 0.1375782913
H   H16       1.0  0.52610  0.75250  0.35640  1.0000 0.1375782913
H   H17       1.0  0.67240  0.12370  0.95000  1.0000 0.129260493
H   H18       1.0  0.32760  0.87630  0.95000  1.0000 0.129260493
H   H19       1.0  0.87630  0.67240  0.05000  1.0000 0.129260493
H   H20       1.0  0.12370  0.32760  0.05000  1.0000 0.129260493
H   H21       1.0  0.82760  0.62370  0.45000  1.0000 0.129260493
H   H22       1.0  0.17240  0.37630  0.45000  1.0000 0.129260493
H   H23       1.0  0.62370  0.17240  0.55000  1.0000 0.129260493
H   H24       1.0  0.37630  0.82760  0.55000  1.0000 0.129260493
H   H25       1.0  0.69120  0.22660  0.05720  1.0000 0.0985954493
H   H26       1.0  0.30880  0.77340  0.05720  1.0000 0.0985954493
H   H27       1.0  0.77340  0.69120  0.94280  1.0000 0.0985954493
H   H28       1.0  0.22660  0.30880  0.94280  1.0000 0.0985954493
H   H29       1.0  0.80880  0.72660  0.55720  1.0000 0.0985954493
H   H30       1.0  0.19120  0.27340  0.55720  1.0000 0.0985954493
H   H31       1.0  0.72660  0.19120  0.44280  1.0000 0.0985954493
H   H32       1.0  0.27340  0.80880  0.44280  1.0000 0.0985954493
H   H33       1.0  0.68130  0.78570  0.94710  1.0000 0.1187436241
H   H34       1.0  0.31870  0.21430  0.94710  1.0000 0.1187436241
H   H35       1.0  0.21430  0.68130  0.05290  1.0000 0.1187436241
H   H36       1.0  0.78570  0.31870  0.05290  1.0000 0.1187436241
H   H37       1.0  0.81870  0.28570  0.44710  1.0000 0.1187436241
H   H38       1.0  0.18130  0.71430  0.44710  1.0000 0.1187436241
H   H39       1.0  0.28570  0.18130  0.55290  1.0000 0.1187436241
H   H40       1.0  0.71430  0.81870  0.55290  1.0000 0.1187436241
H   H41       1.0  0.68260  0.87860  0.05170  1.0000 0.1375782913
H   H42       1.0  0.31740  0.12140  0.05170  1.0000 0.1375782913
H   H43       1.0  0.12140  0.68260  0.94830  1.0000 0.1375782913
H   H44       1.0  0.87860  0.31740  0.94830  1.0000 0.1375782913
H   H45       1.0  0.81740  0.37860  0.55170  1.0000 0.1375782913
H   H46       1.0  0.18260  0.62140  0.55170  1.0000 0.1375782913
H   H47       1.0  0.37860  0.18260  0.44830  1.0000 0.1375782913
H   H48       1.0  0.62140  0.81740  0.44830  1.0000 0.1375782913
H   H49       1.0  0.73250  0.03600  0.85460  1.0000 0.1375782913
H   H50       1.0  0.26750  0.96400  0.85460  1.0000 0.1375782913
H   H51       1.0  0.96400  0.73250  0.14540  1.0000 0.1375782913
H   H52       1.0  0.03600  0.26750  0.14540  1.0000 0.1375782913
H   H53       1.0  0.76750  0.53600  0.35460  1.0000 0.1375782913
H   H54       1.0  0.23250  0.46400  0.35460  1.0000 0.1375782913
H   H55       1.0  0.53600  0.23250  0.64540  1.0000 0.1375782913
H   H56       1.0  0.46400  0.76750  0.64540  1.0000 0.1375782913
H   H57       1.0  0.74330  0.93010  0.75650  1.0000 0.1110496144
H   H58       1.0  0.25670  0.06990  0.75650  1.0000 0.1110496144
H   H59       1.0  0.06990  0.74330  0.24350  1.0000 0.1110496144
H   H60       1.0  0.93010  0.25670  0.24350  1.0000 0.1110496144
H   H61       1.0  0.75670  0.43010  0.25650  1.0000 0.1110496144
H   H62       1.0  0.24330  0.56990  0.25650  1.0000 0.1110496144
H   H63       1.0  0.43010  0.24330  0.74350  1.0000 0.1110496144
H   H64       1.0  0.56990  0.75670  0.74350  1.0000 0.1110496144
C   C1        1.0  0.73900  0.08880  0.18200  1.0000 0.1110496144
C   C2        1.0  0.26100  0.91120  0.18200  1.0000 0.1110496144
C   C3        1.0  0.91120  0.73900  0.81800  1.0000 0.1110496144
C   C4        1.0  0.08880  0.26100  0.81800  1.0000 0.1110496144
C   C5        1.0  0.76100  0.58880  0.68200  1.0000 0.1110496144
C   C6        1.0  0.23900  0.41120  0.68200  1.0000 0.1110496144
C   C7        1.0  0.58880  0.23900  0.31800  1.0000 0.1110496144
C   C8        1.0  0.41120  0.76100  0.31800  1.0000 0.1110496144
C   C9        1.0  0.73480  0.02400  0.12330  1.0000 -0.1728181117
C   C10       1.0  0.26520  0.97600  0.12330  1.0000 -0.1728181117
C   C11       1.0  0.97600  0.73480  0.87670  1.0000 -0.1728181117
C   C12       1.0  0.02400  0.26520  0.87670  1.0000 -0.1728181117
C   C13       1.0  0.76520  0.52400  0.62330  1.0000 -0.1728181117
C   C14       1.0  0.23480  0.47600  0.62330  1.0000 -0.1728181117
C   C15       1.0  0.52400  0.23480  0.37670  1.0000 -0.1728181117
C   C16       1.0  0.47600  0.76520  0.37670  1.0000 -0.1728181117
C   C17       1.0  0.71210  0.03620  0.03660  1.0000 0.0907044378
C   C18       1.0  0.28790  0.96380  0.03660  1.0000 0.0907044378
C   C19       1.0  0.96380  0.71210  0.96340  1.0000 0.0907044378
C   C20       1.0  0.03620  0.28790  0.96340  1.0000 0.0907044378
C   C21       1.0  0.78790  0.53620  0.53660  1.0000 0.0907044378
C   C22       1.0  0.21210  0.46380  0.53660  1.0000 0.0907044378
C   C23       1.0  0.53620  0.21210  0.46340  1.0000 0.0907044378
C   C24       1.0  0.46380  0.78790  0.46340  1.0000 0.0907044378
C   C25       1.0  0.69090  0.11350  0.00810  1.0000 -0.1928895586
C   C26       1.0  0.30910  0.88650  0.00810  1.0000 -0.1928895586
C   C27       1.0  0.88650  0.69090  0.99190  1.0000 -0.1928895586
C   C28       1.0  0.11350  0.30910  0.99190  1.0000 -0.1928895586
C   C29       1.0  0.80910  0.61350  0.50810  1.0000 -0.1928895586
C   C30       1.0  0.19090  0.38650  0.50810  1.0000 -0.1928895586
C   C31       1.0  0.61350  0.19090  0.49190  1.0000 -0.1928895586
C   C32       1.0  0.38650  0.80910  0.49190  1.0000 -0.1928895586
C   C33       1.0  0.69980  0.17490  0.07490  1.0000 0.1187436241
C   C34       1.0  0.30020  0.82510  0.07490  1.0000 0.1187436241
C   C35       1.0  0.82510  0.69980  0.92510  1.0000 0.1187436241
C   C36       1.0  0.17490  0.30020  0.92510  1.0000 0.1187436241
C   C37       1.0  0.80020  0.67490  0.57490  1.0000 0.1187436241
C   C38       1.0  0.19980  0.32510  0.57490  1.0000 0.1187436241
C   C39       1.0  0.67490  0.19980  0.42510  1.0000 0.1187436241
C   C40       1.0  0.32510  0.80020  0.42510  1.0000 0.1187436241
C   C41       1.0  0.69470  0.83640  0.92940  1.0000 0.0674714945
C   C42       1.0  0.30530  0.16360  0.92940  1.0000 0.0674714945
C   C43       1.0  0.16360  0.69470  0.07060  1.0000 0.0674714945
C   C44       1.0  0.83640  0.30530  0.07060  1.0000 0.0674714945
C   C45       1.0  0.80530  0.33640  0.42940  1.0000 0.0674714945
C   C46       1.0  0.19470  0.66360  0.42940  1.0000 0.0674714945
C   C47       1.0  0.33640  0.19470  0.57060  1.0000 0.0674714945
C   C48       1.0  0.66360  0.80530  0.57060  1.0000 0.0674714945
C   C49       1.0  0.69320  0.89210  0.99180  1.0000 -0.1825935156
C   C50       1.0  0.30680  0.10790  0.99180  1.0000 -0.1825935156
C   C51       1.0  0.10790  0.69320  0.00820  1.0000 -0.1825935156
C   C52       1.0  0.89210  0.30680  0.00820  1.0000 -0.1825935156
C   C53       1.0  0.80680  0.39210  0.49180  1.0000 -0.1825935156
C   C54       1.0  0.19320  0.60790  0.49180  1.0000 -0.1825935156
C   C55       1.0  0.39210  0.19320  0.50820  1.0000 -0.1825935156
C   C56       1.0  0.60790  0.80680  0.50820  1.0000 -0.1825935156
C   C57       1.0  0.70710  0.97140  0.97000  1.0000 0.1110496144
C   C58       1.0  0.29290  0.02860  0.97000  1.0000 0.1110496144
C   C59       1.0  0.02860  0.70710  0.03000  1.0000 0.1110496144
C   C60       1.0  0.97140  0.29290  0.03000  1.0000 0.1110496144
C   C61       1.0  0.79290  0.47140  0.47000  1.0000 0.1110496144
C   C62       1.0  0.20710  0.52860  0.47000  1.0000 0.1110496144
C   C63       1.0  0.47140  0.20710  0.53000  1.0000 0.1110496144
C   C64       1.0  0.52860  0.79290  0.53000  1.0000 0.1110496144
C   C65       1.0  0.72450  0.98530  0.87580  1.0000 -0.1980063044
C   C66       1.0  0.27550  0.01470  0.87580  1.0000 -0.1980063044
C   C67       1.0  0.01470  0.72450  0.12420  1.0000 -0.1980063044
C   C68       1.0  0.98530  0.27550  0.12420  1.0000 -0.1980063044
C   C69       1.0  0.77550  0.48530  0.37580  1.0000 -0.1980063044
C   C70       1.0  0.22450  0.51470  0.37580  1.0000 -0.1980063044
C   C71       1.0  0.48530  0.22450  0.62420  1.0000 -0.1980063044
C   C72       1.0  0.51470  0.77550  0.62420  1.0000 -0.1980063044
C   C73       1.0  0.72920  0.92090  0.81640  1.0000 0.1187436241
C   C74       1.0  0.27080  0.07910  0.81640  1.0000 0.1187436241
C   C75       1.0  0.07910  0.72920  0.18360  1.0000 0.1187436241
C   C76       1.0  0.92090  0.27080  0.18360  1.0000 0.1187436241
C   C77       1.0  0.77080  0.42090  0.31640  1.0000 0.1187436241
C   C78       1.0  0.22920  0.57910  0.31640  1.0000 0.1187436241
C   C79       1.0  0.42090  0.22920  0.68360  1.0000 0.1187436241
C   C80       1.0  0.57910  0.77080  0.68360  1.0000 0.1187436241
N   N1        1.0  0.71920  0.16110  0.15860  1.0000 -0.2529239082
N   N2        1.0  0.28080  0.83890  0.15860  1.0000 -0.2529239082
N   N3        1.0  0.83890  0.71920  0.84140  1.0000 -0.2529239082
N   N4        1.0  0.16110  0.28080  0.84140  1.0000 -0.2529239082
N   N5        1.0  0.78080  0.66110  0.65860  1.0000 -0.2529239082
N   N6        1.0  0.21920  0.33890  0.65860  1.0000 -0.2529239082
N   N7        1.0  0.66110  0.21920  0.34140  1.0000 -0.2529239082
N   N8        1.0  0.33890  0.78080  0.34140  1.0000 -0.2529239082
N   N9        1.0  0.71450  0.84820  0.84160  1.0000 -0.2417407208
N   N10       1.0  0.28550  0.15180  0.84160  1.0000 -0.2417407208
N   N11       1.0  0.15180  0.71450  0.15840  1.0000 -0.2417407208
N   N12       1.0  0.84820  0.28550  0.15840  1.0000 -0.2417407208
N   N13       1.0  0.78550  0.34820  0.34160  1.0000 -0.2417407208
N   N14       1.0  0.21450  0.65180  0.34160  1.0000 -0.2417407208
N   N15       1.0  0.34820  0.21450  0.65840  1.0000 -0.2417407208
N   N16       1.0  0.65180  0.78550  0.65840  1.0000 -0.2417407208
Cl  Cl1       1.0  0.00000  0.00000  0.50000  1.0000 -0.7681097173
Cl  Cl2       1.0  0.50000  0.50000  0.00000  1.0000 -0.7681097173
O   O1        1.0  0.13560  0.11950  0.37900  1.0000 -0.9787892722
O   O2        1.0  0.86440  0.88050  0.37900  1.0000 -0.9787892722
O   O3        1.0  0.88050  0.13560  0.62100  1.0000 -0.9787892722
O   O4        1.0  0.11950  0.86440  0.62100  1.0000 -0.9787892722
O   O5        1.0  0.36440  0.61950  0.87900  1.0000 -0.9787892722
O   O6        1.0  0.63560  0.38050  0.87900  1.0000 -0.9787892722
O   O7        1.0  0.61950  0.63560  0.12100  1.0000 -0.9787892722
O   O8        1.0  0.38050  0.36440  0.12100  1.0000 -0.9787892722
O   O9        1.0  0.72370  0.96000  0.38030  1.0000 -0.6486678743
O   O10       1.0  0.27630  0.04000  0.38030  1.0000 -0.6486678743
O   O11       1.0  0.04000  0.72370  0.61970  1.0000 -0.6486678743
O   O12       1.0  0.96000  0.27630  0.61970  1.0000 -0.6486678743
O   O13       1.0  0.77630  0.46000  0.88030  1.0000 -0.6486678743
O   O14       1.0  0.22370  0.54000  0.88030  1.0000 -0.6486678743
O   O15       1.0  0.46000  0.22370  0.11970  1.0000 -0.6486678743
O   O16       1.0  0.54000  0.77630  0.11970  1.0000 -0.6486678743
O   O17       1.0  0.99160  0.12870  0.31840  1.0000 -1.0409833961
O   O18       1.0  0.00840  0.87130  0.31840  1.0000 -1.0409833961
O   O19       1.0  0.87130  0.99160  0.68160  1.0000 -1.0409833961
O   O20       1.0  0.12870  0.00840  0.68160  1.0000 -1.0409833961
O   O21       1.0  0.50840  0.62870  0.81840  1.0000 -1.0409833961
O   O22       1.0  0.49160  0.37130  0.81840  1.0000 -1.0409833961
O   O23       1.0  0.62870  0.49160  0.18160  1.0000 -1.0409833961
O   O24       1.0  0.37130  0.50840  0.18160  1.0000 -1.0409833961
O   O25       1.0  0.87290  0.02220  0.32200  1.0000 -1.0315944874
O   O26       1.0  0.12710  0.97780  0.32200  1.0000 -1.0315944874
O   O27       1.0  0.97780  0.87290  0.67800  1.0000 -1.0315944874
O   O28       1.0  0.02220  0.12710  0.67800  1.0000 -1.0315944874
O   O29       1.0  0.62710  0.52220  0.82200  1.0000 -1.0315944874
O   O30       1.0  0.37290  0.47780  0.82200  1.0000 -1.0315944874
O   O31       1.0  0.52220  0.37290  0.17800  1.0000 -1.0315944874
O   O32       1.0  0.47780  0.62710  0.17800  1.0000 -1.0315944874
O   O33       1.0  0.07390  0.26960  0.37600  1.0000 -0.6578324758
O   O34       1.0  0.92610  0.73040  0.37600  1.0000 -0.6578324758
O   O35       1.0  0.73040  0.07390  0.62400  1.0000 -0.6578324758
O   O36       1.0  0.26960  0.92610  0.62400  1.0000 -0.6578324758
O   O37       1.0  0.42610  0.76960  0.87600  1.0000 -0.6578324758
O   O38       1.0  0.57390  0.23040  0.87600  1.0000 -0.6578324758
O   O39       1.0  0.76960  0.57390  0.12400  1.0000 -0.6578324758
O   O40       1.0  0.23040  0.42610  0.12400  1.0000 -0.6578324758
O   O41       1.0  0.94150  0.18600  0.46160  1.0000 -1.0515484237
O   O42       1.0  0.05850  0.81400  0.46160  1.0000 -1.0515484237
O   O43       1.0  0.81400  0.94150  0.53840  1.0000 -1.0515484237
O   O44       1.0  0.18600  0.05850  0.53840  1.0000 -1.0515484237
O   O45       1.0  0.55850  0.68600  0.96160  1.0000 -1.0515484237
O   O46       1.0  0.44150  0.31400  0.96160  1.0000 -1.0515484237
O   O47       1.0  0.68600  0.44150  0.03840  1.0000 -1.0515484237
O   O48       1.0  0.31400  0.55850  0.03840  1.0000 -1.0515484237
O   O49       1.0  0.11610  0.10000  0.18290  1.0000 -0.6859980376
O   O50       1.0  0.88390  0.90000  0.18290  1.0000 -0.6859980376
O   O51       1.0  0.90000  0.11610  0.81710  1.0000 -0.6859980376
O   O52       1.0  0.10000  0.88390  0.81710  1.0000 -0.6859980376
O   O53       1.0  0.38390  0.60000  0.68290  1.0000 -0.6859980376
O   O54       1.0  0.61610  0.40000  0.68290  1.0000 -0.6859980376
O   O55       1.0  0.60000  0.61610  0.31710  1.0000 -0.6840116703
O   O56       1.0  0.40000  0.38390  0.31710  1.0000 -0.6859980376
O   O57       1.0  0.82420  0.07570  0.46190  1.0000 -1.0515484237
O   O58       1.0  0.17580  0.92430  0.46190  1.0000 -1.0515484237
O   O59       1.0  0.92430  0.82420  0.53810  1.0000 -1.0515484237
O   O60       1.0  0.07570  0.17580  0.53810  1.0000 -1.0515484237
O   O61       1.0  0.67580  0.57570  0.96190  1.0000 -1.0515484237
O   O62       1.0  0.32420  0.42430  0.96190  1.0000 -1.0515484237
O   O63       1.0  0.57570  0.32420  0.03810  1.0000 -1.0515484237
O   O64       1.0  0.42430  0.67580  0.03810  1.0000 -1.0515484237
O   O65       1.0  0.83220  0.18200  0.31810  1.0000 -0.7681097173
O   O66       1.0  0.16780  0.81800  0.31810  1.0000 -0.7681097173
O   O67       1.0  0.81800  0.83220  0.68190  1.0000 -0.7681097173
O   O68       1.0  0.18200  0.16780  0.68190  1.0000 -0.7681097173
O   O69       1.0  0.66780  0.68200  0.81810  1.0000 -0.7681097173
O   O70       1.0  0.33220  0.31800  0.81810  1.0000 -0.7681097173
O   O71       1.0  0.68200  0.33220  0.18190  1.0000 -0.7681097173
O   O72       1.0  0.31800  0.66780  0.18190  1.0000 -0.7681097173
O   O73       1.0  0.00000  0.00000  0.21240  1.0000 -0.2417407208
O   O74       1.0  0.00000  0.00000  0.78760  1.0000 -0.2417407208
O   O75       1.0  0.50000  0.50000  0.71240  1.0000 -0.2417407208
O   O76       1.0  0.50000  0.50000  0.28760  1.0000 -0.2417407208
O   O77       1.0  0.50000  0.50000  0.20750  1.0000 -0.0841275104
O   O78       1.0  0.50000  0.50000  0.79250  1.0000 -0.086361274
O   O79       1.0  0.00000  0.00000  0.70750  1.0000 -0.086361274
O   O80       1.0  0.00000  0.00000  0.29250  1.0000 -0.086361274
