# DDEC6 charges by PACMAN v1.1 (https://github.com/mtap-research/PACMAN-charge/)
data_2008[Co][bcg]3[ION]1
_chemical_formula_sum              "Co6 H80 C80 N4 O32"
_cell_length_a       17.3026
_cell_length_b       17.3026
_cell_length_c       18.2274
_cell_angle_alpha    87.5828
_cell_angle_beta     92.4172
_cell_angle_gamma    147.169

_symmetry_space_group_name_H-M    "P 1"
_symmetry_Int_Tables_number       1

loop_
  _symmetry_equiv_pos_as_xyz
  'x, y, z'

loop_
  _atom_site_type_symbol
  _atom_site_label
  _atom_site_symmetry_multiplicity
  _atom_site_fract_x
  _atom_site_fract_y
  _atom_site_fract_z
  _atom_site_occupancy
  _atom_site_charge
Co  Co1       1.0  0.54747  0.85509  0.00210  1.0000 0.951238685
Co  Co2       1.0  0.85509  0.54747  0.49790  1.0000 0.951238685
Co  Co3       1.0  0.45253  0.14491  0.99790  1.0000 0.951238685
Co  Co4       1.0  0.14491  0.45253  0.50210  1.0000 0.951238685
Co  Co5       1.0  0.50000  0.00000  0.00000  1.0000 1.0423880151
Co  Co6       1.0  0.00000  0.50000  0.50000  1.0000 1.0423880151
H   H1        1.0  0.33510  0.40922  0.09307  1.0000 0.1011260381
H   H2        1.0  0.40922  0.33510  0.40693  1.0000 0.1011260381
H   H3        1.0  0.66490  0.59078  0.90693  1.0000 0.1011260381
H   H4        1.0  0.59078  0.66490  0.59307  1.0000 0.1011260381
H   H5        1.0  0.64026  0.71042  0.92313  1.0000 0.1011260381
H   H6        1.0  0.71042  0.64026  0.57687  1.0000 0.1011260381
H   H7        1.0  0.35974  0.28958  0.07687  1.0000 0.1011260381
H   H8        1.0  0.28958  0.35974  0.42313  1.0000 0.1011260381
H   H9        1.0  0.04195  0.46973  0.88380  1.0000 0.1011260381
H   H10       1.0  0.46973  0.04195  0.61620  1.0000 0.1011260381
H   H11       1.0  0.95805  0.53027  0.11620  1.0000 0.1011260381
H   H12       1.0  0.53027  0.95805  0.38380  1.0000 0.1011260381
H   H13       1.0  0.20259  0.69695  0.08391  1.0000 0.1105116295
H   H14       1.0  0.69695  0.20259  0.41609  1.0000 0.1105116295
H   H15       1.0  0.79741  0.30305  0.91609  1.0000 0.1105116295
H   H16       1.0  0.30305  0.79741  0.58391  1.0000 0.1105116295
H   H17       1.0  0.73592  0.99298  0.22265  1.0000 0.1105116295
H   H18       1.0  0.99298  0.73592  0.27735  1.0000 0.1105116295
H   H19       1.0  0.26408  0.00702  0.77735  1.0000 0.1105116295
H   H20       1.0  0.00702  0.26408  0.72265  1.0000 0.1105116295
H   H21       1.0  0.85906  0.12282  0.33972  1.0000 0.1155763908
H   H22       1.0  0.12282  0.85906  0.16028  1.0000 0.1155763908
H   H23       1.0  0.14094  0.87718  0.66028  1.0000 0.1155763908
H   H24       1.0  0.87718  0.14094  0.83972  1.0000 0.1155763908
H   H25       1.0  0.87384  0.37732  0.27667  1.0000 0.1105116295
H   H26       1.0  0.37732  0.87384  0.22333  1.0000 0.1105116295
H   H27       1.0  0.12616  0.62268  0.72333  1.0000 0.1105116295
H   H28       1.0  0.62268  0.12616  0.77667  1.0000 0.1105116295
H   H29       1.0  0.75590  0.25138  0.15849  1.0000 0.1105116295
H   H30       1.0  0.25138  0.75590  0.34151  1.0000 0.1105116295
H   H31       1.0  0.24410  0.74862  0.84151  1.0000 0.1105116295
H   H32       1.0  0.74862  0.24410  0.65849  1.0000 0.1105116295
H   H33       1.0  0.43446  0.64904  0.33466  1.0000 0.2733437946
H   H34       1.0  0.28986  0.58252  0.34081  1.0000 0.2852908304
H   H35       1.0  0.44672  0.68974  0.20353  1.0000 0.0926332368
H   H36       1.0  0.46552  0.78658  0.25834  1.0000 0.0806628993
H   H37       1.0  0.20215  0.51803  0.17624  1.0000 0.1437030441
H   H38       1.0  0.30786  0.68686  0.15753  1.0000 0.1500611832
H   H39       1.0  0.20737  0.59691  0.23651  1.0000 0.1307108234
H   H40       1.0  0.16178  0.38956  0.25704  1.0000 0.0806628993
H   H41       1.0  0.21036  0.38812  0.34371  1.0000 0.0926332368
H   H42       1.0  0.36939  0.50521  0.20268  1.0000 0.1437030441
H   H43       1.0  0.26874  0.35002  0.24761  1.0000 0.1307108234
H   H44       1.0  0.42440  0.51332  0.28725  1.0000 0.1307108234
H   H45       1.0  0.64904  0.43446  0.16534  1.0000 0.2733437946
H   H46       1.0  0.58252  0.28986  0.15919  1.0000 0.2852908304
H   H47       1.0  0.68974  0.44672  0.29647  1.0000 0.0926332368
H   H48       1.0  0.78658  0.46552  0.24166  1.0000 0.0806628993
H   H49       1.0  0.51803  0.20215  0.32376  1.0000 0.1437030441
H   H50       1.0  0.68686  0.30786  0.34247  1.0000 0.1500611832
H   H51       1.0  0.59691  0.20737  0.26349  1.0000 0.1307108234
H   H52       1.0  0.38956  0.16178  0.24296  1.0000 0.0806628993
H   H53       1.0  0.38812  0.21036  0.15629  1.0000 0.0926332368
H   H54       1.0  0.50521  0.36939  0.29732  1.0000 0.1437030441
H   H55       1.0  0.35002  0.26874  0.25239  1.0000 0.1307108234
H   H56       1.0  0.51332  0.42440  0.21275  1.0000 0.1307108234
H   H57       1.0  0.56554  0.35096  0.66534  1.0000 0.2733437946
H   H58       1.0  0.71014  0.41748  0.65919  1.0000 0.2852908304
H   H59       1.0  0.55328  0.31026  0.79647  1.0000 0.0926332368
H   H60       1.0  0.53448  0.21342  0.74166  1.0000 0.0806628993
H   H61       1.0  0.79785  0.48197  0.82376  1.0000 0.1437030441
H   H62       1.0  0.69214  0.31314  0.84247  1.0000 0.1500611832
H   H63       1.0  0.79262  0.40308  0.76349  1.0000 0.1307108234
H   H64       1.0  0.83822  0.61044  0.74296  1.0000 0.0806628993
H   H65       1.0  0.78964  0.61188  0.65629  1.0000 0.0926332368
H   H66       1.0  0.63061  0.49479  0.79732  1.0000 0.1437030441
H   H67       1.0  0.73126  0.64998  0.75239  1.0000 0.1307108234
H   H68       1.0  0.57560  0.48668  0.71275  1.0000 0.1307108234
H   H69       1.0  0.35096  0.56554  0.83466  1.0000 0.2733437946
H   H70       1.0  0.41748  0.71014  0.84081  1.0000 0.2852908304
H   H71       1.0  0.31026  0.55328  0.70353  1.0000 0.0926332368
H   H72       1.0  0.21342  0.53448  0.75834  1.0000 0.0806628993
H   H73       1.0  0.48197  0.79785  0.67624  1.0000 0.1437030441
H   H74       1.0  0.31314  0.69214  0.65753  1.0000 0.1500611832
H   H75       1.0  0.40308  0.79262  0.73651  1.0000 0.1307108234
H   H76       1.0  0.61044  0.83822  0.75704  1.0000 0.0806628993
H   H77       1.0  0.61188  0.78964  0.84371  1.0000 0.0926332368
H   H78       1.0  0.49479  0.63061  0.70268  1.0000 0.1437030441
H   H79       1.0  0.64998  0.73126  0.74761  1.0000 0.1307108234
H   H80       1.0  0.48668  0.57560  0.78725  1.0000 0.1307108234
C   C1        1.0  0.47265  0.64157  0.01991  1.0000 0.5519429973
C   C2        1.0  0.64157  0.47265  0.48009  1.0000 0.5519429973
C   C3        1.0  0.52735  0.35843  0.98009  1.0000 0.5519429973
C   C4        1.0  0.35843  0.52735  0.51991  1.0000 0.5519429973
C   C5        1.0  0.48587  0.56751  0.00902  1.0000 -0.018936016
C   C6        1.0  0.56751  0.48587  0.49098  1.0000 -0.018936016
C   C7        1.0  0.51413  0.43249  0.99098  1.0000 -0.018936016
C   C8        1.0  0.43249  0.51413  0.50902  1.0000 -0.018936016
C   C9        1.0  0.40717  0.44891  0.05237  1.0000 -0.1080060533
C   C10       1.0  0.44891  0.40717  0.44763  1.0000 -0.1080060533
C   C11       1.0  0.59283  0.55109  0.94763  1.0000 -0.1080060533
C   C12       1.0  0.55109  0.59283  0.55237  1.0000 -0.1080060533
C   C13       1.0  0.57872  0.61818  0.95674  1.0000 -0.1005199378
C   C14       1.0  0.61818  0.57872  0.54326  1.0000 -0.1005199378
C   C15       1.0  0.42128  0.38182  0.04326  1.0000 -0.1005199378
C   C16       1.0  0.38182  0.42128  0.45674  1.0000 -0.1005199378
C   C17       1.0  0.28395  0.69149  0.96270  1.0000 0.5818095511
C   C18       1.0  0.69149  0.28395  0.53730  1.0000 0.5818095511
C   C19       1.0  0.71605  0.30851  0.03730  1.0000 0.5818095511
C   C20       1.0  0.30851  0.71605  0.46270  1.0000 0.5818095511
C   C21       1.0  0.13754  0.59396  0.98180  1.0000 -0.018936016
C   C22       1.0  0.59396  0.13754  0.51820  1.0000 -0.018936016
C   C23       1.0  0.86246  0.40604  0.01820  1.0000 -0.018936016
C   C24       1.0  0.40604  0.86246  0.48180  1.0000 -0.018936016
C   C25       1.0  0.02332  0.48282  0.93445  1.0000 -0.1005199378
C   C26       1.0  0.48282  0.02332  0.56555  1.0000 -0.1005199378
C   C27       1.0  0.97668  0.51718  0.06555  1.0000 -0.1005199378
C   C28       1.0  0.51718  0.97668  0.43445  1.0000 -0.1005199378
C   C29       1.0  0.11402  0.61094  0.04731  1.0000 -0.0871134618
C   C30       1.0  0.61094  0.11402  0.45269  1.0000 -0.0871134618
C   C31       1.0  0.88598  0.38906  0.95269  1.0000 -0.0871134618
C   C32       1.0  0.38906  0.88598  0.54731  1.0000 -0.0871134618
C   C33       1.0  0.67464  0.04434  0.11000  1.0000 0.5876908234
C   C34       1.0  0.04434  0.67464  0.39000  1.0000 0.5876908234
C   C35       1.0  0.32536  0.95566  0.89000  1.0000 0.5876908234
C   C36       1.0  0.95566  0.32536  0.61000  1.0000 0.5876908234
C   C37       1.0  0.74138  0.11654  0.18252  1.0000 -0.018936016
C   C38       1.0  0.11654  0.74138  0.31748  1.0000 -0.018936016
C   C39       1.0  0.25862  0.88346  0.81748  1.0000 -0.018936016
C   C40       1.0  0.88346  0.25862  0.68252  1.0000 -0.018936016
C   C41       1.0  0.76818  0.07850  0.23407  1.0000 -0.1080060533
C   C42       1.0  0.07850  0.76818  0.26593  1.0000 -0.1080060533
C   C43       1.0  0.23182  0.92150  0.76593  1.0000 -0.1080060533
C   C44       1.0  0.92150  0.23182  0.73407  1.0000 -0.1080060533
C   C45       1.0  0.83628  0.15062  0.30012  1.0000 -0.1080060533
C   C46       1.0  0.15062  0.83628  0.19988  1.0000 -0.1080060533
C   C47       1.0  0.16372  0.84938  0.69988  1.0000 -0.1080060533
C   C48       1.0  0.84938  0.16372  0.80012  1.0000 -0.1080060533
C   C49       1.0  0.87542  0.25930  0.31515  1.0000 -0.0289571931
C   C50       1.0  0.25930  0.87542  0.18485  1.0000 -0.0289571931
C   C51       1.0  0.12458  0.74070  0.68485  1.0000 -0.0289571931
C   C52       1.0  0.74070  0.12458  0.81515  1.0000 -0.0289571931
C   C53       1.0  0.84533  0.29461  0.26443  1.0000 -0.1005199378
C   C54       1.0  0.29461  0.84533  0.23557  1.0000 -0.1005199378
C   C55       1.0  0.15467  0.70539  0.73557  1.0000 -0.1005199378
C   C56       1.0  0.70539  0.15467  0.76443  1.0000 -0.1005199378
C   C57       1.0  0.77880  0.22366  0.19804  1.0000 -0.0871134618
C   C58       1.0  0.22366  0.77880  0.30196  1.0000 -0.0871134618
C   C59       1.0  0.22120  0.77634  0.80196  1.0000 -0.0871134618
C   C60       1.0  0.77634  0.22120  0.69804  1.0000 -0.0871134618
C   C61       1.0  0.95119  0.33941  0.38535  1.0000 0.5818095511
C   C62       1.0  0.33941  0.95119  0.11465  1.0000 0.5818095511
C   C63       1.0  0.04881  0.66059  0.61465  1.0000 0.5818095511
C   C64       1.0  0.66059  0.04881  0.88535  1.0000 0.5818095511
C   C65       1.0  0.39063  0.67959  0.24075  1.0000 0.0289822264
C   C66       1.0  0.26792  0.61566  0.19974  1.0000 -0.4196108797
C   C67       1.0  0.25211  0.44713  0.29191  1.0000 0.0376358597
C   C68       1.0  0.33438  0.45418  0.25461  1.0000 -0.4196108797
C   C69       1.0  0.67959  0.39063  0.25925  1.0000 0.0289822264
C   C70       1.0  0.61566  0.26792  0.30026  1.0000 -0.4196108797
C   C71       1.0  0.44713  0.25211  0.20809  1.0000 0.0376358597
C   C72       1.0  0.45418  0.33438  0.24539  1.0000 -0.4196108797
C   C73       1.0  0.60937  0.32041  0.75925  1.0000 0.0289822264
C   C74       1.0  0.73208  0.38434  0.80026  1.0000 -0.4196108797
C   C75       1.0  0.74789  0.55287  0.70809  1.0000 0.0376358597
C   C76       1.0  0.66562  0.54582  0.74539  1.0000 -0.4196108797
C   C77       1.0  0.32041  0.60937  0.74075  1.0000 0.0289822264
C   C78       1.0  0.38434  0.73208  0.69974  1.0000 -0.4196108797
C   C79       1.0  0.55287  0.74789  0.79191  1.0000 0.0376358597
C   C80       1.0  0.54582  0.66562  0.75461  1.0000 -0.4196108797
N   N1        1.0  0.34422  0.59270  0.30657  1.0000 -0.2324431756
N   N2        1.0  0.59270  0.34422  0.19343  1.0000 -0.2324431756
N   N3        1.0  0.65578  0.40730  0.69343  1.0000 -0.2324431756
N   N4        1.0  0.40730  0.65578  0.80657  1.0000 -0.2324431756
O   O1        1.0  0.54199  0.74373  0.97381  1.0000 -0.5754825542
O   O2        1.0  0.74373  0.54199  0.52619  1.0000 -0.5754825542
O   O3        1.0  0.45801  0.25627  0.02619  1.0000 -0.5754825542
O   O4        1.0  0.25627  0.45801  0.47381  1.0000 -0.5754825542
O   O5        1.0  0.40128  0.60660  0.07045  1.0000 -0.5509434746
O   O6        1.0  0.60660  0.40128  0.42955  1.0000 -0.5509434746
O   O7        1.0  0.59872  0.39340  0.92955  1.0000 -0.5509434746
O   O8        1.0  0.39340  0.59872  0.57045  1.0000 -0.5509434746
O   O9        1.0  0.38528  0.79230  0.00893  1.0000 -0.6055857608
O   O10       1.0  0.79230  0.38528  0.49107  1.0000 -0.6055857608
O   O11       1.0  0.61472  0.20770  0.99107  1.0000 -0.6055857608
O   O12       1.0  0.20770  0.61472  0.50893  1.0000 -0.6055857608
O   O13       1.0  0.30386  0.67158  0.90685  1.0000 -0.5509434746
O   O14       1.0  0.67158  0.30386  0.59315  1.0000 -0.5509434746
O   O15       1.0  0.69614  0.32842  0.09315  1.0000 -0.5509434746
O   O16       1.0  0.32842  0.69614  0.40685  1.0000 -0.5509434746
O   O17       1.0  0.63704  0.94362  0.09970  1.0000 -0.5304307261
O   O18       1.0  0.94362  0.63704  0.40030  1.0000 -0.5304307261
O   O19       1.0  0.36296  0.05638  0.90030  1.0000 -0.5304307261
O   O20       1.0  0.05638  0.36296  0.59970  1.0000 -0.5304307261
O   O21       1.0  0.66266  0.08930  0.06305  1.0000 -0.5656233499
O   O22       1.0  0.08930  0.66266  0.43695  1.0000 -0.5656233499
O   O23       1.0  0.33734  0.91070  0.93695  1.0000 -0.5656233499
O   O24       1.0  0.91070  0.33734  0.56305  1.0000 -0.5656233499
O   O25       1.0  0.00783  0.32953  0.41982  1.0000 -0.5509434746
O   O26       1.0  0.32953  0.00783  0.08018  1.0000 -0.5509434746
O   O27       1.0  0.99217  0.67047  0.58018  1.0000 -0.5509434746
O   O28       1.0  0.67047  0.99217  0.91982  1.0000 -0.5509434746
O   O29       1.0  0.95357  0.41035  0.40412  1.0000 -0.5509434746
O   O30       1.0  0.41035  0.95357  0.09588  1.0000 -0.5509434746
O   O31       1.0  0.04643  0.58965  0.59588  1.0000 -0.5509434746
O   O32       1.0  0.58965  0.04643  0.90412  1.0000 -0.5509434746
