# DDEC6 charges by PACMAN v1.1 (https://github.com/mtap-research/PACMAN-charge/)
data_2008[Cd][nan]3[ION]2
_chemical_formula_sum              "Cd16 H74 C130 N36 O40"
_cell_length_a       19.374
_cell_length_b       14.8874
_cell_length_c       15.3721
_cell_angle_alpha    90
_cell_angle_beta     111.753
_cell_angle_gamma    90

_symmetry_space_group_name_H-M    "P 1"
_symmetry_Int_Tables_number       1

loop_
  _symmetry_equiv_pos_as_xyz
  'x, y, z'

loop_
  _atom_site_type_symbol
  _atom_site_label
  _atom_site_symmetry_multiplicity
  _atom_site_fract_x
  _atom_site_fract_y
  _atom_site_fract_z
  _atom_site_occupancy
  _atom_site_charge
Cd  Cd1       1.0  0.81809  0.08663  0.17834  1.0000 0.8515404793
Cd  Cd2       1.0  0.81936  0.31636  0.54457  1.0000 0.9054173561
Cd  Cd3       1.0  0.18033  0.18117  0.74532  1.0000 0.8910919683
Cd  Cd4       1.0  0.81554  0.41939  0.11364  1.0000 0.8910919683
Cd  Cd5       1.0  0.18191  0.08663  0.32166  1.0000 0.8515404793
Cd  Cd6       1.0  0.18064  0.31636  0.95543  1.0000 0.9054173561
Cd  Cd7       1.0  0.81967  0.18117  0.75468  1.0000 0.8910919683
Cd  Cd8       1.0  0.18446  0.41939  0.38636  1.0000 0.8910919683
Cd  Cd9       1.0  0.18191  0.91337  0.82166  1.0000 0.8515404793
Cd  Cd10      1.0  0.18064  0.68364  0.45543  1.0000 0.9054173561
Cd  Cd11      1.0  0.81967  0.81883  0.25468  1.0000 0.8910919683
Cd  Cd12      1.0  0.18446  0.58061  0.88636  1.0000 0.8910919683
Cd  Cd13      1.0  0.81809  0.91337  0.67834  1.0000 0.8515404793
Cd  Cd14      1.0  0.81936  0.68364  0.04457  1.0000 0.9054173561
Cd  Cd15      1.0  0.18033  0.81883  0.24532  1.0000 0.8910919683
Cd  Cd16      1.0  0.81554  0.58061  0.61364  1.0000 0.8910919683
H   H1        1.0  0.80320  0.27370  0.31680  1.0000 0.1091978582
H   H2        1.0  0.81120  0.22700  0.97000  1.0000 0.1091978582
H   H3        1.0  0.69470  0.38450  0.62040  1.0000 0.0925413044
H   H4        1.0  0.57050  0.41300  0.58560  1.0000 0.1209176228
H   H5        1.0  0.52630  0.29640  0.33700  1.0000 0.1209176228
H   H6        1.0  0.65430  0.28210  0.37450  1.0000 0.099214742
H   H7        1.0  0.46100  0.35660  0.57160  1.0000 0.1209176228
H   H8        1.0  0.33360  0.37570  0.53680  1.0000 0.0925413044
H   H9        1.0  0.29670  0.41280  0.27030  1.0000 0.1091978582
H   H10       1.0  0.42070  0.39760  0.29450  1.0000 0.1269766497
H   H11       1.0  0.34500  0.22650  0.73290  1.0000 0.099214742
H   H12       1.0  0.47300  0.20510  0.80710  1.0000 0.1209176228
H   H13       1.0  0.42930  0.08300  0.01500  1.0000 0.1209176228
H   H14       1.0  0.30450  0.09900  0.93160  1.0000 0.099214742
H   H15       1.0  0.57980  0.10840  0.86940  1.0000 0.1269766497
H   H16       1.0  0.70250  0.08840  0.95540  1.0000 0.1091978582
H   H17       1.0  0.66520  0.13090  0.18630  1.0000 0.099214742
H   H18       1.0  0.54150  0.14780  0.10490  1.0000 0.1209176228
H   H19       1.0  0.19680  0.27370  0.18320  1.0000 0.1091978582
H   H20       1.0  0.18880  0.22700  0.53000  1.0000 0.1091978582
H   H21       1.0  0.30530  0.38450  0.87960  1.0000 0.0925413044
H   H22       1.0  0.42950  0.41300  0.91440  1.0000 0.1209176228
H   H23       1.0  0.47370  0.29640  0.16300  1.0000 0.1209176228
H   H24       1.0  0.34570  0.28210  0.12550  1.0000 0.099214742
H   H25       1.0  0.53900  0.35660  0.92840  1.0000 0.1209176228
H   H26       1.0  0.66640  0.37570  0.96320  1.0000 0.0925413044
H   H27       1.0  0.70330  0.41280  0.22970  1.0000 0.1091978582
H   H28       1.0  0.57930  0.39760  0.20550  1.0000 0.1269766497
H   H29       1.0  0.65500  0.22650  0.76710  1.0000 0.099214742
H   H30       1.0  0.52700  0.20510  0.69290  1.0000 0.1209176228
H   H31       1.0  0.57070  0.08300  0.48500  1.0000 0.1209176228
H   H32       1.0  0.69550  0.09900  0.56840  1.0000 0.099214742
H   H33       1.0  0.42020  0.10840  0.63060  1.0000 0.1269766497
H   H34       1.0  0.29750  0.08840  0.54460  1.0000 0.1091978582
H   H35       1.0  0.33480  0.13090  0.31370  1.0000 0.099214742
H   H36       1.0  0.45850  0.14780  0.39510  1.0000 0.1209176228
H   H37       1.0  0.19680  0.72630  0.68320  1.0000 0.1091978582
H   H38       1.0  0.18880  0.77300  0.03000  1.0000 0.1091978582
H   H39       1.0  0.30530  0.61550  0.37960  1.0000 0.0925413044
H   H40       1.0  0.42950  0.58700  0.41440  1.0000 0.1209176228
H   H41       1.0  0.47370  0.70360  0.66300  1.0000 0.1209176228
H   H42       1.0  0.34570  0.71790  0.62550  1.0000 0.099214742
H   H43       1.0  0.53900  0.64340  0.42840  1.0000 0.1209176228
H   H44       1.0  0.66640  0.62430  0.46320  1.0000 0.0925413044
H   H45       1.0  0.70330  0.58720  0.72970  1.0000 0.1091978582
H   H46       1.0  0.57930  0.60240  0.70550  1.0000 0.1269766497
H   H47       1.0  0.65500  0.77350  0.26710  1.0000 0.099214742
H   H48       1.0  0.52700  0.79490  0.19290  1.0000 0.1209176228
H   H49       1.0  0.57070  0.91700  0.98500  1.0000 0.1209176228
H   H50       1.0  0.69550  0.90100  0.06840  1.0000 0.099214742
H   H51       1.0  0.42020  0.89160  0.13060  1.0000 0.1269766497
H   H52       1.0  0.29750  0.91160  0.04460  1.0000 0.1091978582
H   H53       1.0  0.33480  0.86910  0.81370  1.0000 0.099214742
H   H54       1.0  0.45850  0.85220  0.89510  1.0000 0.1209176228
H   H55       1.0  0.80320  0.72630  0.81680  1.0000 0.1091978582
H   H56       1.0  0.81120  0.77300  0.47000  1.0000 0.1091978582
H   H57       1.0  0.69470  0.61550  0.12040  1.0000 0.0925413044
H   H58       1.0  0.57050  0.58700  0.08560  1.0000 0.1209176228
H   H59       1.0  0.52630  0.70360  0.83700  1.0000 0.1209176228
H   H60       1.0  0.65430  0.71790  0.87450  1.0000 0.099214742
H   H61       1.0  0.46100  0.64340  0.07160  1.0000 0.1209176228
H   H62       1.0  0.33360  0.62430  0.03680  1.0000 0.0925413044
H   H63       1.0  0.29670  0.58720  0.77030  1.0000 0.1091978582
H   H64       1.0  0.42070  0.60240  0.79450  1.0000 0.1269766497
H   H65       1.0  0.34500  0.77350  0.23290  1.0000 0.099214742
H   H66       1.0  0.47300  0.79490  0.30710  1.0000 0.1209176228
H   H67       1.0  0.42930  0.91700  0.51500  1.0000 0.1209176228
H   H68       1.0  0.30450  0.90100  0.43160  1.0000 0.099214742
H   H69       1.0  0.57980  0.89160  0.36940  1.0000 0.1269766497
H   H70       1.0  0.70250  0.91160  0.45540  1.0000 0.1091978582
H   H71       1.0  0.66520  0.86910  0.68630  1.0000 0.099214742
H   H72       1.0  0.54150  0.85220  0.60490  1.0000 0.1209176228
H   H73       1.0  0.00000  0.00410  0.25000  1.0000 0.1209176228
H   H74       1.0  0.00000  0.99590  0.75000  1.0000 0.1209176228
C   C1        1.0  0.82520  0.09950  0.55600  1.0000 0.5735381576
C   C2        1.0  0.81960  0.12350  0.46190  1.0000 -0.028243729
C   C3        1.0  0.81380  0.07750  0.38140  1.0000 0.0112490507
C   C4        1.0  0.81680  0.98100  0.35790  1.0000 0.5465403082
C   C5        1.0  0.80760  0.21870  0.34990  1.0000 0.1848552259
C   C6        1.0  0.82880  0.39880  0.74750  1.0000 0.5764550897
C   C7        1.0  0.82320  0.37470  0.83720  1.0000 -0.0117742262
C   C8        1.0  0.82050  0.42350  0.91390  1.0000 0.0112490507
C   C9        1.0  0.82240  0.51970  0.93670  1.0000 0.5422899308
C   C10       1.0  0.81390  0.28170  0.93940  1.0000 0.1711567151
C   C11       1.0  0.90490  0.27230  0.19510  1.0000 0.5076035591
C   C12       1.0  0.95940  0.20540  0.22780  1.0000 0.0112490507
C   C13       1.0  0.66060  0.36920  0.55960  1.0000 0.0792512926
C   C14       1.0  0.58640  0.38500  0.54070  1.0000 -0.200559327
C   C15       1.0  0.53690  0.35940  0.45620  1.0000 0.0925413044
C   C16       1.0  0.56050  0.31840  0.39500  1.0000 -0.200559327
C   C17       1.0  0.63710  0.30880  0.41890  1.0000 0.0255743679
C   C18       1.0  0.45530  0.37220  0.43460  1.0000 0.1091978582
C   C19       1.0  0.42820  0.36770  0.50910  1.0000 -0.2226925162
C   C20       1.0  0.35190  0.38030  0.48750  1.0000 0.0925413044
C   C21       1.0  0.33110  0.40220  0.33210  1.0000 0.0421051899
C   C22       1.0  0.40470  0.39160  0.34550  1.0000 -0.200559327
C   C23       1.0  0.36270  0.19570  0.79120  1.0000 0.0792512926
C   C24       1.0  0.43980  0.18450  0.83520  1.0000 -0.2226925162
C   C25       1.0  0.46520  0.14240  0.92120  1.0000 0.099214742
C   C26       1.0  0.41300  0.11210  0.95580  1.0000 -0.190573555
C   C27       1.0  0.33900  0.12290  0.90700  1.0000 0.0512318596
C   C28       1.0  0.54630  0.13140  0.97450  1.0000 0.099214742
C   C29       1.0  0.59640  0.11320  0.93570  1.0000 -0.200559327
C   C30       1.0  0.66960  0.10150  0.98670  1.0000 0.059472117
C   C31       1.0  0.64730  0.12570  0.12000  1.0000 0.0512318596
C   C32       1.0  0.57400  0.13660  0.07250  1.0000 -0.2055443047
C   C33       1.0  0.17480  0.09950  0.94400  1.0000 0.5735381576
C   C34       1.0  0.18040  0.12350  0.03810  1.0000 -0.028243729
C   C35       1.0  0.18620  0.07750  0.11860  1.0000 0.0112490507
C   C36       1.0  0.18320  0.98100  0.14210  1.0000 0.5465403082
C   C37       1.0  0.19240  0.21870  0.15010  1.0000 0.1856142463
C   C38       1.0  0.17120  0.39880  0.75250  1.0000 0.5764550897
C   C39       1.0  0.17680  0.37470  0.66280  1.0000 -0.0117742262
C   C40       1.0  0.17950  0.42350  0.58610  1.0000 0.0112490507
C   C41       1.0  0.17760  0.51970  0.56330  1.0000 0.5422899308
C   C42       1.0  0.18610  0.28170  0.56060  1.0000 0.1711567151
C   C43       1.0  0.09510  0.27230  0.30490  1.0000 0.5076035591
C   C44       1.0  0.04060  0.20540  0.27220  1.0000 0.0112490507
C   C45       1.0  0.33940  0.36920  0.94040  1.0000 0.0792512926
C   C46       1.0  0.41360  0.38500  0.95930  1.0000 -0.200559327
C   C47       1.0  0.46310  0.35940  0.04380  1.0000 0.0925413044
C   C48       1.0  0.43950  0.31840  0.10500  1.0000 -0.200559327
C   C49       1.0  0.36290  0.30880  0.08110  1.0000 0.0255743679
C   C50       1.0  0.54470  0.37220  0.06540  1.0000 0.1091978582
C   C51       1.0  0.57180  0.36770  0.99090  1.0000 -0.2226925162
C   C52       1.0  0.64810  0.38030  0.01250  1.0000 0.0925413044
C   C53       1.0  0.66890  0.40220  0.16790  1.0000 0.0421051899
C   C54       1.0  0.59530  0.39160  0.15450  1.0000 -0.200559327
C   C55       1.0  0.63730  0.19570  0.70880  1.0000 0.0792512926
C   C56       1.0  0.56020  0.18450  0.66480  1.0000 -0.2226925162
C   C57       1.0  0.53480  0.14240  0.57880  1.0000 0.099214742
C   C58       1.0  0.58700  0.11210  0.54420  1.0000 -0.190573555
C   C59       1.0  0.66100  0.12290  0.59300  1.0000 0.0512318596
C   C60       1.0  0.45370  0.13140  0.52550  1.0000 0.099214742
C   C61       1.0  0.40360  0.11320  0.56430  1.0000 -0.200559327
C   C62       1.0  0.33040  0.10150  0.51330  1.0000 0.059472117
C   C63       1.0  0.35270  0.12570  0.38000  1.0000 0.0512318596
C   C64       1.0  0.42600  0.13660  0.42750  1.0000 -0.2055443047
C   C65       1.0  0.17480  0.90050  0.44400  1.0000 0.5735381576
C   C66       1.0  0.18040  0.87650  0.53810  1.0000 -0.028243729
C   C67       1.0  0.18620  0.92250  0.61860  1.0000 0.0112490507
C   C68       1.0  0.18320  0.01900  0.64210  1.0000 0.5465403082
C   C69       1.0  0.19240  0.78130  0.65010  1.0000 0.1856142463
C   C70       1.0  0.17120  0.60120  0.25250  1.0000 0.5764550897
C   C71       1.0  0.17680  0.62530  0.16280  1.0000 -0.0117742262
C   C72       1.0  0.17950  0.57650  0.08610  1.0000 0.0112490507
C   C73       1.0  0.17760  0.48030  0.06330  1.0000 0.5422899308
C   C74       1.0  0.18610  0.71830  0.06060  1.0000 0.1711567151
C   C75       1.0  0.09510  0.72770  0.80490  1.0000 0.5076035591
C   C76       1.0  0.04060  0.79460  0.77220  1.0000 0.0112490507
C   C77       1.0  0.33940  0.63080  0.44040  1.0000 0.0792512926
C   C78       1.0  0.41360  0.61500  0.45930  1.0000 -0.200559327
C   C79       1.0  0.46310  0.64060  0.54380  1.0000 0.0925413044
C   C80       1.0  0.43950  0.68160  0.60500  1.0000 -0.200559327
C   C81       1.0  0.36290  0.69120  0.58110  1.0000 0.0255743679
C   C82       1.0  0.54470  0.62780  0.56540  1.0000 0.1091978582
C   C83       1.0  0.57180  0.63230  0.49090  1.0000 -0.2226925162
C   C84       1.0  0.64810  0.61970  0.51250  1.0000 0.0925413044
C   C85       1.0  0.66890  0.59780  0.66790  1.0000 0.0421051899
C   C86       1.0  0.59530  0.60840  0.65450  1.0000 -0.200559327
C   C87       1.0  0.63730  0.80430  0.20880  1.0000 0.0792512926
C   C88       1.0  0.56020  0.81550  0.16480  1.0000 -0.2226925162
C   C89       1.0  0.53480  0.85760  0.07880  1.0000 0.099214742
C   C90       1.0  0.58700  0.88790  0.04420  1.0000 -0.190573555
C   C91       1.0  0.66100  0.87710  0.09300  1.0000 0.0512318596
C   C92       1.0  0.45370  0.86860  0.02550  1.0000 0.099214742
C   C93       1.0  0.40360  0.88680  0.06430  1.0000 -0.200559327
C   C94       1.0  0.33040  0.89850  0.01330  1.0000 0.059472117
C   C95       1.0  0.35270  0.87430  0.88000  1.0000 0.0512318596
C   C96       1.0  0.42600  0.86340  0.92750  1.0000 -0.2055443047
C   C97       1.0  0.82520  0.90050  0.05600  1.0000 0.5735381576
C   C98       1.0  0.81960  0.87650  0.96190  1.0000 -0.028243729
C   C99       1.0  0.81380  0.92250  0.88140  1.0000 0.0112490507
C   C100      1.0  0.81680  0.01900  0.85790  1.0000 0.5465403082
C   C101      1.0  0.80760  0.78130  0.84990  1.0000 0.1856142463
C   C102      1.0  0.82880  0.60120  0.24750  1.0000 0.5764550897
C   C103      1.0  0.82320  0.62530  0.33720  1.0000 -0.0117742262
C   C104      1.0  0.82050  0.57650  0.41390  1.0000 0.0112490507
C   C105      1.0  0.82240  0.48030  0.43670  1.0000 0.5422899308
C   C106      1.0  0.81390  0.71830  0.43940  1.0000 0.1711567151
C   C107      1.0  0.90490  0.72770  0.69510  1.0000 0.5076035591
C   C108      1.0  0.95940  0.79460  0.72780  1.0000 0.0112490507
C   C109      1.0  0.66060  0.63080  0.05960  1.0000 0.0792512926
C   C110      1.0  0.58640  0.61500  0.04070  1.0000 -0.200559327
C   C111      1.0  0.53690  0.64060  0.95620  1.0000 0.0925413044
C   C112      1.0  0.56050  0.68160  0.89500  1.0000 -0.200559327
C   C113      1.0  0.63710  0.69120  0.91890  1.0000 0.0255743679
C   C114      1.0  0.45530  0.62780  0.93460  1.0000 0.1091978582
C   C115      1.0  0.42820  0.63230  0.00910  1.0000 -0.2226925162
C   C116      1.0  0.35190  0.61970  0.98750  1.0000 0.0925413044
C   C117      1.0  0.33110  0.59780  0.83210  1.0000 0.0421051899
C   C118      1.0  0.40470  0.60840  0.84550  1.0000 -0.200559327
C   C119      1.0  0.36270  0.80430  0.29120  1.0000 0.0792512926
C   C120      1.0  0.43980  0.81550  0.33520  1.0000 -0.2226925162
C   C121      1.0  0.46520  0.85760  0.42120  1.0000 0.099214742
C   C122      1.0  0.41300  0.88790  0.45580  1.0000 -0.190573555
C   C123      1.0  0.33900  0.87710  0.40700  1.0000 0.0512318596
C   C124      1.0  0.54630  0.86860  0.47450  1.0000 0.099214742
C   C125      1.0  0.59640  0.88680  0.43570  1.0000 -0.200559327
C   C126      1.0  0.66960  0.89850  0.48670  1.0000 0.059472117
C   C127      1.0  0.64730  0.87430  0.62000  1.0000 0.0512318596
C   C128      1.0  0.57400  0.86340  0.57250  1.0000 -0.2055443047
C   C129      1.0  0.00000  0.06790  0.25000  1.0000 0.1209176228
C   C130      1.0  0.00000  0.93210  0.75000  1.0000 0.1209176228
N   N1        1.0  0.81470  0.21580  0.43790  1.0000 -0.3486800311
N   N2        1.0  0.80690  0.13940  0.30990  1.0000 -0.368303713
N   N3        1.0  0.81850  0.28510  0.85620  1.0000 -0.3431768534
N   N4        1.0  0.81340  0.36390  0.97730  1.0000 -0.3608149259
N   N5        1.0  0.93640  0.12090  0.21650  1.0000 -0.3006526051
N   N6        1.0  0.68780  0.33540  0.50170  1.0000 -0.2369448697
N   N7        1.0  0.30460  0.39820  0.40290  1.0000 -0.2463043896
N   N8        1.0  0.31350  0.16720  0.82390  1.0000 -0.2369448697
N   N9        1.0  0.69680  0.10800  0.08050  1.0000 -0.2251265911
N   N10       1.0  0.18530  0.21580  0.06210  1.0000 -0.3486800311
N   N11       1.0  0.19310  0.13940  0.19010  1.0000 -0.368303713
N   N12       1.0  0.18150  0.28510  0.64380  1.0000 -0.3431768534
N   N13       1.0  0.18660  0.36390  0.52270  1.0000 -0.3608149259
N   N14       1.0  0.06360  0.12090  0.28350  1.0000 -0.3006526051
N   N15       1.0  0.31220  0.33540  0.99830  1.0000 -0.2369448697
N   N16       1.0  0.69540  0.39820  0.09710  1.0000 -0.2463043896
N   N17       1.0  0.68650  0.16720  0.67610  1.0000 -0.2369448697
N   N18       1.0  0.30320  0.10800  0.41950  1.0000 -0.2251265911
N   N19       1.0  0.18530  0.78420  0.56210  1.0000 -0.3486800311
N   N20       1.0  0.19310  0.86060  0.69010  1.0000 -0.368303713
N   N21       1.0  0.18150  0.71490  0.14380  1.0000 -0.3431768534
N   N22       1.0  0.18660  0.63610  0.02270  1.0000 -0.3608149259
N   N23       1.0  0.06360  0.87910  0.78350  1.0000 -0.3006526051
N   N24       1.0  0.31220  0.66460  0.49830  1.0000 -0.2369448697
N   N25       1.0  0.69540  0.60180  0.59710  1.0000 -0.2463043896
N   N26       1.0  0.68650  0.83280  0.17610  1.0000 -0.2369448697
N   N27       1.0  0.30320  0.89200  0.91950  1.0000 -0.2251265911
N   N28       1.0  0.81470  0.78420  0.93790  1.0000 -0.3486800311
N   N29       1.0  0.80690  0.86060  0.80990  1.0000 -0.368303713
N   N30       1.0  0.81850  0.71490  0.35620  1.0000 -0.3431768534
N   N31       1.0  0.81340  0.63610  0.47730  1.0000 -0.3608149259
N   N32       1.0  0.93640  0.87910  0.71650  1.0000 -0.3006526051
N   N33       1.0  0.68780  0.66460  0.00170  1.0000 -0.2369448697
N   N34       1.0  0.30460  0.60180  0.90290  1.0000 -0.2463043896
N   N35       1.0  0.31350  0.83280  0.32390  1.0000 -0.2369448697
N   N36       1.0  0.69680  0.89200  0.58050  1.0000 -0.2251265911
O   O1        1.0  0.82830  0.01920  0.57780  1.0000 -0.5142371921
O   O2        1.0  0.82810  0.16460  0.61100  1.0000 -0.5777626949
O   O3        1.0  0.81640  0.92040  0.40940  1.0000 -0.4954992699
O   O4        1.0  0.81980  0.96720  0.27760  1.0000 -0.5629236964
O   O5        1.0  0.82890  0.33390  0.69440  1.0000 -0.5777626949
O   O6        1.0  0.83480  0.48000  0.72880  1.0000 -0.5185784666
O   O7        1.0  0.82590  0.57990  0.88660  1.0000 -0.4813414259
O   O8        1.0  0.82250  0.53620  0.01870  1.0000 -0.5777626949
O   O9        1.0  0.83890  0.25140  0.15740  1.0000 -0.5522363899
O   O10       1.0  0.92280  0.35650  0.20190  1.0000 -0.4672460226
O   O11       1.0  0.17170  0.01920  0.92220  1.0000 -0.5142371921
O   O12       1.0  0.17190  0.16460  0.88900  1.0000 -0.5777626949
O   O13       1.0  0.18360  0.92040  0.09060  1.0000 -0.4954992699
O   O14       1.0  0.18020  0.96720  0.22240  1.0000 -0.5629236964
O   O15       1.0  0.17110  0.33390  0.80560  1.0000 -0.5777626949
O   O16       1.0  0.16520  0.48000  0.77120  1.0000 -0.5185784666
O   O17       1.0  0.17410  0.57990  0.61340  1.0000 -0.4813414259
O   O18       1.0  0.17750  0.53620  0.48130  1.0000 -0.5777626949
O   O19       1.0  0.16110  0.25140  0.34260  1.0000 -0.5522363899
O   O20       1.0  0.07720  0.35650  0.29810  1.0000 -0.4672460226
O   O21       1.0  0.17170  0.98080  0.42220  1.0000 -0.5142371921
O   O22       1.0  0.17190  0.83540  0.38900  1.0000 -0.5777626949
O   O23       1.0  0.18360  0.07960  0.59060  1.0000 -0.4954992699
O   O24       1.0  0.18020  0.03280  0.72240  1.0000 -0.5629236964
O   O25       1.0  0.17110  0.66610  0.30560  1.0000 -0.5777626949
O   O26       1.0  0.16520  0.52000  0.27120  1.0000 -0.5185784666
O   O27       1.0  0.17410  0.42010  0.11340  1.0000 -0.4813414259
O   O28       1.0  0.17750  0.46380  0.98130  1.0000 -0.5777626949
O   O29       1.0  0.16110  0.74860  0.84260  1.0000 -0.5522363899
O   O30       1.0  0.07720  0.64350  0.79810  1.0000 -0.4672460226
O   O31       1.0  0.82830  0.98080  0.07780  1.0000 -0.5142371921
O   O32       1.0  0.82810  0.83540  0.11100  1.0000 -0.5777626949
O   O33       1.0  0.81640  0.07960  0.90940  1.0000 -0.4946081606
O   O34       1.0  0.81980  0.03280  0.77760  1.0000 -0.5629236964
O   O35       1.0  0.82890  0.66610  0.19440  1.0000 -0.5777626949
O   O36       1.0  0.83480  0.52000  0.22880  1.0000 -0.5185784666
O   O37       1.0  0.82590  0.42010  0.38660  1.0000 -0.4813414259
O   O38       1.0  0.82250  0.46380  0.51870  1.0000 -0.5777626949
O   O39       1.0  0.83890  0.74860  0.65740  1.0000 -0.5522363899
O   O40       1.0  0.92280  0.64350  0.70190  1.0000 -0.4672460226
