# DDEC6 charges by PACMAN v1.1 (https://github.com/mtap-research/PACMAN-charge/)
data_2008[UZn][nan]3[ION]1
_chemical_formula_sum              "U6 Zn2 P8 H20 C20 N4 O44"
_cell_length_a       10.98
_cell_length_b       13.029
_cell_length_c       13.599
_cell_angle_alpha    62.312
_cell_angle_beta     70.921
_cell_angle_gamma    72.954

_symmetry_space_group_name_H-M    "P 1"
_symmetry_Int_Tables_number       1

loop_
  _symmetry_equiv_pos_as_xyz
  'x, y, z'

loop_
  _atom_site_type_symbol
  _atom_site_label
  _atom_site_symmetry_multiplicity
  _atom_site_fract_x
  _atom_site_fract_y
  _atom_site_fract_z
  _atom_site_occupancy
  _atom_site_charge
U   U1        1.0  0.57353  0.37904  0.14296  1.0000 2.572080652
U   U2        1.0  0.42647  0.62096  0.85704  1.0000 2.572080652
U   U3        1.0  0.67639  0.89669  0.47709  1.0000 2.5910342138
U   U4        1.0  0.32361  0.10331  0.52291  1.0000 2.5910342138
U   U5        1.0  0.67482  0.37505  0.51718  1.0000 2.6003535192
U   U6        1.0  0.32518  0.62495  0.48282  1.0000 2.6003535192
Zn  Zn1       1.0  0.88754  0.47444  0.64676  1.0000 1.0830927293
Zn  Zn2       1.0  0.11246  0.52556  0.35324  1.0000 1.0830927293
P   P1        1.0  0.71260  0.37370  0.90260  1.0000 1.5757986705
P   P2        1.0  0.28740  0.62630  0.09740  1.0000 1.5757986705
P   P3        1.0  0.67540  0.16060  0.40570  1.0000 1.6518178384
P   P4        1.0  0.32460  0.83940  0.59430  1.0000 1.6518178384
P   P5        1.0  0.61950  0.59540  0.58010  1.0000 1.6264137428
P   P6        1.0  0.38050  0.40460  0.41990  1.0000 1.6264137428
P   P7        1.0  0.98770  0.70190  0.46570  1.0000 1.6105909745
P   P8        1.0  0.01230  0.29810  0.53430  1.0000 1.6105909745
H   H1        1.0  0.23170  0.24980  0.67310  1.0000 0.3191550325
H   H2        1.0  0.02590  0.36810  0.29090  1.0000 0.3191550325
H   H3        1.0  0.04880  0.19050  0.79920  1.0000 0.15133158
H   H4        1.0  0.99340  0.21300  0.97060  1.0000 0.1667882342
H   H5        1.0  0.33720  0.33080  0.87620  1.0000 0.1667882342
H   H6        1.0  0.37970  0.31390  0.70010  1.0000 0.15133158
H   H7        1.0  0.86670  0.37150  0.22150  1.0000 0.15133158
H   H8        1.0  0.92370  0.34090  0.05430  1.0000 0.1667882342
H   H9        1.0  0.30450  0.28040  0.06030  1.0000 0.1667882342
H   H10       1.0  0.24180  0.32180  0.22140  1.0000 0.1627182763
H   H11       1.0  0.76830  0.75020  0.32690  1.0000 0.3191550325
H   H12       1.0  0.97410  0.63190  0.70910  1.0000 0.3191550325
H   H13       1.0  0.95120  0.80950  0.20080  1.0000 0.15133158
H   H14       1.0  0.00660  0.78700  0.02940  1.0000 0.1667882342
H   H15       1.0  0.66280  0.66920  0.12380  1.0000 0.1667882342
H   H16       1.0  0.62030  0.68610  0.29990  1.0000 0.15133158
H   H17       1.0  0.13330  0.62850  0.77850  1.0000 0.15133158
H   H18       1.0  0.07630  0.65910  0.94570  1.0000 0.1667882342
H   H19       1.0  0.69550  0.71960  0.93970  1.0000 0.1667882342
H   H20       1.0  0.75820  0.67820  0.77860  1.0000 0.1627182763
C   C1        1.0  0.10440  0.22220  0.81480  1.0000 0.1125098642
C   C2        1.0  0.07190  0.23520  0.91630  1.0000 -0.1599197064
C   C3        1.0  0.15680  0.28210  0.93860  1.0000 0.1314957838
C   C4        1.0  0.27500  0.30640  0.86030  1.0000 -0.1431228828
C   C5        1.0  0.30150  0.29420  0.75610  1.0000 0.15133158
C   C6        1.0  0.95610  0.35530  0.18640  1.0000 0.1235262405
C   C7        1.0  0.98970  0.33500  0.08850  1.0000 -0.1599197064
C   C8        1.0  0.12020  0.30600  0.04110  1.0000 0.1235262405
C   C9        1.0  0.21460  0.30060  0.09150  1.0000 -0.1431228828
C   C10       1.0  0.17770  0.32450  0.18690  1.0000 0.1411948453
C   C11       1.0  0.89560  0.77780  0.18520  1.0000 0.1125098642
C   C12       1.0  0.92810  0.76480  0.08370  1.0000 -0.1599197064
C   C13       1.0  0.84320  0.71790  0.06140  1.0000 0.1314957838
C   C14       1.0  0.72500  0.69360  0.13970  1.0000 -0.1431228828
C   C15       1.0  0.69850  0.70580  0.24390  1.0000 0.15133158
C   C16       1.0  0.04390  0.64470  0.81360  1.0000 0.1235262405
C   C17       1.0  0.01030  0.66500  0.91150  1.0000 -0.1599197064
C   C18       1.0  0.87980  0.69400  0.95890  1.0000 0.1235262405
C   C19       1.0  0.78540  0.69940  0.90850  1.0000 -0.1431228828
C   C20       1.0  0.82230  0.67550  0.81310  1.0000 0.1411948453
N   N1        1.0  0.21530  0.25480  0.73860  1.0000 -0.0761356589
N   N2        1.0  0.04890  0.35190  0.23060  1.0000 -0.09218149
N   N3        1.0  0.78470  0.74520  0.26140  1.0000 -0.0761356589
N   N4        1.0  0.95110  0.64810  0.76940  1.0000 -0.09218149
O   O1        1.0  0.66410  0.29360  0.86920  1.0000 -0.7076091964
O   O2        1.0  0.33590  0.70640  0.13080  1.0000 -0.7076091964
O   O3        1.0  0.82590  0.42570  0.81090  1.0000 -0.7752580244
O   O4        1.0  0.17410  0.57430  0.18910  1.0000 -0.7752580244
O   O5        1.0  0.59700  0.46380  0.92870  1.0000 -0.9139922459
O   O6        1.0  0.40300  0.53620  0.07130  1.0000 -0.9139922459
O   O7        1.0  0.74590  0.29480  0.01970  1.0000 -0.8306627114
O   O8        1.0  0.25410  0.70520  0.98030  1.0000 -0.8306627114
O   O9        1.0  0.55430  0.09770  0.45990  1.0000 -0.9413970311
O   O10       1.0  0.44570  0.90230  0.54010  1.0000 -0.9413970311
O   O11       1.0  0.78910  0.05640  0.41730  1.0000 -0.7902257342
O   O12       1.0  0.21090  0.94360  0.58270  1.0000 -0.7902257342
O   O13       1.0  0.68140  0.23840  0.28120  1.0000 -0.8306627114
O   O14       1.0  0.31860  0.76160  0.71880  1.0000 -0.8306627114
O   O15       1.0  0.67310  0.22620  0.47270  1.0000 -0.8306627114
O   O16       1.0  0.32690  0.77380  0.52730  1.0000 -0.8306627114
O   O17       1.0  0.73910  0.49290  0.58490  1.0000 -0.8500130175
O   O18       1.0  0.26090  0.50710  0.41510  1.0000 -0.8500130175
O   O19       1.0  0.53490  0.56600  0.52950  1.0000 -0.9139922459
O   O20       1.0  0.46510  0.43400  0.47050  1.0000 -0.9139922459
O   O21       1.0  0.66200  0.71380  0.49660  1.0000 -0.8427603045
O   O22       1.0  0.33800  0.28620  0.50340  1.0000 -0.8427603045
O   O23       1.0  0.55740  0.59310  0.69720  1.0000 -0.8306627114
O   O24       1.0  0.44260  0.40690  0.30280  1.0000 -0.8306627114
O   O25       1.0  0.94540  0.62260  0.59380  1.0000 -0.7902257342
O   O26       1.0  0.05460  0.37740  0.40620  1.0000 -0.7902257342
O   O27       1.0  0.12620  0.72480  0.44320  1.0000 -0.8500130175
O   O28       1.0  0.87380  0.27520  0.55680  1.0000 -0.8427603045
O   O29       1.0  0.98290  0.64240  0.39370  1.0000 -0.8159943421
O   O30       1.0  0.01710  0.35760  0.60630  1.0000 -0.8159943421
O   O31       1.0  0.89340  0.81890  0.43710  1.0000 -0.8306627114
O   O32       1.0  0.10660  0.18110  0.56290  1.0000 -0.8306627114
O   O33       1.0  0.67280  0.47700  0.11720  1.0000 -0.6597432295
O   O34       1.0  0.32720  0.52300  0.88280  1.0000 -0.6597432295
O   O35       1.0  0.48000  0.28130  0.16030  1.0000 -0.6202474136
O   O36       1.0  0.52000  0.71870  0.83970  1.0000 -0.6202474136
O   O37       1.0  0.66960  0.94310  0.33260  1.0000 -0.6597432295
O   O38       1.0  0.33040  0.05690  0.66740  1.0000 -0.6597432295
O   O39       1.0  0.68340  0.84930  0.62050  1.0000 -0.6597432295
O   O40       1.0  0.31660  0.15070  0.37950  1.0000 -0.6597432295
O   O41       1.0  0.75220  0.45450  0.37440  1.0000 -0.6816479761
O   O42       1.0  0.24780  0.54550  0.62560  1.0000 -0.6816479761
O   O43       1.0  0.59980  0.29710  0.66290  1.0000 -0.6202474136
O   O44       1.0  0.40020  0.70290  0.33710  1.0000 -0.6202474136
