# DDEC6 charges by PACMAN v1.1 (https://github.com/mtap-research/PACMAN-charge/)
data_2008[Ni][nan]3[ION]1
_chemical_formula_sum              "Ni12 H112 C136 N8 O76"
_cell_length_a       17.8669
_cell_length_b       14.1157
_cell_length_c       26.4062
_cell_angle_alpha    90
_cell_angle_beta     131.311
_cell_angle_gamma    90

_symmetry_space_group_name_H-M    "P 1"
_symmetry_Int_Tables_number       1

loop_
  _symmetry_equiv_pos_as_xyz
  'x, y, z'

loop_
  _atom_site_type_symbol
  _atom_site_label
  _atom_site_symmetry_multiplicity
  _atom_site_fract_x
  _atom_site_fract_y
  _atom_site_fract_z
  _atom_site_occupancy
  _atom_site_charge
Ni  Ni1       1.0  0.81899  0.05190  0.57093  1.0000 1.0254826656
Ni  Ni2       1.0  0.18101  0.55190  0.92907  1.0000 1.0247457137
Ni  Ni3       1.0  0.18101  0.94810  0.42907  1.0000 1.0247457137
Ni  Ni4       1.0  0.81899  0.44810  0.07093  1.0000 1.0254826656
Ni  Ni5       1.0  0.78665  0.81597  0.58408  1.0000 0.9885012915
Ni  Ni6       1.0  0.21335  0.31597  0.91592  1.0000 0.9885012915
Ni  Ni7       1.0  0.21335  0.18403  0.41592  1.0000 0.9885012915
Ni  Ni8       1.0  0.78665  0.68403  0.08408  1.0000 0.9885012915
Ni  Ni9       1.0  0.25375  0.79408  0.55638  1.0000 0.9537970831
Ni  Ni10      1.0  0.74625  0.29408  0.94362  1.0000 0.9537970831
Ni  Ni11      1.0  0.74625  0.20592  0.44362  1.0000 0.9537970831
Ni  Ni12      1.0  0.25375  0.70592  0.05638  1.0000 0.9537970831
H   H1        1.0  0.74560  0.98990  0.42750  1.0000 0.1335103534
H   H2        1.0  0.25440  0.48990  0.07250  1.0000 0.1335103534
H   H3        1.0  0.25440  0.01010  0.57250  1.0000 0.1335103534
H   H4        1.0  0.74560  0.51010  0.92750  1.0000 0.1335103534
H   H5        1.0  0.91480  0.00170  0.37640  1.0000 0.1335103534
H   H6        1.0  0.08520  0.50170  0.12360  1.0000 0.1335103534
H   H7        1.0  0.08520  0.99830  0.62360  1.0000 0.1335103534
H   H8        1.0  0.91480  0.49830  0.87640  1.0000 0.1335103534
H   H9        1.0  0.97830  0.80800  0.51490  1.0000 0.1335103534
H   H10       1.0  0.02170  0.30800  0.98510  1.0000 0.1335103534
H   H11       1.0  0.02170  0.19200  0.48510  1.0000 0.1335103534
H   H12       1.0  0.97830  0.69200  0.01490  1.0000 0.1335103534
H   H13       1.0  0.43730  0.13710  0.39940  1.0000 0.150913023
H   H14       1.0  0.56270  0.63710  0.10060  1.0000 0.150913023
H   H15       1.0  0.56270  0.86290  0.60060  1.0000 0.150913023
H   H16       1.0  0.43730  0.36290  0.89940  1.0000 0.150913023
H   H17       1.0  0.39530  0.86490  0.42720  1.0000 0.1335103534
H   H18       1.0  0.60470  0.36490  0.07280  1.0000 0.1335103534
H   H19       1.0  0.60470  0.13510  0.57280  1.0000 0.1335103534
H   H20       1.0  0.39530  0.63510  0.92720  1.0000 0.1335103534
H   H21       1.0  0.63100  0.92900  0.44370  1.0000 0.1400550582
H   H22       1.0  0.36900  0.42900  0.05630  1.0000 0.1400550582
H   H23       1.0  0.36900  0.07100  0.55630  1.0000 0.1400550582
H   H24       1.0  0.63100  0.57100  0.94370  1.0000 0.1335103534
H   H25       1.0  0.25580  0.93970  0.95880  1.0000 0.1400550582
H   H26       1.0  0.74420  0.43970  0.54120  1.0000 0.1400550582
H   H27       1.0  0.74420  0.06030  0.04120  1.0000 0.1400550582
H   H28       1.0  0.25580  0.56030  0.45880  1.0000 0.1400550582
H   H29       1.0  0.07530  0.07450  0.77930  1.0000 0.1400550582
H   H30       1.0  0.92470  0.57450  0.72070  1.0000 0.1400550582
H   H31       1.0  0.92470  0.92550  0.22070  1.0000 0.1400550582
H   H32       1.0  0.07530  0.42550  0.27930  1.0000 0.1400550582
H   H33       1.0  0.04400  0.79380  0.78920  1.0000 0.1400550582
H   H34       1.0  0.95600  0.29380  0.71080  1.0000 0.1400550582
H   H35       1.0  0.95600  0.20620  0.21080  1.0000 0.1400550582
H   H36       1.0  0.04400  0.70620  0.28920  1.0000 0.1400550582
H   H37       1.0  0.13490  0.39920  0.49880  1.0000 0.1679499025
H   H38       1.0  0.86510  0.89920  0.00120  1.0000 0.1679499025
H   H39       1.0  0.86510  0.60080  0.50120  1.0000 0.1679499025
H   H40       1.0  0.13490  0.10080  0.99880  1.0000 0.1679499025
H   H41       1.0  0.07090  0.43350  0.51800  1.0000 0.1335103534
H   H42       1.0  0.92910  0.93350  0.98200  1.0000 0.1335103534
H   H43       1.0  0.92910  0.56650  0.48200  1.0000 0.1335103534
H   H44       1.0  0.07090  0.06650  0.01800  1.0000 0.1335103534
H   H45       1.0  0.06240  0.48950  0.46130  1.0000 0.1335103534
H   H46       1.0  0.93760  0.98950  0.03870  1.0000 0.1335103534
H   H47       1.0  0.93760  0.51050  0.53870  1.0000 0.1335103534
H   H48       1.0  0.06240  0.01050  0.96130  1.0000 0.1335103534
H   H49       1.0  0.26340  0.40930  0.62370  1.0000 0.1400550582
H   H50       1.0  0.73660  0.90930  0.87630  1.0000 0.1400550582
H   H51       1.0  0.73660  0.59070  0.37630  1.0000 0.1400550582
H   H52       1.0  0.26340  0.09070  0.12370  1.0000 0.1400550582
H   H53       1.0  0.31090  0.50970  0.65490  1.0000 0.1400550582
H   H54       1.0  0.68910  0.00970  0.84510  1.0000 0.1400550582
H   H55       1.0  0.68910  0.49030  0.34510  1.0000 0.1400550582
H   H56       1.0  0.31090  0.99030  0.15490  1.0000 0.1400550582
H   H57       1.0  0.32680  0.45850  0.60960  1.0000 0.1620859675
H   H58       1.0  0.67320  0.95850  0.89040  1.0000 0.1620859675
H   H59       1.0  0.67320  0.54150  0.39040  1.0000 0.1620859675
H   H60       1.0  0.32680  0.04150  0.10960  1.0000 0.1620859675
H   H61       1.0  0.12930  0.63470  0.50930  1.0000 0.119559571
H   H62       1.0  0.87070  0.13470  0.99070  1.0000 0.119559571
H   H63       1.0  0.87070  0.36530  0.49070  1.0000 0.119559571
H   H64       1.0  0.12930  0.86530  0.00930  1.0000 0.119559571
H   H65       1.0  0.96410  0.26680  0.31060  1.0000 0.150913023
H   H66       1.0  0.91400  0.22030  0.33640  1.0000 0.1620859675
H   H67       1.0  0.97000  0.31870  0.36620  1.0000 0.150913023
H   H68       1.0  0.72250  0.38980  0.26310  1.0000 0.150913023
H   H69       1.0  0.78760  0.31870  0.32440  1.0000 0.1679499025
H   H70       1.0  0.82890  0.42070  0.33040  1.0000 0.1335103534
H   H71       1.0  0.79740  0.44570  0.21850  1.0000 0.150913023
H   H72       1.0  0.87040  0.38040  0.21970  1.0000 0.1620859675
H   H73       1.0  0.91210  0.44260  0.28330  1.0000 0.1400550582
H   H74       1.0  0.70350  0.28920  0.18210  1.0000 0.1400550582
H   H75       1.0  0.79540  0.23410  0.20050  1.0000 0.1400550582
H   H76       1.0  0.75320  0.20630  0.23530  1.0000 0.1620859675
H   H77       1.0  0.03590  0.76680  0.18940  1.0000 0.150913023
H   H78       1.0  0.08600  0.72030  0.16360  1.0000 0.1620859675
H   H79       1.0  0.03000  0.81870  0.13380  1.0000 0.150913023
H   H80       1.0  0.27750  0.88980  0.23690  1.0000 0.150913023
H   H81       1.0  0.21240  0.81870  0.17560  1.0000 0.1679499025
H   H82       1.0  0.17110  0.92070  0.16960  1.0000 0.1335103534
H   H83       1.0  0.20260  0.94570  0.28150  1.0000 0.150913023
H   H84       1.0  0.12960  0.88040  0.28030  1.0000 0.1620859675
H   H85       1.0  0.08790  0.94260  0.21670  1.0000 0.1400550582
H   H86       1.0  0.29650  0.78920  0.31790  1.0000 0.1400550582
H   H87       1.0  0.20460  0.73410  0.29950  1.0000 0.1400550582
H   H88       1.0  0.24680  0.70630  0.26470  1.0000 0.1620859675
H   H89       1.0  0.03590  0.73320  0.68940  1.0000 0.150913023
H   H90       1.0  0.08600  0.77970  0.66360  1.0000 0.1620859675
H   H91       1.0  0.03000  0.68130  0.63380  1.0000 0.150913023
H   H92       1.0  0.27750  0.61020  0.73690  1.0000 0.150913023
H   H93       1.0  0.21240  0.68130  0.67560  1.0000 0.1679499025
H   H94       1.0  0.17110  0.57930  0.66960  1.0000 0.1335103534
H   H95       1.0  0.20260  0.55430  0.78150  1.0000 0.150913023
H   H96       1.0  0.12960  0.61960  0.78030  1.0000 0.1620859675
H   H97       1.0  0.08790  0.55740  0.71670  1.0000 0.1400550582
H   H98       1.0  0.29650  0.71080  0.81790  1.0000 0.1400550582
H   H99       1.0  0.20460  0.76590  0.79950  1.0000 0.1400550582
H   H100      1.0  0.24680  0.79370  0.76470  1.0000 0.1620859675
H   H101      1.0  0.96410  0.23320  0.81060  1.0000 0.150913023
H   H102      1.0  0.91400  0.27970  0.83640  1.0000 0.1620859675
H   H103      1.0  0.97000  0.18130  0.86620  1.0000 0.150913023
H   H104      1.0  0.72250  0.11020  0.76310  1.0000 0.150913023
H   H105      1.0  0.78760  0.18130  0.82440  1.0000 0.1620859675
H   H106      1.0  0.82890  0.07930  0.83040  1.0000 0.1335103534
H   H107      1.0  0.79740  0.05430  0.71850  1.0000 0.150913023
H   H108      1.0  0.87040  0.11960  0.71970  1.0000 0.1620859675
H   H109      1.0  0.91210  0.05740  0.78330  1.0000 0.1400550582
H   H110      1.0  0.70350  0.21080  0.68210  1.0000 0.1400550582
H   H111      1.0  0.79540  0.26590  0.70050  1.0000 0.1400550582
H   H112      1.0  0.75320  0.29370  0.73530  1.0000 0.1620859675
C   C1        1.0  0.95550  0.93330  0.69740  1.0000 0.5690970419
C   C2        1.0  0.04450  0.43330  0.80260  1.0000 0.5690970419
C   C3        1.0  0.04450  0.06670  0.30260  1.0000 0.5690970419
C   C4        1.0  0.95550  0.56670  0.19740  1.0000 0.5690970419
C   C5        1.0  0.83780  0.85750  0.51940  1.0000 0.5792520454
C   C6        1.0  0.16220  0.35750  0.98060  1.0000 0.5792520454
C   C7        1.0  0.16220  0.14250  0.48060  1.0000 0.5792520454
C   C8        1.0  0.83780  0.64250  0.01940  1.0000 0.5792520454
C   C9        1.0  0.85870  0.89160  0.47670  1.0000 -0.0120614244
C   C10       1.0  0.14130  0.39160  0.02330  1.0000 -0.0120614244
C   C11       1.0  0.14130  0.10840  0.52330  1.0000 -0.0120614244
C   C12       1.0  0.85870  0.60840  0.97670  1.0000 -0.0120614244
C   C13       1.0  0.79910  0.96670  0.43150  1.0000 -0.1013615495
C   C14       1.0  0.20090  0.46670  0.06850  1.0000 -0.1013615495
C   C15       1.0  0.20090  0.03330  0.56850  1.0000 -0.1013615495
C   C16       1.0  0.79910  0.53330  0.93150  1.0000 -0.1013615495
C   C17       1.0  0.81810  0.00780  0.39330  1.0000 -0.0120614244
C   C18       1.0  0.18190  0.50780  0.10670  1.0000 -0.0120614244
C   C19       1.0  0.18190  0.99220  0.60670  1.0000 -0.0120614244
C   C20       1.0  0.81810  0.49220  0.89330  1.0000 -0.0120614244
C   C21       1.0  0.89930  0.97410  0.40160  1.0000 -0.1013615495
C   C22       1.0  0.10070  0.47410  0.09840  1.0000 -0.1013615495
C   C23       1.0  0.10070  0.02590  0.59840  1.0000 -0.1013615495
C   C24       1.0  0.89930  0.52590  0.90160  1.0000 -0.1013615495
C   C25       1.0  0.95850  0.90100  0.44660  1.0000 -0.0120614244
C   C26       1.0  0.04150  0.40100  0.05340  1.0000 -0.0120614244
C   C27       1.0  0.04150  0.09900  0.55340  1.0000 -0.0120614244
C   C28       1.0  0.95850  0.59900  0.94660  1.0000 -0.0120614244
C   C29       1.0  0.93800  0.85900  0.48410  1.0000 -0.1074724528
C   C30       1.0  0.06200  0.35900  0.01590  1.0000 -0.1074724528
C   C31       1.0  0.06200  0.14100  0.51590  1.0000 -0.1074724528
C   C32       1.0  0.93800  0.64100  0.98410  1.0000 -0.1074724528
C   C33       1.0  0.05550  0.87720  0.46200  1.0000 0.58682226
C   C34       1.0  0.94450  0.37720  0.03800  1.0000 0.58682226
C   C35       1.0  0.94450  0.12280  0.53800  1.0000 0.58682226
C   C36       1.0  0.05550  0.62280  0.96200  1.0000 0.58682226
C   C37       1.0  0.61360  0.11420  0.42950  1.0000 0.5792520454
C   C38       1.0  0.38640  0.61420  0.07050  1.0000 0.5792520454
C   C39       1.0  0.38640  0.88580  0.57050  1.0000 0.5792520454
C   C40       1.0  0.61360  0.38580  0.92950  1.0000 0.5792520454
C   C41       1.0  0.54560  0.04400  0.42400  1.0000 0.0100846287
C   C42       1.0  0.45440  0.54400  0.07600  1.0000 0.0100846287
C   C43       1.0  0.45440  0.95600  0.57600  1.0000 0.0100846287
C   C44       1.0  0.54560  0.45600  0.92400  1.0000 0.0100846287
C   C45       1.0  0.45860  0.07350  0.41030  1.0000 -0.1207520926
C   C46       1.0  0.54140  0.57350  0.08970  1.0000 -0.1207520926
C   C47       1.0  0.54140  0.92650  0.58970  1.0000 -0.1207520926
C   C48       1.0  0.45860  0.42650  0.91030  1.0000 -0.1207520926
C   C49       1.0  0.40360  0.00610  0.41310  1.0000 -0.0120614244
C   C50       1.0  0.59640  0.50610  0.08690  1.0000 -0.0120614244
C   C51       1.0  0.59640  0.99390  0.58690  1.0000 -0.0120614244
C   C52       1.0  0.40360  0.49390  0.91310  1.0000 -0.0120614244
C   C53       1.0  0.43330  0.91070  0.42610  1.0000 -0.1207520926
C   C54       1.0  0.56670  0.41070  0.07390  1.0000 -0.1207520926
C   C55       1.0  0.56670  0.08930  0.57390  1.0000 -0.1207520926
C   C56       1.0  0.43330  0.58930  0.92610  1.0000 -0.1207520926
C   C57       1.0  0.51640  0.88240  0.43650  1.0000 -0.0162342609
C   C58       1.0  0.48360  0.38240  0.06350  1.0000 -0.0162342609
C   C59       1.0  0.48360  0.11760  0.56350  1.0000 -0.0162342609
C   C60       1.0  0.51640  0.61760  0.93650  1.0000 -0.0162342609
C   C61       1.0  0.57360  0.94920  0.43600  1.0000 -0.1013615495
C   C62       1.0  0.42640  0.44920  0.06400  1.0000 -0.1013615495
C   C63       1.0  0.42640  0.05080  0.56400  1.0000 -0.1013615495
C   C64       1.0  0.57360  0.55080  0.93600  1.0000 -0.1013615495
C   C65       1.0  0.54950  0.78020  0.45440  1.0000 0.5637746563
C   C66       1.0  0.45050  0.28020  0.04560  1.0000 0.5637746563
C   C67       1.0  0.45050  0.21980  0.54560  1.0000 0.5637746563
C   C68       1.0  0.54950  0.71980  0.95440  1.0000 0.5637746563
C   C69       1.0  0.31960  0.03520  0.41070  1.0000 0.5690970419
C   C70       1.0  0.68040  0.53520  0.08930  1.0000 0.5690970419
C   C71       1.0  0.68040  0.96480  0.58930  1.0000 0.5690970419
C   C72       1.0  0.31960  0.46480  0.91070  1.0000 0.5690970419
C   C73       1.0  0.18660  0.76360  0.92150  1.0000 0.58682226
C   C74       1.0  0.81340  0.26360  0.57850  1.0000 0.58682226
C   C75       1.0  0.81340  0.23640  0.07850  1.0000 0.58682226
C   C76       1.0  0.18660  0.73640  0.42150  1.0000 0.58682226
C   C77       1.0  0.15520  0.85260  0.87840  1.0000 -0.0162342609
C   C78       1.0  0.84480  0.35260  0.62160  1.0000 -0.0162342609
C   C79       1.0  0.84480  0.14740  0.12160  1.0000 -0.0162342609
C   C80       1.0  0.15520  0.64740  0.37840  1.0000 -0.0162342609
C   C81       1.0  0.20410  0.93770  0.91130  1.0000 -0.1013615495
C   C82       1.0  0.79590  0.43770  0.58870  1.0000 -0.1013615495
C   C83       1.0  0.79590  0.06230  0.08870  1.0000 -0.1013615495
C   C84       1.0  0.20410  0.56230  0.41130  1.0000 -0.1013615495
C   C85       1.0  0.17330  0.01960  0.87330  1.0000 -0.0042882042
C   C86       1.0  0.82670  0.51960  0.62670  1.0000 -0.0042882042
C   C87       1.0  0.82670  0.98040  0.12670  1.0000 -0.0042882042
C   C88       1.0  0.17330  0.48040  0.37330  1.0000 -0.0042882042
C   C89       1.0  0.09550  0.01830  0.80480  1.0000 -0.1074724528
C   C90       1.0  0.90450  0.51830  0.69520  1.0000 -0.1074724528
C   C91       1.0  0.90450  0.98170  0.19520  1.0000 -0.1074724528
C   C92       1.0  0.09550  0.48170  0.30480  1.0000 -0.1074724528
C   C93       1.0  0.04650  0.93360  0.77270  1.0000 -0.0162342609
C   C94       1.0  0.95350  0.43360  0.72730  1.0000 -0.0162342609
C   C95       1.0  0.95350  0.06640  0.22730  1.0000 -0.0162342609
C   C96       1.0  0.04650  0.56640  0.27270  1.0000 -0.0162342609
C   C97       1.0  0.07810  0.85100  0.81090  1.0000 -0.1074724528
C   C98       1.0  0.92190  0.35100  0.68910  1.0000 -0.1074724528
C   C99       1.0  0.92190  0.14900  0.18910  1.0000 -0.1013615495
C   C100      1.0  0.07810  0.64900  0.31090  1.0000 -0.1074724528
C   C101      1.0  0.22590  0.11110  0.91030  1.0000 0.5690970419
C   C102      1.0  0.77410  0.61110  0.58970  1.0000 0.5690970419
C   C103      1.0  0.77410  0.88890  0.08970  1.0000 0.5690970419
C   C104      1.0  0.22590  0.38890  0.41030  1.0000 0.5690970419
C   C105      1.0  0.75640  0.09090  0.34790  1.0000 0.5690970419
C   C106      1.0  0.24360  0.59090  0.15210  1.0000 0.5690970419
C   C107      1.0  0.24360  0.90910  0.65210  1.0000 0.5690970419
C   C108      1.0  0.75640  0.40910  0.84790  1.0000 0.5690970419
C   C109      1.0  0.18740  0.60860  0.55030  1.0000 0.3078920355
C   C110      1.0  0.81260  0.10860  0.94970  1.0000 0.3078920355
C   C111      1.0  0.81260  0.39140  0.44970  1.0000 0.3078920355
C   C112      1.0  0.18740  0.89140  0.05030  1.0000 0.3078920355
C   C113      1.0  0.10870  0.45540  0.50470  1.0000 -0.3495807582
C   C114      1.0  0.89130  0.95540  0.99530  1.0000 -0.3495807582
C   C115      1.0  0.89130  0.54460  0.49530  1.0000 -0.3495807582
C   C116      1.0  0.10870  0.04460  0.00470  1.0000 -0.3495807582
C   C117      1.0  0.27870  0.47010  0.61510  1.0000 -0.296235446
C   C118      1.0  0.72130  0.97010  0.88490  1.0000 -0.296235446
C   C119      1.0  0.72130  0.52990  0.38490  1.0000 -0.296235446
C   C120      1.0  0.27870  0.02990  0.11510  1.0000 -0.296235446
C   C121      1.0  0.92890  0.27920  0.32630  1.0000 -0.3495807582
C   C122      1.0  0.78930  0.36690  0.29990  1.0000 -0.3495807582
C   C123      1.0  0.85650  0.40680  0.24730  1.0000 -0.3495807582
C   C124      1.0  0.76570  0.25930  0.21760  1.0000 -0.3495807582
C   C125      1.0  0.07110  0.77920  0.17370  1.0000 -0.3495807582
C   C126      1.0  0.21070  0.86690  0.20010  1.0000 -0.3495807582
C   C127      1.0  0.14350  0.90680  0.25270  1.0000 -0.3495807582
C   C128      1.0  0.23430  0.75930  0.28240  1.0000 -0.3495807582
C   C129      1.0  0.07110  0.72080  0.67370  1.0000 -0.3495807582
C   C130      1.0  0.21070  0.63310  0.70010  1.0000 -0.3495807582
C   C131      1.0  0.14350  0.59320  0.75270  1.0000 -0.3495807582
C   C132      1.0  0.23430  0.74070  0.78240  1.0000 -0.3495807582
C   C133      1.0  0.92890  0.22080  0.82630  1.0000 -0.3495807582
C   C134      1.0  0.78930  0.13310  0.79990  1.0000 -0.3495807582
C   C135      1.0  0.85650  0.09320  0.74730  1.0000 -0.3495807582
C   C136      1.0  0.76570  0.24070  0.71760  1.0000 -0.3495807582
N   N1        1.0  0.18950  0.51620  0.55610  1.0000 0.049026083
N   N2        1.0  0.81050  0.01620  0.94390  1.0000 0.049026083
N   N3        1.0  0.81050  0.48380  0.44390  1.0000 0.049026083
N   N4        1.0  0.18950  0.98380  0.05610  1.0000 0.049026083
N   N5        1.0  0.83790  0.32860  0.27530  1.0000 0.2987502923
N   N6        1.0  0.16210  0.82860  0.22470  1.0000 0.2987502923
N   N7        1.0  0.16210  0.67140  0.72470  1.0000 0.2987502923
N   N8        1.0  0.83790  0.17140  0.77530  1.0000 0.2987502923
O   O1        1.0  0.92970  0.01020  0.66810  1.0000 -0.4978839049
O   O2        1.0  0.07030  0.51020  0.83190  1.0000 -0.4978839049
O   O3        1.0  0.07030  0.98980  0.33190  1.0000 -0.4978839049
O   O4        1.0  0.92970  0.48980  0.16810  1.0000 -0.4978839049
O   O5        1.0  0.91610  0.85160  0.67310  1.0000 -0.5385210702
O   O6        1.0  0.08390  0.35160  0.82690  1.0000 -0.5385210702
O   O7        1.0  0.08390  0.14840  0.32690  1.0000 -0.5385210702
O   O8        1.0  0.91610  0.64840  0.17310  1.0000 -0.5385210702
O   O9        1.0  0.79670  0.91460  0.53340  1.0000 -0.5839647541
O   O10       1.0  0.20330  0.41460  0.96660  1.0000 -0.5839647541
O   O11       1.0  0.20330  0.08540  0.46660  1.0000 -0.5839647541
O   O12       1.0  0.79670  0.58540  0.03340  1.0000 -0.5839647541
O   O13       1.0  0.85850  0.77450  0.54310  1.0000 -0.4880183452
O   O14       1.0  0.14150  0.27450  0.95690  1.0000 -0.4880183452
O   O15       1.0  0.14150  0.22550  0.45690  1.0000 -0.4880183452
O   O16       1.0  0.85850  0.72550  0.04310  1.0000 -0.4880183452
O   O17       1.0  0.07430  0.92660  0.43240  1.0000 -0.5271164814
O   O18       1.0  0.92570  0.42660  0.06760  1.0000 -0.5271164814
O   O19       1.0  0.92570  0.07340  0.56760  1.0000 -0.5271164814
O   O20       1.0  0.07430  0.57340  0.93240  1.0000 -0.5271164814
O   O21       1.0  0.10850  0.81180  0.50450  1.0000 -0.5720389674
O   O22       1.0  0.89150  0.31180  0.99550  1.0000 -0.5720389674
O   O23       1.0  0.89150  0.18820  0.49550  1.0000 -0.5720389674
O   O24       1.0  0.10850  0.68820  0.00450  1.0000 -0.5720389674
O   O25       1.0  0.70640  0.09380  0.46950  1.0000 -0.5720389674
O   O26       1.0  0.29360  0.59380  0.03050  1.0000 -0.5720389674
O   O27       1.0  0.29360  0.90620  0.53050  1.0000 -0.5720389674
O   O28       1.0  0.70640  0.40620  0.96950  1.0000 -0.5720389674
O   O29       1.0  0.58260  0.18730  0.39430  1.0000 -0.4487109819
O   O30       1.0  0.41740  0.68730  0.10570  1.0000 -0.4487109819
O   O31       1.0  0.41740  0.81270  0.60570  1.0000 -0.4487109819
O   O32       1.0  0.58260  0.31270  0.89430  1.0000 -0.4487109819
O   O33       1.0  0.64370  0.76520  0.48410  1.0000 -0.5271164814
O   O34       1.0  0.35630  0.26520  0.01590  1.0000 -0.5271164814
O   O35       1.0  0.35630  0.23480  0.51590  1.0000 -0.5271164814
O   O36       1.0  0.64370  0.73480  0.98410  1.0000 -0.5271164814
O   O37       1.0  0.49280  0.71860  0.44220  1.0000 -0.4200137744
O   O38       1.0  0.50720  0.21860  0.05780  1.0000 -0.4200137744
O   O39       1.0  0.50720  0.28140  0.55780  1.0000 -0.4200137744
O   O40       1.0  0.49280  0.78140  0.94220  1.0000 -0.4200137744
O   O41       1.0  0.29750  0.12290  0.40070  1.0000 -0.5117237706
O   O42       1.0  0.70250  0.62290  0.09930  1.0000 -0.5117237706
O   O43       1.0  0.70250  0.87710  0.59930  1.0000 -0.5117237706
O   O44       1.0  0.29750  0.37710  0.90070  1.0000 -0.5117237706
O   O45       1.0  0.28110  0.97090  0.41850  1.0000 -0.5271164814
O   O46       1.0  0.71890  0.47090  0.08150  1.0000 -0.5271164814
O   O47       1.0  0.71890  0.02910  0.58150  1.0000 -0.5271164814
O   O48       1.0  0.28110  0.52910  0.91850  1.0000 -0.5271164814
O   O49       1.0  0.23510  0.77990  0.98390  1.0000 -0.5516745338
O   O50       1.0  0.76490  0.27990  0.51610  1.0000 -0.5516745338
O   O51       1.0  0.76490  0.22010  0.01610  1.0000 -0.5516745338
O   O52       1.0  0.23510  0.72010  0.48390  1.0000 -0.5516745338
O   O53       1.0  0.16140  0.68550  0.89200  1.0000 -0.5117237706
O   O54       1.0  0.83860  0.18550  0.60800  1.0000 -0.5117237706
O   O55       1.0  0.83860  0.31450  0.10800  1.0000 -0.5117237706
O   O56       1.0  0.16140  0.81450  0.39200  1.0000 -0.5117237706
O   O57       1.0  0.19850  0.18640  0.87730  1.0000 -0.5117237706
O   O58       1.0  0.80150  0.68640  0.62270  1.0000 -0.5117237706
O   O59       1.0  0.80150  0.81360  0.12270  1.0000 -0.5117237706
O   O60       1.0  0.19850  0.31360  0.37730  1.0000 -0.5117237706
O   O61       1.0  0.29510  0.10490  0.97480  1.0000 -0.4617989325
O   O62       1.0  0.70490  0.60490  0.52520  1.0000 -0.4617989325
O   O63       1.0  0.70490  0.89510  0.02520  1.0000 -0.4617989325
O   O64       1.0  0.29510  0.39510  0.47480  1.0000 -0.4617989325
O   O65       1.0  0.70920  0.13960  0.36030  1.0000 -0.5637636671
O   O66       1.0  0.29080  0.63960  0.13970  1.0000 -0.5637636671
O   O67       1.0  0.29080  0.86040  0.63970  1.0000 -0.5637636671
O   O68       1.0  0.70920  0.36040  0.86030  1.0000 -0.5637636671
O   O69       1.0  0.75550  0.10880  0.30170  1.0000 -0.5185372123
O   O70       1.0  0.24450  0.60880  0.19830  1.0000 -0.5185372123
O   O71       1.0  0.24450  0.89120  0.69830  1.0000 -0.5185372123
O   O72       1.0  0.75550  0.39120  0.80170  1.0000 -0.5185372123
O   O73       1.0  0.25450  0.66450  0.59260  1.0000 -0.4091094324
O   O74       1.0  0.74550  0.16450  0.90740  1.0000 -0.4091094324
O   O75       1.0  0.74550  0.33550  0.40740  1.0000 -0.4091094324
O   O76       1.0  0.25450  0.83550  0.09260  1.0000 -0.4091094324
