# DDEC6 charges by PACMAN v1.1 (https://github.com/mtap-research/PACMAN-charge/)
data_2008[Cd][nan]3[ION]1
_chemical_formula_sum              "Cd2 H72 C72 N28 O12"
_cell_length_a       12.2631
_cell_length_b       12.2631
_cell_length_c       21.17
_cell_angle_alpha    69.8172
_cell_angle_beta     110.183
_cell_angle_gamma    135.267

_symmetry_space_group_name_H-M    "P 1"
_symmetry_Int_Tables_number       1

loop_
  _symmetry_equiv_pos_as_xyz
  'x, y, z'

loop_
  _atom_site_type_symbol
  _atom_site_label
  _atom_site_symmetry_multiplicity
  _atom_site_fract_x
  _atom_site_fract_y
  _atom_site_fract_z
  _atom_site_occupancy
  _atom_site_charge
Cd  Cd1       1.0  0.00000  0.00000  0.00000  1.0000 0.6843138361
Cd  Cd2       1.0  0.00000  0.00000  0.50000  1.0000 0.6843138361
H   H1        1.0  0.43420  0.77760  0.83610  1.0000 0.1208998996
H   H2        1.0  0.77760  0.43420  0.66390  1.0000 0.1208998996
H   H3        1.0  0.56580  0.22240  0.16390  1.0000 0.1208998996
H   H4        1.0  0.22240  0.56580  0.33610  1.0000 0.1208998996
H   H5        1.0  0.11850  0.81570  0.79990  1.0000 0.1278726984
H   H6        1.0  0.81570  0.11850  0.70010  1.0000 0.1278726984
H   H7        1.0  0.88150  0.18430  0.20010  1.0000 0.1278726984
H   H8        1.0  0.18430  0.88150  0.29990  1.0000 0.1278726984
H   H9        1.0  0.08130  0.48230  0.94420  1.0000 0.1096836052
H   H10       1.0  0.48230  0.08130  0.55580  1.0000 0.1096836052
H   H11       1.0  0.91870  0.51770  0.05580  1.0000 0.1096836052
H   H12       1.0  0.51770  0.91870  0.44420  1.0000 0.1096836052
H   H13       1.0  0.33540  0.50060  0.90440  1.0000 0.1096836052
H   H14       1.0  0.50060  0.33540  0.59560  1.0000 0.1096836052
H   H15       1.0  0.66460  0.49940  0.09560  1.0000 0.1096836052
H   H16       1.0  0.49940  0.66460  0.40440  1.0000 0.1096836052
H   H17       1.0  0.24990  0.44030  0.96480  1.0000 0.1096836052
H   H18       1.0  0.44030  0.24990  0.53520  1.0000 0.1096836052
H   H19       1.0  0.75010  0.55970  0.03520  1.0000 0.1096836052
H   H20       1.0  0.55970  0.75010  0.46480  1.0000 0.1096836052
H   H21       1.0  0.43180  0.61640  0.06850  1.0000 0.1278726984
H   H22       1.0  0.61640  0.43180  0.43150  1.0000 0.1278726984
H   H23       1.0  0.56820  0.38360  0.93150  1.0000 0.1278726984
H   H24       1.0  0.38360  0.56820  0.56850  1.0000 0.1278726984
H   H25       1.0  0.71450  0.80310  0.10190  1.0000 0.1208998996
H   H26       1.0  0.80310  0.71450  0.39810  1.0000 0.1208998996
H   H27       1.0  0.28550  0.19690  0.89810  1.0000 0.1208998996
H   H28       1.0  0.19690  0.28550  0.60190  1.0000 0.1208998996
H   H29       1.0  0.63270  0.72250  0.92120  1.0000 0.1096836052
H   H30       1.0  0.72250  0.63270  0.57880  1.0000 0.1096836052
H   H31       1.0  0.36730  0.27750  0.07880  1.0000 0.1096836052
H   H32       1.0  0.27750  0.36730  0.42120  1.0000 0.1096836052
H   H33       1.0  0.46540  0.97720  0.75000  1.0000 0.1278726984
H   H34       1.0  0.97720  0.46540  0.75000  1.0000 0.1208998996
H   H35       1.0  0.53460  0.02280  0.25000  1.0000 0.1278726984
H   H36       1.0  0.02280  0.53460  0.25000  1.0000 0.1278726984
H   H37       1.0  0.40810  0.04710  0.76300  1.0000 0.1208998996
H   H38       1.0  0.04710  0.40810  0.73700  1.0000 0.1208998996
H   H39       1.0  0.59190  0.95290  0.23700  1.0000 0.1208998996
H   H40       1.0  0.95290  0.59190  0.26300  1.0000 0.1208998996
H   H41       1.0  0.21420  0.72540  0.67020  1.0000 0.1278726984
H   H42       1.0  0.72540  0.21420  0.82980  1.0000 0.1278726984
H   H43       1.0  0.78580  0.27460  0.32980  1.0000 0.1278726984
H   H44       1.0  0.27460  0.78580  0.17020  1.0000 0.1278726984
H   H45       1.0  0.05010  0.73430  0.56620  1.0000 0.1096836052
H   H46       1.0  0.73430  0.05010  0.93380  1.0000 0.1096836052
H   H47       1.0  0.94990  0.26570  0.43380  1.0000 0.1096836052
H   H48       1.0  0.26570  0.94990  0.06620  1.0000 0.1096836052
H   H49       1.0  0.24980  0.07820  0.65830  1.0000 0.1096836052
H   H50       1.0  0.07820  0.24980  0.84170  1.0000 0.1096836052
H   H51       1.0  0.75020  0.92180  0.34170  1.0000 0.1096836052
H   H52       1.0  0.92180  0.75020  0.15830  1.0000 0.1096836052
H   H53       1.0  0.90620  0.50760  0.93350  1.0000 0.1096836052
H   H54       1.0  0.50760  0.90620  0.56650  1.0000 0.1096836052
H   H55       1.0  0.09380  0.49240  0.06650  1.0000 0.1096836052
H   H56       1.0  0.49240  0.09380  0.43350  1.0000 0.1096836052
H   H57       1.0  0.84070  0.50630  0.85560  1.0000 0.1208998996
H   H58       1.0  0.50630  0.84070  0.64440  1.0000 0.1208998996
H   H59       1.0  0.15930  0.49370  0.14440  1.0000 0.1208998996
H   H60       1.0  0.49370  0.15930  0.35560  1.0000 0.1208998996
H   H61       1.0  0.77880  0.68440  0.79940  1.0000 0.1208998996
H   H62       1.0  0.68440  0.77880  0.70060  1.0000 0.1208998996
H   H63       1.0  0.22120  0.31560  0.20060  1.0000 0.1208998996
H   H64       1.0  0.31560  0.22120  0.29940  1.0000 0.1208998996
H   H65       1.0  0.82850  0.88410  0.83660  1.0000 0.1096836052
H   H66       1.0  0.88410  0.82850  0.66340  1.0000 0.1096836052
H   H67       1.0  0.17150  0.11590  0.16340  1.0000 0.1096836052
H   H68       1.0  0.11590  0.17150  0.33660  1.0000 0.1096836052
H   H69       1.0  0.05640  0.77720  0.97630  1.0000 0.0954247588
H   H70       1.0  0.77720  0.05640  0.52370  1.0000 0.0954247588
H   H71       1.0  0.94360  0.22280  0.02370  1.0000 0.0954247588
H   H72       1.0  0.22280  0.94360  0.47630  1.0000 0.0954247588
C   C1        1.0  0.26700  0.61620  0.89700  1.0000 0.1208998996
C   C2        1.0  0.61620  0.26700  0.60300  1.0000 0.1208998996
C   C3        1.0  0.73300  0.38380  0.10300  1.0000 0.1208998996
C   C4        1.0  0.38380  0.73300  0.39700  1.0000 0.1208998996
C   C5        1.0  0.34470  0.74310  0.84590  1.0000 -0.2279140627
C   C6        1.0  0.74310  0.34470  0.65410  1.0000 -0.2279140627
C   C7        1.0  0.65530  0.25690  0.15410  1.0000 -0.2279140627
C   C8        1.0  0.25690  0.65530  0.34590  1.0000 -0.2279140627
C   C9        1.0  0.28990  0.81870  0.80940  1.0000 0.1278726984
C   C10       1.0  0.81870  0.28990  0.69060  1.0000 0.1278726984
C   C11       1.0  0.71010  0.18130  0.19060  1.0000 0.1278726984
C   C12       1.0  0.18130  0.71010  0.30940  1.0000 0.1278726984
C   C13       1.0  0.15590  0.76590  0.82420  1.0000 -0.2113560117
C   C14       1.0  0.76590  0.15590  0.67580  1.0000 -0.2113560117
C   C15       1.0  0.84410  0.23410  0.17580  1.0000 -0.2113560117
C   C16       1.0  0.23410  0.84410  0.32420  1.0000 -0.2113560117
C   C17       1.0  0.07715  0.64025  0.87460  1.0000 0.1208998996
C   C18       1.0  0.64025  0.07715  0.62540  1.0000 0.1208998996
C   C19       1.0  0.92285  0.35975  0.12540  1.0000 0.1208998996
C   C20       1.0  0.35975  0.92285  0.37460  1.0000 0.1208998996
C   C21       1.0  0.13420  0.56700  0.91030  1.0000 -0.235426051
C   C22       1.0  0.56700  0.13420  0.58970  1.0000 -0.235426051
C   C23       1.0  0.86580  0.43300  0.08970  1.0000 -0.235426051
C   C24       1.0  0.43300  0.86580  0.41030  1.0000 -0.235426051
C   C25       1.0  0.32600  0.53360  0.93630  1.0000 -0.1822688816
C   C26       1.0  0.53360  0.32600  0.56370  1.0000 -0.1822688816
C   C27       1.0  0.67400  0.46640  0.06370  1.0000 -0.1822688816
C   C28       1.0  0.46640  0.67400  0.43630  1.0000 -0.1822688816
C   C29       1.0  0.50650  0.66050  0.04280  1.0000 -0.1115381368
C   C30       1.0  0.66050  0.50650  0.45720  1.0000 -0.1115381368
C   C31       1.0  0.49350  0.33950  0.95720  1.0000 -0.1115381368
C   C32       1.0  0.33950  0.49350  0.54280  1.0000 -0.1115381368
C   C33       1.0  0.66240  0.76340  0.06090  1.0000 -0.0447388305
C   C34       1.0  0.76340  0.66240  0.43910  1.0000 -0.0447388305
C   C35       1.0  0.33760  0.23660  0.93910  1.0000 -0.0447388305
C   C36       1.0  0.23660  0.33760  0.56090  1.0000 -0.0447388305
C   C37       1.0  0.61825  0.71975  0.96220  1.0000 0.0911148066
C   C38       1.0  0.71975  0.61825  0.53780  1.0000 0.0911148066
C   C39       1.0  0.38175  0.28025  0.03780  1.0000 0.0911148066
C   C40       1.0  0.28025  0.38175  0.46220  1.0000 0.0911148066
C   C41       1.0  0.37350  0.95450  0.75280  1.0000 -0.1732458374
C   C42       1.0  0.95450  0.37350  0.74720  1.0000 -0.1732458374
C   C43       1.0  0.62650  0.04550  0.24720  1.0000 -0.1732458374
C   C44       1.0  0.04550  0.62650  0.25280  1.0000 -0.1732458374
C   C45       1.0  0.20130  0.79690  0.65530  1.0000 -0.1157567403
C   C46       1.0  0.79690  0.20130  0.84470  1.0000 -0.1157567403
C   C47       1.0  0.79870  0.20310  0.34470  1.0000 -0.1157567403
C   C48       1.0  0.20310  0.79870  0.15530  1.0000 -0.1157567403
C   C49       1.0  0.11120  0.80320  0.59770  1.0000 -0.0742519101
C   C50       1.0  0.80320  0.11120  0.90230  1.0000 -0.0742519101
C   C51       1.0  0.88880  0.19680  0.40230  1.0000 -0.0742519101
C   C52       1.0  0.19680  0.88880  0.09770  1.0000 -0.0742519101
C   C53       1.0  0.21979  0.99141  0.64780  1.0000 0.0770367492
C   C54       1.0  0.99141  0.21979  0.85220  1.0000 0.0770367492
C   C55       1.0  0.78021  0.00859  0.35220  1.0000 0.0770367492
C   C56       1.0  0.00859  0.78021  0.14780  1.0000 0.0770367492
C   C57       1.0  0.92550  0.57290  0.88920  1.0000 -0.1822688816
C   C58       1.0  0.57290  0.92550  0.61080  1.0000 -0.1822688816
C   C59       1.0  0.07450  0.42710  0.11080  1.0000 -0.1822688816
C   C60       1.0  0.42710  0.07450  0.38920  1.0000 -0.1822688816
C   C61       1.0  0.84090  0.72750  0.83930  1.0000 -0.1115381368
C   C62       1.0  0.72750  0.84090  0.66070  1.0000 -0.1115381368
C   C63       1.0  0.15910  0.27250  0.16070  1.0000 -0.1115381368
C   C64       1.0  0.27250  0.15910  0.33930  1.0000 -0.1115381368
C   C65       1.0  0.86860  0.83700  0.86050  1.0000 -0.0591166871
C   C66       1.0  0.83700  0.86860  0.63950  1.0000 -0.0591166871
C   C67       1.0  0.13140  0.16300  0.13950  1.0000 -0.0591166871
C   C68       1.0  0.16300  0.13140  0.36050  1.0000 -0.0591166871
C   C69       1.0  0.99350  0.77990  0.93690  1.0000 0.0770367492
C   C70       1.0  0.77990  0.99350  0.56310  1.0000 0.0770367492
C   C71       1.0  0.00650  0.22010  0.06310  1.0000 0.0770367492
C   C72       1.0  0.22010  0.00650  0.43690  1.0000 0.0770367492
N   N1        1.0  0.47827  0.63273  0.97910  1.0000 0.0416527974
N   N2        1.0  0.63273  0.47827  0.52090  1.0000 0.0416527974
N   N3        1.0  0.52173  0.36727  0.02090  1.0000 0.0416527974
N   N4        1.0  0.36727  0.52173  0.47910  1.0000 0.0416527974
N   N5        1.0  0.73316  0.80084  0.00990  1.0000 -0.299061743
N   N6        1.0  0.80084  0.73316  0.49010  1.0000 -0.299061743
N   N7        1.0  0.26684  0.19916  0.99010  1.0000 -0.299061743
N   N8        1.0  0.19916  0.26684  0.50990  1.0000 -0.299061743
N   N9        1.0  0.26913  0.91707  0.68700  1.0000 0.0416527974
N   N10       1.0  0.91707  0.26913  0.81300  1.0000 0.0416527974
N   N11       1.0  0.73087  0.08293  0.31300  1.0000 0.0416527974
N   N12       1.0  0.08293  0.73087  0.18700  1.0000 0.0416527974
N   N13       1.0  0.12369  0.92691  0.59280  1.0000 -0.299061743
N   N14       1.0  0.92691  0.12369  0.90720  1.0000 -0.299061743
N   N15       1.0  0.87631  0.07309  0.40720  1.0000 -0.299061743
N   N16       1.0  0.07309  0.87631  0.09280  1.0000 -0.299061743
N   N17       1.0  0.92303  0.69177  0.88872  1.0000 0.0416527974
N   N18       1.0  0.69177  0.92303  0.61128  1.0000 0.0416527974
N   N19       1.0  0.07697  0.30823  0.11128  1.0000 0.0416527974
N   N20       1.0  0.30823  0.07697  0.38872  1.0000 0.0416527974
N   N21       1.0  0.96425  0.87055  0.92243  1.0000 -0.2927456474
N   N22       1.0  0.87055  0.96425  0.57757  1.0000 -0.2927456474
N   N23       1.0  0.03575  0.12945  0.07757  1.0000 -0.2927456474
N   N24       1.0  0.12945  0.03575  0.42243  1.0000 -0.2927456474
N   N25       1.0  0.40710  0.60650  0.25690  1.0000 0.6513879323
N   N26       1.0  0.60650  0.40710  0.24310  1.0000 0.6513879323
N   N27       1.0  0.59290  0.39350  0.74310  1.0000 0.6513879323
N   N28       1.0  0.39350  0.59290  0.75690  1.0000 0.6513879323
O   O1        1.0  0.27420  0.47800  0.27030  1.0000 -0.4455234384
O   O2        1.0  0.41500  0.68000  0.20220  1.0000 -0.3718022084
O   O3        1.0  0.52020  0.65460  0.29890  1.0000 -0.3834893232
O   O4        1.0  0.47800  0.27420  0.22970  1.0000 -0.4455234384
O   O5        1.0  0.68000  0.41500  0.29780  1.0000 -0.3718022084
O   O6        1.0  0.65460  0.52020  0.20110  1.0000 -0.3834893232
O   O7        1.0  0.72580  0.52200  0.72970  1.0000 -0.4443243718
O   O8        1.0  0.58500  0.32000  0.79780  1.0000 -0.3718022084
O   O9        1.0  0.47980  0.34540  0.70110  1.0000 -0.3834893232
O   O10       1.0  0.52200  0.72580  0.77030  1.0000 -0.4443243718
O   O11       1.0  0.32000  0.58500  0.70220  1.0000 -0.3718022084
O   O12       1.0  0.34540  0.47980  0.79890  1.0000 -0.3834893232
