# DDEC6 charges by PACMAN v1.1 (https://github.com/mtap-research/PACMAN-charge/)
data_2009[Cd][nan]3[ION]1
_chemical_formula_sum              "Cd10 H30 C30 N62 O6"
_cell_length_a       13.0732
_cell_length_b       13.0732
_cell_length_c       13.435
_cell_angle_alpha    90
_cell_angle_beta     90
_cell_angle_gamma    120

_symmetry_space_group_name_H-M    "P 1"
_symmetry_Int_Tables_number       1

loop_
  _symmetry_equiv_pos_as_xyz
  'x, y, z'

loop_
  _atom_site_type_symbol
  _atom_site_label
  _atom_site_symmetry_multiplicity
  _atom_site_fract_x
  _atom_site_fract_y
  _atom_site_fract_z
  _atom_site_occupancy
  _atom_site_charge
Cd  Cd1       1.0  0.50000  0.00000  0.50000  1.0000 0.6262336443
Cd  Cd2       1.0  0.00000  0.50000  0.50000  1.0000 0.6262336443
Cd  Cd3       1.0  0.50000  0.50000  0.50000  1.0000 0.6262336443
Cd  Cd4       1.0  0.50000  0.00000  0.00000  1.0000 0.6232725451
Cd  Cd5       1.0  0.00000  0.50000  0.00000  1.0000 0.6232725451
Cd  Cd6       1.0  0.50000  0.50000  0.00000  1.0000 0.6232725451
Cd  Cd7       1.0  0.33333  0.66667  0.40339  1.0000 0.5721892784
Cd  Cd8       1.0  0.66667  0.33333  0.90339  1.0000 0.5721892784
Cd  Cd9       1.0  0.66667  0.33333  0.59661  1.0000 0.5721892784
Cd  Cd10      1.0  0.33333  0.66667  0.09661  1.0000 0.5721892784
H   H1        1.0  0.45160  0.90320  0.75000  1.0000 0.109082296
H   H2        1.0  0.09680  0.54840  0.75000  1.0000 0.109082296
H   H3        1.0  0.45160  0.54840  0.75000  1.0000 0.109082296
H   H4        1.0  0.54840  0.09680  0.25000  1.0000 0.109082296
H   H5        1.0  0.90320  0.45160  0.25000  1.0000 0.109082296
H   H6        1.0  0.54840  0.45160  0.25000  1.0000 0.109082296
H   H7        1.0  0.23850  0.94730  0.61840  1.0000 0.1203799317
H   H8        1.0  0.05270  0.29120  0.61840  1.0000 0.1203799317
H   H9        1.0  0.70880  0.76150  0.61840  1.0000 0.1203799317
H   H10       1.0  0.76150  0.05270  0.11840  1.0000 0.1203799317
H   H11       1.0  0.94730  0.70880  0.11840  1.0000 0.1203799317
H   H12       1.0  0.29120  0.23850  0.11840  1.0000 0.1203799317
H   H13       1.0  0.94730  0.23850  0.38160  1.0000 0.1203799317
H   H14       1.0  0.29120  0.05270  0.38160  1.0000 0.1203799317
H   H15       1.0  0.76150  0.70880  0.38160  1.0000 0.1203799317
H   H16       1.0  0.05270  0.76150  0.88160  1.0000 0.1203799317
H   H17       1.0  0.70880  0.94730  0.88160  1.0000 0.1203799317
H   H18       1.0  0.23850  0.29120  0.88160  1.0000 0.1203799317
H   H19       1.0  0.76150  0.05270  0.38160  1.0000 0.1203799317
H   H20       1.0  0.94730  0.70880  0.38160  1.0000 0.1203799317
H   H21       1.0  0.29120  0.23850  0.38160  1.0000 0.1203799317
H   H22       1.0  0.23850  0.94730  0.88160  1.0000 0.1203799317
H   H23       1.0  0.05270  0.29120  0.88160  1.0000 0.1203799317
H   H24       1.0  0.70880  0.76150  0.88160  1.0000 0.1203799317
H   H25       1.0  0.05270  0.76150  0.61840  1.0000 0.1203799317
H   H26       1.0  0.70880  0.94730  0.61840  1.0000 0.1203799317
H   H27       1.0  0.23850  0.29120  0.61840  1.0000 0.1203799317
H   H28       1.0  0.94730  0.23850  0.11840  1.0000 0.1203799317
H   H29       1.0  0.29120  0.05270  0.11840  1.0000 0.1203799317
H   H30       1.0  0.76150  0.70880  0.11840  1.0000 0.1203799317
C   C1        1.0  0.49345  0.98690  0.75000  1.0000 0.1203799317
C   C2        1.0  0.01310  0.50655  0.75000  1.0000 0.1203799317
C   C3        1.0  0.49345  0.50655  0.75000  1.0000 0.1203799317
C   C4        1.0  0.50655  0.01310  0.25000  1.0000 0.1203799317
C   C5        1.0  0.98690  0.49345  0.25000  1.0000 0.1203799317
C   C6        1.0  0.50655  0.49345  0.25000  1.0000 0.1203799317
C   C7        1.0  0.22530  0.87650  0.58620  1.0000 -0.0657550673
C   C8        1.0  0.12350  0.34880  0.58620  1.0000 -0.0657550673
C   C9        1.0  0.65120  0.77470  0.58620  1.0000 -0.0657550673
C   C10       1.0  0.77470  0.12350  0.08620  1.0000 -0.0657550673
C   C11       1.0  0.87650  0.65120  0.08620  1.0000 -0.0657550673
C   C12       1.0  0.34880  0.22530  0.08620  1.0000 -0.0657550673
C   C13       1.0  0.87650  0.22530  0.41380  1.0000 -0.0657550673
C   C14       1.0  0.34880  0.12350  0.41380  1.0000 -0.0657550673
C   C15       1.0  0.77470  0.65120  0.41380  1.0000 -0.0657550673
C   C16       1.0  0.12350  0.77470  0.91380  1.0000 -0.0657550673
C   C17       1.0  0.65120  0.87650  0.91380  1.0000 -0.0657550673
C   C18       1.0  0.22530  0.34880  0.91380  1.0000 -0.0657550673
C   C19       1.0  0.77470  0.12350  0.41380  1.0000 -0.0657550673
C   C20       1.0  0.87650  0.65120  0.41380  1.0000 -0.0657550673
C   C21       1.0  0.34880  0.22530  0.41380  1.0000 -0.0657550673
C   C22       1.0  0.22530  0.87650  0.91380  1.0000 -0.0657550673
C   C23       1.0  0.12350  0.34880  0.91380  1.0000 -0.0657550673
C   C24       1.0  0.65120  0.77470  0.91380  1.0000 -0.0657550673
C   C25       1.0  0.12350  0.77470  0.58620  1.0000 -0.0657550673
C   C26       1.0  0.65120  0.87650  0.58620  1.0000 -0.0657550673
C   C27       1.0  0.22530  0.34880  0.58620  1.0000 -0.0657550673
C   C28       1.0  0.87650  0.22530  0.08620  1.0000 -0.0657550673
C   C29       1.0  0.34880  0.12350  0.08620  1.0000 -0.0657550673
C   C30       1.0  0.77470  0.65120  0.08620  1.0000 -0.0657550673
N   N1        1.0  0.24895  0.75105  0.50240  1.0000 -0.0611288873
N   N2        1.0  0.24895  0.49790  0.50240  1.0000 -0.0611288873
N   N3        1.0  0.50210  0.75105  0.50240  1.0000 -0.0611288873
N   N4        1.0  0.75105  0.24895  0.00240  1.0000 -0.0611288873
N   N5        1.0  0.75105  0.50210  0.00240  1.0000 -0.0611288873
N   N6        1.0  0.49790  0.24895  0.00240  1.0000 -0.0611288873
N   N7        1.0  0.75105  0.24895  0.49760  1.0000 -0.0611288873
N   N8        1.0  0.49790  0.24895  0.49760  1.0000 -0.0611288873
N   N9        1.0  0.75105  0.50210  0.49760  1.0000 -0.0611288873
N   N10       1.0  0.24895  0.75105  0.99760  1.0000 -0.0611288873
N   N11       1.0  0.50210  0.75105  0.99760  1.0000 -0.0611288873
N   N12       1.0  0.24895  0.49790  0.99760  1.0000 -0.0611288873
N   N13       1.0  0.30360  0.86180  0.53440  1.0000 -0.1596069167
N   N14       1.0  0.13820  0.44180  0.53440  1.0000 -0.1596069167
N   N15       1.0  0.55820  0.69640  0.53440  1.0000 -0.1596069167
N   N16       1.0  0.69640  0.13820  0.03440  1.0000 -0.1596069167
N   N17       1.0  0.86180  0.55820  0.03440  1.0000 -0.1596069167
N   N18       1.0  0.44180  0.30360  0.03440  1.0000 -0.1596069167
N   N19       1.0  0.86180  0.30360  0.46560  1.0000 -0.1596069167
N   N20       1.0  0.44180  0.13820  0.46560  1.0000 -0.1596069167
N   N21       1.0  0.69640  0.55820  0.46560  1.0000 -0.1596069167
N   N22       1.0  0.13820  0.69640  0.96560  1.0000 -0.1596069167
N   N23       1.0  0.55820  0.86180  0.96560  1.0000 -0.1596069167
N   N24       1.0  0.30360  0.44180  0.96560  1.0000 -0.1596069167
N   N25       1.0  0.69640  0.13820  0.46560  1.0000 -0.1596069167
N   N26       1.0  0.86180  0.55820  0.46560  1.0000 -0.1596069167
N   N27       1.0  0.44180  0.30360  0.46560  1.0000 -0.1596069167
N   N28       1.0  0.30360  0.86180  0.96560  1.0000 -0.1596069167
N   N29       1.0  0.13820  0.44180  0.96560  1.0000 -0.1596069167
N   N30       1.0  0.55820  0.69640  0.96560  1.0000 -0.1596069167
N   N31       1.0  0.13820  0.69640  0.53440  1.0000 -0.1596069167
N   N32       1.0  0.55820  0.86180  0.53440  1.0000 -0.1596069167
N   N33       1.0  0.30360  0.44180  0.53440  1.0000 -0.1596069167
N   N34       1.0  0.86180  0.30360  0.03440  1.0000 -0.1596069167
N   N35       1.0  0.44180  0.13820  0.03440  1.0000 -0.1596069167
N   N36       1.0  0.69640  0.55820  0.03440  1.0000 -0.1596069167
N   N37       1.0  0.41740  0.58260  0.29950  1.0000 -0.0548779076
N   N38       1.0  0.41740  0.83480  0.29950  1.0000 -0.0548779076
N   N39       1.0  0.16520  0.58260  0.29950  1.0000 -0.0548779076
N   N40       1.0  0.58260  0.41740  0.79950  1.0000 -0.0548779076
N   N41       1.0  0.58260  0.16520  0.79950  1.0000 -0.0548779076
N   N42       1.0  0.83480  0.41740  0.79950  1.0000 -0.0548779076
N   N43       1.0  0.58260  0.41740  0.70050  1.0000 -0.0611288873
N   N44       1.0  0.83480  0.41740  0.70050  1.0000 -0.0611288873
N   N45       1.0  0.58260  0.16520  0.70050  1.0000 -0.0611288873
N   N46       1.0  0.41740  0.58260  0.20050  1.0000 -0.0548779076
N   N47       1.0  0.16520  0.58260  0.20050  1.0000 -0.0548779076
N   N48       1.0  0.41740  0.83480  0.20050  1.0000 -0.0548779076
N   N49       1.0  0.52655  0.05310  0.66870  1.0000 -0.1910229318
N   N50       1.0  0.94690  0.47345  0.66870  1.0000 -0.1910229318
N   N51       1.0  0.52655  0.47345  0.66870  1.0000 -0.1910229318
N   N52       1.0  0.47345  0.94690  0.16870  1.0000 -0.1910229318
N   N53       1.0  0.05310  0.52655  0.16870  1.0000 -0.1910229318
N   N54       1.0  0.47345  0.52655  0.16870  1.0000 -0.1910229318
N   N55       1.0  0.05310  0.52655  0.33130  1.0000 -0.1910229318
N   N56       1.0  0.47345  0.94690  0.33130  1.0000 -0.1910229318
N   N57       1.0  0.47345  0.52655  0.33130  1.0000 -0.1910229318
N   N58       1.0  0.94690  0.47345  0.83130  1.0000 -0.1910229318
N   N59       1.0  0.52655  0.05310  0.83130  1.0000 -0.1910229318
N   N60       1.0  0.52655  0.47345  0.83130  1.0000 -0.1910229318
N   N61       1.0  0.33333  0.66667  0.75000  1.0000 0.6732573579
N   N62       1.0  0.66667  0.33333  0.25000  1.0000 0.6732573579
O   O1        1.0  0.27845  0.72155  0.75000  1.0000 -0.4229808082
O   O2        1.0  0.27845  0.55690  0.75000  1.0000 -0.4229808082
O   O3        1.0  0.44310  0.72155  0.75000  1.0000 -0.4229808082
O   O4        1.0  0.72155  0.27845  0.25000  1.0000 -0.4229808082
O   O5        1.0  0.72155  0.44310  0.25000  1.0000 -0.4229808082
O   O6        1.0  0.55690  0.27845  0.25000  1.0000 -0.4229808082
