# DDEC6 charges by PACMAN v1.1 (https://github.com/mtap-research/PACMAN-charge/)
data_2009[Zn][sql]2[ION]2
_chemical_formula_sum              "Zn2 H72 C88 N16 Cl2 O8"
_cell_length_a       11.6722
_cell_length_b       11.7171
_cell_length_c       24.9046
_cell_angle_alpha    90
_cell_angle_beta     111.717
_cell_angle_gamma    90

_symmetry_space_group_name_H-M    "P 1"
_symmetry_Int_Tables_number       1

loop_
  _symmetry_equiv_pos_as_xyz
  'x, y, z'

loop_
  _atom_site_type_symbol
  _atom_site_label
  _atom_site_symmetry_multiplicity
  _atom_site_fract_x
  _atom_site_fract_y
  _atom_site_fract_z
  _atom_site_occupancy
  _atom_site_charge
Zn  Zn1       1.0  0.83738  0.29141  0.95248  1.0000 0.6622620342
Zn  Zn2       1.0  0.83738  0.70859  0.45248  1.0000 0.6622620342
H   H1        1.0  0.63110  0.47220  0.89380  1.0000 0.1191751518
H   H2        1.0  0.47390  0.60250  0.87750  1.0000 0.1191751518
H   H3        1.0  0.41860  0.66370  0.95330  1.0000 0.1112361664
H   H4        1.0  0.50540  0.58620  0.04260  1.0000 0.1191751518
H   H5        1.0  0.82790  0.30690  0.08040  1.0000 0.1008055353
H   H6        1.0  0.66960  0.49880  0.13770  1.0000 0.1191751518
H   H7        1.0  0.75750  0.39250  0.15610  1.0000 0.1191751518
H   H8        1.0  0.46020  0.47390  0.12680  1.0000 0.1191751518
H   H9        1.0  0.29690  0.36050  0.12300  1.0000 0.1191751518
H   H10       1.0  0.49040  0.08220  0.11900  1.0000 0.1191751518
H   H11       1.0  0.65550  0.19480  0.12610  1.0000 0.1191751518
H   H12       1.0  0.70340  0.13710  0.01070  1.0000 0.1112361664
H   H13       1.0  0.58620  0.99050  0.02880  1.0000 0.1008055353
H   H14       1.0  0.47070  0.87000  0.95620  1.0000 0.1008055353
H   H15       1.0  0.47410  0.88680  0.86280  1.0000 0.1299478743
H   H16       1.0  0.71170  0.18670  0.82270  1.0000 0.1008055353
H   H17       1.0  0.57490  0.04760  0.74840  1.0000 0.1191751518
H   H18       1.0  0.48320  0.97440  0.76710  1.0000 0.1299478743
H   H19       1.0  0.79630  0.97470  0.78120  1.0000 0.1112361664
H   H20       1.0  0.91610  0.81610  0.78640  1.0000 0.1299478743
H   H21       1.0  0.63920  0.61670  0.78590  1.0000 0.1112361664
H   H22       1.0  0.51790  0.77600  0.78050  1.0000 0.1191751518
H   H23       1.0  0.05580  0.44960  0.02330  1.0000 0.1112361664
H   H24       1.0  0.20440  0.59080  0.04760  1.0000 0.1112361664
H   H25       1.0  0.22080  0.71300  0.97990  1.0000 0.1112361664
H   H26       1.0  0.08440  0.70580  0.88310  1.0000 0.1299478743
H   H27       1.0  0.77800  0.40810  0.82850  1.0000 0.1008055353
H   H28       1.0  0.82380  0.54450  0.75860  1.0000 0.1112361664
H   H29       1.0  0.94430  0.61790  0.78400  1.0000 0.1299478743
H   H30       1.0  0.94280  0.12090  0.88490  1.0000 0.1112361664
H   H31       1.0  0.07000  0.99560  0.86260  1.0000 0.1191751518
H   H32       1.0  0.24760  0.93180  0.93220  1.0000 0.1191751518
H   H33       1.0  0.30750  0.98620  0.02700  1.0000 0.1191751518
H   H34       1.0  0.04830  0.25260  0.07790  1.0000 0.1008055353
H   H35       1.0  0.29560  0.05750  0.12640  1.0000 0.1299478743
H   H36       1.0  0.24150  0.16030  0.14970  1.0000 0.1357227682
H   H37       1.0  0.63110  0.52780  0.39380  1.0000 0.1191751518
H   H38       1.0  0.47390  0.39750  0.37750  1.0000 0.1191751518
H   H39       1.0  0.41860  0.33630  0.45330  1.0000 0.1112361664
H   H40       1.0  0.50540  0.41380  0.54260  1.0000 0.1191751518
H   H41       1.0  0.82790  0.69310  0.58040  1.0000 0.1008055353
H   H42       1.0  0.66960  0.50120  0.63770  1.0000 0.1191751518
H   H43       1.0  0.75750  0.60750  0.65610  1.0000 0.1191751518
H   H44       1.0  0.46020  0.52610  0.62680  1.0000 0.1191751518
H   H45       1.0  0.29690  0.63950  0.62300  1.0000 0.1191751518
H   H46       1.0  0.49040  0.91780  0.61900  1.0000 0.1191751518
H   H47       1.0  0.65550  0.80520  0.62610  1.0000 0.1191751518
H   H48       1.0  0.70340  0.86290  0.51070  1.0000 0.1112361664
H   H49       1.0  0.58620  0.00950  0.52880  1.0000 0.1008055353
H   H50       1.0  0.47070  0.13000  0.45620  1.0000 0.1008055353
H   H51       1.0  0.47410  0.11320  0.36280  1.0000 0.1299478743
H   H52       1.0  0.71170  0.81330  0.32270  1.0000 0.1008055353
H   H53       1.0  0.57490  0.95240  0.24840  1.0000 0.1191751518
H   H54       1.0  0.48320  0.02560  0.26710  1.0000 0.1299478743
H   H55       1.0  0.79630  0.02530  0.28120  1.0000 0.1112361664
H   H56       1.0  0.91610  0.18390  0.28640  1.0000 0.1299478743
H   H57       1.0  0.63920  0.38330  0.28590  1.0000 0.1112361664
H   H58       1.0  0.51790  0.22400  0.28050  1.0000 0.1191751518
H   H59       1.0  0.05580  0.55040  0.52330  1.0000 0.1112361664
H   H60       1.0  0.20440  0.40920  0.54760  1.0000 0.1112361664
H   H61       1.0  0.22080  0.28700  0.47990  1.0000 0.1112361664
H   H62       1.0  0.08440  0.29420  0.38310  1.0000 0.1299478743
H   H63       1.0  0.77800  0.59190  0.32850  1.0000 0.1008055353
H   H64       1.0  0.82380  0.45550  0.25860  1.0000 0.1112361664
H   H65       1.0  0.94430  0.38210  0.28400  1.0000 0.1299478743
H   H66       1.0  0.94280  0.87910  0.38490  1.0000 0.1112361664
H   H67       1.0  0.07000  0.00440  0.36260  1.0000 0.1191751518
H   H68       1.0  0.24760  0.06820  0.43220  1.0000 0.1191751518
H   H69       1.0  0.30750  0.01380  0.52700  1.0000 0.1191751518
H   H70       1.0  0.04830  0.74740  0.57790  1.0000 0.1008055353
H   H71       1.0  0.29560  0.94250  0.62640  1.0000 0.1299478743
H   H72       1.0  0.24150  0.83970  0.64970  1.0000 0.1357227682
C   C1        1.0  0.66473  0.45167  0.97859  1.0000 0.1191751518
C   C2        1.0  0.60727  0.49518  0.92388  1.0000 -0.1896706813
C   C3        1.0  0.51422  0.57290  0.91442  1.0000 -0.0983995901
C   C4        1.0  0.47936  0.60820  0.96009  1.0000 -0.0917121799
C   C5        1.0  0.53137  0.56405  0.01309  1.0000 -0.1806570472
C   C6        1.0  0.62552  0.48376  0.02310  1.0000 0.0789809354
C   C7        1.0  0.77183  0.35726  0.05525  1.0000 0.0632641768
C   C8        1.0  0.68252  0.42165  0.12692  1.0000 -0.1806570472
C   C9        1.0  0.57342  0.34658  0.12460  1.0000 0.0789809354
C   C10       1.0  0.46661  0.39500  0.12507  1.0000 -0.1594233321
C   C11       1.0  0.36906  0.32693  0.12293  1.0000 -0.1499597014
C   C12       1.0  0.37648  0.20928  0.12067  1.0000 0.0789809354
C   C13       1.0  0.48410  0.16111  0.12099  1.0000 -0.1594233321
C   C14       1.0  0.58194  0.22862  0.12417  1.0000 -0.1594233321
C   C15       1.0  0.65812  0.09653  0.92747  1.0000 0.1191751518
C   C16       1.0  0.65806  0.08727  0.98149  1.0000 -0.199986148
C   C17       1.0  0.58705  0.99970  0.99185  1.0000 -0.1223449217
C   C18       1.0  0.51818  0.92644  0.94825  1.0000 -0.0983995901
C   C19       1.0  0.51894  0.93621  0.89232  1.0000 -0.1720994072
C   C20       1.0  0.59044  0.02401  0.88319  1.0000 0.0879398255
C   C21       1.0  0.68537  0.14772  0.84856  1.0000 0.0702592439
C   C22       1.0  0.56890  0.99654  0.77793  1.0000 -0.1896706813
C   C23       1.0  0.64574  0.89299  0.78136  1.0000 0.0789809354
C   C24       1.0  0.76411  0.90265  0.78249  1.0000 -0.1594233321
C   C25       1.0  0.83626  0.80714  0.78553  1.0000 -0.1408228608
C   C26       1.0  0.79208  0.70149  0.78717  1.0000 0.0789809354
C   C27       1.0  0.67098  0.68918  0.78514  1.0000 -0.1720994072
C   C28       1.0  0.59831  0.78466  0.78206  1.0000 -0.1499597014
C   C29       1.0  0.98451  0.49281  0.93814  1.0000 0.1191751518
C   C30       1.0  0.06249  0.49961  0.99561  1.0000 -0.199986148
C   C31       1.0  0.14987  0.58369  0.00953  1.0000 -0.1131108341
C   C32       1.0  0.15908  0.65791  0.96859  1.0000 -0.1131108341
C   C33       1.0  0.07972  0.65427  0.91063  1.0000 -0.1720994072
C   C34       1.0  0.99415  0.56803  0.89780  1.0000 0.0789809354
C   C35       1.0  0.84362  0.44516  0.85642  1.0000 0.0702592439
C   C36       1.0  0.86937  0.59596  0.78961  1.0000 -0.1720994072
C   C37       1.0  0.04876  0.12985  0.97009  1.0000 0.1299478743
C   C38       1.0  0.01508  0.09468  0.91336  1.0000 -0.1896706813
C   C39       1.0  0.09072  0.02070  0.90041  1.0000 -0.0983995901
C   C40       1.0  0.19818  0.98220  0.94283  1.0000 -0.0983995901
C   C41       1.0  0.23536  0.01407  0.99904  1.0000 -0.1896706813
C   C42       1.0  0.15903  0.09099  0.01232  1.0000 0.0789809354
C   C43       1.0  0.06491  0.20802  0.05077  1.0000 0.0789809354
C   C44       1.0  0.26889  0.13630  0.11915  1.0000 -0.1806570472
C   C45       1.0  0.66473  0.54833  0.47859  1.0000 0.1191751518
C   C46       1.0  0.60727  0.50482  0.42388  1.0000 -0.1896706813
C   C47       1.0  0.51422  0.42710  0.41442  1.0000 -0.0983995901
C   C48       1.0  0.47936  0.39180  0.46009  1.0000 -0.0917121799
C   C49       1.0  0.53137  0.43595  0.51309  1.0000 -0.1806570472
C   C50       1.0  0.62552  0.51624  0.52310  1.0000 0.0789809354
C   C51       1.0  0.77183  0.64274  0.55525  1.0000 0.0632641768
C   C52       1.0  0.68252  0.57835  0.62692  1.0000 -0.1806570472
C   C53       1.0  0.57342  0.65342  0.62460  1.0000 0.0789809354
C   C54       1.0  0.46661  0.60500  0.62507  1.0000 -0.1594233321
C   C55       1.0  0.36906  0.67307  0.62293  1.0000 -0.1499597014
C   C56       1.0  0.37648  0.79072  0.62067  1.0000 0.0789809354
C   C57       1.0  0.48410  0.83889  0.62099  1.0000 -0.1594233321
C   C58       1.0  0.58194  0.77138  0.62417  1.0000 -0.1594233321
C   C59       1.0  0.65812  0.90347  0.42747  1.0000 0.1191751518
C   C60       1.0  0.65806  0.91273  0.48149  1.0000 -0.199986148
C   C61       1.0  0.58705  0.00030  0.49185  1.0000 -0.1223449217
C   C62       1.0  0.51818  0.07356  0.44825  1.0000 -0.0983995901
C   C63       1.0  0.51894  0.06379  0.39232  1.0000 -0.1720994072
C   C64       1.0  0.59044  0.97599  0.38319  1.0000 0.0879398255
C   C65       1.0  0.68537  0.85228  0.34856  1.0000 0.0702592439
C   C66       1.0  0.56890  0.00346  0.27793  1.0000 -0.1896706813
C   C67       1.0  0.64574  0.10701  0.28136  1.0000 0.0789809354
C   C68       1.0  0.76411  0.09735  0.28249  1.0000 -0.1594233321
C   C69       1.0  0.83626  0.19286  0.28553  1.0000 -0.1408228608
C   C70       1.0  0.79208  0.29851  0.28717  1.0000 0.0789809354
C   C71       1.0  0.67098  0.31082  0.28514  1.0000 -0.1720994072
C   C72       1.0  0.59831  0.21534  0.28206  1.0000 -0.1499597014
C   C73       1.0  0.98451  0.50719  0.43814  1.0000 0.1191751518
C   C74       1.0  0.06249  0.50039  0.49561  1.0000 -0.199986148
C   C75       1.0  0.14987  0.41631  0.50953  1.0000 -0.1131108341
C   C76       1.0  0.15908  0.34209  0.46859  1.0000 -0.1131108341
C   C77       1.0  0.07972  0.34573  0.41063  1.0000 -0.1720994072
C   C78       1.0  0.99415  0.43197  0.39780  1.0000 0.0789809354
C   C79       1.0  0.84362  0.55484  0.35642  1.0000 0.0702592439
C   C80       1.0  0.86937  0.40404  0.28961  1.0000 -0.1720994072
C   C81       1.0  0.04876  0.87015  0.47009  1.0000 0.1299478743
C   C82       1.0  0.01508  0.90532  0.41336  1.0000 -0.1896706813
C   C83       1.0  0.09072  0.97930  0.40041  1.0000 -0.0983995901
C   C84       1.0  0.19818  0.01780  0.44283  1.0000 -0.0983995901
C   C85       1.0  0.23536  0.98593  0.49904  1.0000 -0.1896706813
C   C86       1.0  0.15903  0.90901  0.51232  1.0000 0.0789809354
C   C87       1.0  0.06491  0.79198  0.55077  1.0000 0.0789809354
C   C88       1.0  0.26889  0.86370  0.61915  1.0000 -0.1806570472
N   N1        1.0  0.75927  0.37014  0.00069  1.0000 -0.3500960905
N   N2        1.0  0.69640  0.42349  0.07089  1.0000 0.0030259233
N   N3        1.0  0.71741  0.17560  0.90383  1.0000 -0.3500960905
N   N4        1.0  0.61075  0.05684  0.83453  1.0000 0.0076484083
N   N5        1.0  0.88999  0.41454  0.91069  1.0000 -0.3500960905
N   N6        1.0  0.90164  0.53653  0.84552  1.0000 0.0076484083
N   N7        1.0  0.99115  0.20275  0.99632  1.0000 -0.3500960905
N   N8        1.0  0.16554  0.14388  0.06361  1.0000 0.0030259233
N   N9        1.0  0.75927  0.62986  0.50069  1.0000 -0.3500960905
N   N10       1.0  0.69640  0.57651  0.57089  1.0000 0.0030259233
N   N11       1.0  0.71741  0.82440  0.40383  1.0000 -0.3500960905
N   N12       1.0  0.61075  0.94316  0.33453  1.0000 0.0076484083
N   N13       1.0  0.88999  0.58546  0.41069  1.0000 -0.3500960905
N   N14       1.0  0.90164  0.46347  0.34552  1.0000 0.0076484083
N   N15       1.0  0.99115  0.79725  0.49632  1.0000 -0.3447653235
N   N16       1.0  0.16554  0.85612  0.56361  1.0000 0.0030259233
Cl  Cl1       1.0  0.21505  0.21871  0.28612  1.0000 1.1722182451
Cl  Cl2       1.0  0.21505  0.78129  0.78612  1.0000 1.1722182451
O   O1        1.0  0.29322  0.26200  0.33462  1.0000 -0.4315917374
O   O2        1.0  0.11460  0.28400  0.25559  1.0000 -0.4652889849
O   O3        1.0  0.15321  0.14270  0.30701  1.0000 -0.4068476589
O   O4        1.0  0.26843  0.17190  0.25426  1.0000 -0.4539092215
O   O5        1.0  0.29322  0.73800  0.83462  1.0000 -0.4315917374
O   O6        1.0  0.11460  0.71600  0.75559  1.0000 -0.4652889849
O   O7        1.0  0.15321  0.85730  0.80701  1.0000 -0.4068476589
O   O8        1.0  0.26843  0.82810  0.75426  1.0000 -0.4539092215
