# DDEC6 charges by PACMAN v1.1 (https://github.com/mtap-research/PACMAN-charge/)
data_2009[La][nan]3[ION]1
_chemical_formula_sum              "La2 H36 C28 N8 Cl4 O20"
_cell_length_a       12.4238
_cell_length_b       12.4238
_cell_length_c       8.9294
_cell_angle_alpha    73.1454
_cell_angle_beta     106.855
_cell_angle_gamma    98.0156

_symmetry_space_group_name_H-M    "P 1"
_symmetry_Int_Tables_number       1

loop_
  _symmetry_equiv_pos_as_xyz
  'x, y, z'

loop_
  _atom_site_type_symbol
  _atom_site_label
  _atom_site_symmetry_multiplicity
  _atom_site_fract_x
  _atom_site_fract_y
  _atom_site_fract_z
  _atom_site_occupancy
  _atom_site_charge
La  La1       1.0  0.47207  0.47207  0.75000  1.0000 1.901264677
La  La2       1.0  0.52793  0.52793  0.25000  1.0000 1.901264677
H   H1        1.0  0.56700  0.68100  0.55500  1.0000 0.3709099983
H   H2        1.0  0.68100  0.56700  0.94500  1.0000 0.3709099983
H   H3        1.0  0.43300  0.31900  0.44500  1.0000 0.3709099983
H   H4        1.0  0.31900  0.43300  0.05500  1.0000 0.3709099983
H   H5        1.0  0.57500  0.70700  0.70000  1.0000 0.3246106898
H   H6        1.0  0.70700  0.57500  0.80000  1.0000 0.3246106898
H   H7        1.0  0.42500  0.29300  0.30000  1.0000 0.3246106898
H   H8        1.0  0.29300  0.42500  0.20000  1.0000 0.3246106898
H   H9        1.0  0.38240  0.15820  0.90610  1.0000 0.1629127805
H   H10       1.0  0.15820  0.38240  0.59390  1.0000 0.1629127805
H   H11       1.0  0.61760  0.84180  0.09390  1.0000 0.1629127805
H   H12       1.0  0.84180  0.61760  0.40610  1.0000 0.1629127805
H   H13       1.0  0.46750  0.13190  0.81830  1.0000 0.1496340429
H   H14       1.0  0.13190  0.46750  0.68170  1.0000 0.1496340429
H   H15       1.0  0.53250  0.86810  0.18170  1.0000 0.1496340429
H   H16       1.0  0.86810  0.53250  0.31830  1.0000 0.1496340429
H   H17       1.0  0.19360  0.01620  0.90890  1.0000 0.1496340429
H   H18       1.0  0.01620  0.19360  0.59110  1.0000 0.1496340429
H   H19       1.0  0.80640  0.98380  0.09110  1.0000 0.1496340429
H   H20       1.0  0.98380  0.80640  0.40890  1.0000 0.1496340429
H   H21       1.0  0.15410  0.82050  0.87870  1.0000 0.1496340429
H   H22       1.0  0.82050  0.15410  0.62130  1.0000 0.1496340429
H   H23       1.0  0.84590  0.17950  0.12130  1.0000 0.1496340429
H   H24       1.0  0.17950  0.84590  0.37870  1.0000 0.1496340429
H   H25       1.0  0.43630  0.94810  0.74210  1.0000 0.1382367407
H   H26       1.0  0.94810  0.43630  0.75790  1.0000 0.1382367407
H   H27       1.0  0.56370  0.05190  0.25790  1.0000 0.1382367407
H   H28       1.0  0.05190  0.56370  0.24210  1.0000 0.1382367407
H   H29       1.0  0.24940  0.69780  0.75530  1.0000 0.1684729253
H   H30       1.0  0.69780  0.24940  0.74470  1.0000 0.1684729253
H   H31       1.0  0.75060  0.30220  0.24470  1.0000 0.1684729253
H   H32       1.0  0.30220  0.75060  0.25530  1.0000 0.1684729253
H   H33       1.0  0.35210  0.75870  0.68140  1.0000 0.1684729253
H   H34       1.0  0.75870  0.35210  0.81860  1.0000 0.1684729253
H   H35       1.0  0.64790  0.24130  0.31860  1.0000 0.1684729253
H   H36       1.0  0.24130  0.64790  0.18140  1.0000 0.1684729253
C   C1        1.0  0.33000  0.21640  0.65530  1.0000 0.6453156566
C   C2        1.0  0.21640  0.33000  0.84470  1.0000 0.6453156566
C   C3        1.0  0.67000  0.78360  0.34470  1.0000 0.6453156566
C   C4        1.0  0.78360  0.67000  0.15530  1.0000 0.6453156566
C   C5        1.0  0.38690  0.13290  0.81270  1.0000 -0.2683676536
C   C6        1.0  0.13290  0.38690  0.68730  1.0000 -0.2683676536
C   C7        1.0  0.61310  0.86710  0.18730  1.0000 -0.2683676536
C   C8        1.0  0.86710  0.61310  0.31270  1.0000 -0.2683676536
C   C9        1.0  0.23710  0.97750  0.87180  1.0000 -0.0696693639
C   C10       1.0  0.97750  0.23710  0.62820  1.0000 -0.0696693639
C   C11       1.0  0.76290  0.02250  0.12820  1.0000 -0.0696693639
C   C12       1.0  0.02250  0.76290  0.37180  1.0000 -0.0696693639
C   C13       1.0  0.21540  0.87100  0.85500  1.0000 -0.0910209025
C   C14       1.0  0.87100  0.21540  0.64500  1.0000 -0.0910209025
C   C15       1.0  0.78460  0.12900  0.14500  1.0000 -0.0910209025
C   C16       1.0  0.12900  0.78460  0.35500  1.0000 -0.0910209025
C   C17       1.0  0.37080  0.94080  0.77970  1.0000 0.0669539591
C   C18       1.0  0.94080  0.37080  0.72030  1.0000 0.0669539591
C   C19       1.0  0.62920  0.05920  0.22030  1.0000 0.0669539591
C   C20       1.0  0.05920  0.62920  0.27970  1.0000 0.0669539591
C   C21       1.0  0.32110  0.74390  0.77630  1.0000 -0.2683676536
C   C22       1.0  0.74390  0.32110  0.72370  1.0000 -0.2683676536
C   C23       1.0  0.67890  0.25610  0.22370  1.0000 -0.2683676536
C   C24       1.0  0.25610  0.67890  0.27630  1.0000 -0.2683676536
C   C25       1.0  0.40380  0.67880  0.92680  1.0000 0.6410458778
C   C26       1.0  0.67880  0.40380  0.57320  1.0000 0.6410458778
C   C27       1.0  0.59620  0.32120  0.07320  1.0000 0.6410458778
C   C28       1.0  0.32120  0.59620  0.42680  1.0000 0.6410458778
N   N1        1.0  0.33430  0.01870  0.82450  1.0000 0.0967156013
N   N2        1.0  0.01870  0.33430  0.67550  1.0000 0.0967156013
N   N3        1.0  0.66570  0.98130  0.17550  1.0000 0.0967156013
N   N4        1.0  0.98130  0.66570  0.32450  1.0000 0.0967156013
N   N5        1.0  0.29950  0.85050  0.79680  1.0000 0.0845454951
N   N6        1.0  0.85050  0.29950  0.70320  1.0000 0.0845454951
N   N7        1.0  0.70050  0.14950  0.20320  1.0000 0.0845454951
N   N8        1.0  0.14950  0.70050  0.29680  1.0000 0.0845454951
Cl  Cl1       1.0  0.15990  0.37010  0.30390  1.0000 -0.5823744441
Cl  Cl2       1.0  0.37010  0.15990  0.19610  1.0000 -0.5823744441
Cl  Cl3       1.0  0.84010  0.62990  0.69610  1.0000 -0.5823744441
Cl  Cl4       1.0  0.62990  0.84010  0.80390  1.0000 -0.5823744441
O   O1        1.0  0.37881  0.31301  0.62980  1.0000 -0.6178999151
O   O2        1.0  0.31301  0.37881  0.87020  1.0000 -0.6178999151
O   O3        1.0  0.62119  0.68699  0.37020  1.0000 -0.6178999151
O   O4        1.0  0.68699  0.62119  0.12980  1.0000 -0.6178999151
O   O5        1.0  0.24020  0.18700  0.56730  1.0000 -0.4859153609
O   O6        1.0  0.18700  0.24020  0.93270  1.0000 -0.4859153609
O   O7        1.0  0.75980  0.81300  0.43270  1.0000 -0.4859153609
O   O8        1.0  0.81300  0.75980  0.06730  1.0000 -0.4859153609
O   O9        1.0  0.44538  0.59618  0.91260  1.0000 -0.6178999151
O   O10       1.0  0.59618  0.44538  0.58740  1.0000 -0.6178999151
O   O11       1.0  0.55462  0.40382  0.08740  1.0000 -0.6178999151
O   O12       1.0  0.40382  0.55462  0.41260  1.0000 -0.6178999151
O   O13       1.0  0.42546  0.70554  0.05570  1.0000 -0.5490002538
O   O14       1.0  0.70554  0.42546  0.44430  1.0000 -0.5490002538
O   O15       1.0  0.57454  0.29446  0.94430  1.0000 -0.5490002538
O   O16       1.0  0.29446  0.57454  0.55570  1.0000 -0.5490002538
O   O17       1.0  0.53110  0.68330  0.62310  1.0000 -0.7172116543
O   O18       1.0  0.68330  0.53110  0.87690  1.0000 -0.7172116543
O   O19       1.0  0.46890  0.31670  0.37690  1.0000 -0.7172116543
O   O20       1.0  0.31670  0.46890  0.12310  1.0000 -0.7172116543
