# DDEC6 charges by PACMAN v1.1 (https://github.com/mtap-research/PACMAN-charge/)
data_2009[Cu][dia]2[ION]1
_chemical_formula_sum              "Cu4 H80 C104 N12 Cl2 O28"
_cell_length_a       18.4109
_cell_length_b       18.4109
_cell_length_c       18.4109
_cell_angle_alpha    137.536
_cell_angle_beta     137.536
_cell_angle_gamma    61.6151

_symmetry_space_group_name_H-M    "P 1"
_symmetry_Int_Tables_number       1

loop_
  _symmetry_equiv_pos_as_xyz
  'x, y, z'

loop_
  _atom_site_type_symbol
  _atom_site_label
  _atom_site_symmetry_multiplicity
  _atom_site_fract_x
  _atom_site_fract_y
  _atom_site_fract_z
  _atom_site_occupancy
  _atom_site_charge
Cu  Cu1       1.0  0.54555  0.54555  0.00000  1.0000 0.8277404346
Cu  Cu2       1.0  0.45445  0.45445  0.00000  1.0000 0.8277404346
Cu  Cu3       1.0  0.20445  0.70445  0.50000  1.0000 0.8277404346
Cu  Cu4       1.0  0.29555  0.79555  0.50000  1.0000 0.8277404346
H   H1        1.0  0.51680  0.25290  0.62910  1.0000 0.1189737829
H   H2        1.0  0.74710  0.37620  0.26390  1.0000 0.1189737829
H   H3        1.0  0.62380  0.88770  0.37090  1.0000 0.1189737829
H   H4        1.0  0.11230  0.48320  0.73610  1.0000 0.1189737829
H   H5        1.0  0.23320  0.36230  0.23610  1.0000 0.1189737829
H   H6        1.0  0.12620  0.99710  0.76390  1.0000 0.1189737829
H   H7        1.0  0.63770  0.87380  0.87090  1.0000 0.1189737829
H   H8        1.0  0.00290  0.76680  0.12910  1.0000 0.1189737829
H   H9        1.0  0.46350  0.08620  0.40950  1.0000 0.1189737829
H   H10       1.0  0.91380  0.32330  0.37730  1.0000 0.1189737829
H   H11       1.0  0.67670  0.05400  0.59050  1.0000 0.1189737829
H   H12       1.0  0.94600  0.53650  0.62270  1.0000 0.1189737829
H   H13       1.0  0.28650  0.19600  0.12270  1.0000 0.1189737829
H   H14       1.0  0.07330  0.16380  0.87730  1.0000 0.1189737829
H   H15       1.0  0.80400  0.92670  0.09050  1.0000 0.1189737829
H   H16       1.0  0.83620  0.71350  0.90950  1.0000 0.1189737829
H   H17       1.0  0.22370  0.01520  0.32670  1.0000 0.1189737829
H   H18       1.0  0.98480  0.31150  0.20850  1.0000 0.1189737829
H   H19       1.0  0.68850  0.89700  0.67330  1.0000 0.1189737829
H   H20       1.0  0.10300  0.77630  0.79150  1.0000 0.1189737829
H   H21       1.0  0.52630  0.35300  0.29150  1.0000 0.1189737829
H   H22       1.0  0.06150  0.23480  0.70850  1.0000 0.1189737829
H   H23       1.0  0.64700  0.93850  0.17330  1.0000 0.1189737829
H   H24       1.0  0.76520  0.47370  0.82670  1.0000 0.1189737829
H   H25       1.0  0.28730  0.17360  0.55270  1.0000 0.1189737829
H   H26       1.0  0.82640  0.37910  0.11370  1.0000 0.1189737829
H   H27       1.0  0.62090  0.73460  0.44730  1.0000 0.1189737829
H   H28       1.0  0.26540  0.71270  0.88630  1.0000 0.1189737829
H   H29       1.0  0.46270  0.51540  0.38630  1.0000 0.1189737829
H   H30       1.0  0.12910  0.07640  0.61370  1.0000 0.1189737829
H   H31       1.0  0.48460  0.87090  0.94730  1.0000 0.1189737829
H   H32       1.0  0.92360  0.53730  0.05270  1.0000 0.1189737829
H   H33       1.0  0.23990  0.94520  0.13370  1.0000 0.1369647868
H   H34       1.0  0.05480  0.18850  0.29470  1.0000 0.1369647868
H   H35       1.0  0.81150  0.10620  0.86630  1.0000 0.1369647868
H   H36       1.0  0.89380  0.76010  0.70530  1.0000 0.1369647868
H   H37       1.0  0.51010  0.14380  0.20530  1.0000 0.1369647868
H   H38       1.0  0.93850  0.30480  0.79470  1.0000 0.1369647868
H   H39       1.0  0.85620  0.06150  0.36630  1.0000 0.1369647868
H   H40       1.0  0.69520  0.48990  0.63370  1.0000 0.1369647868
H   H41       1.0  0.35690  0.91270  0.19900  1.0000 0.1316445805
H   H42       1.0  0.08730  0.28630  0.44420  1.0000 0.1316445805
H   H43       1.0  0.71370  0.15790  0.80100  1.0000 0.1316445805
H   H44       1.0  0.84210  0.64310  0.55580  1.0000 0.1316445805
H   H45       1.0  0.39310  0.09210  0.05580  1.0000 0.1316445805
H   H46       1.0  0.03630  0.33730  0.94420  1.0000 0.1316445805
H   H47       1.0  0.90790  0.96370  0.30100  1.0000 0.1316445805
H   H48       1.0  0.66270  0.60690  0.69900  1.0000 0.1316445805
H   H49       1.0  0.40340  0.80720  0.25860  1.0000 0.1189737829
H   H50       1.0  0.19280  0.45140  0.59620  1.0000 0.1189737829
H   H51       1.0  0.54860  0.14480  0.74140  1.0000 0.1189737829
H   H52       1.0  0.85520  0.59660  0.40380  1.0000 0.1189737829
H   H53       1.0  0.34660  0.10520  0.90380  1.0000 0.1189737829
H   H54       1.0  0.20140  0.44280  0.09620  1.0000 0.1189737829
H   H55       1.0  0.89480  0.79860  0.24140  1.0000 0.1189737829
H   H56       1.0  0.55720  0.65340  0.75860  1.0000 0.1189737829
H   H57       1.0  0.34560  0.66260  0.18560  1.0000 0.1455366202
H   H58       1.0  0.33740  0.52300  0.68300  1.0000 0.1455366202
H   H59       1.0  0.47700  0.16000  0.81440  1.0000 0.1455366202
H   H60       1.0  0.84000  0.65440  0.31700  1.0000 0.1455366202
H   H61       1.0  0.40440  0.09000  0.81700  1.0000 0.1455366202
H   H62       1.0  0.27300  0.58740  0.18300  1.0000 0.1455366202
H   H63       1.0  0.91000  0.72700  0.31440  1.0000 0.1455366202
H   H64       1.0  0.41260  0.59560  0.68560  1.0000 0.1455366202
H   H65       1.0  0.03760  0.71400  0.96200  1.0000 0.1369647868
H   H66       1.0  0.28600  0.24800  0.32360  1.0000 0.1369647868
H   H67       1.0  0.75200  0.07560  0.03800  1.0000 0.1369647868
H   H68       1.0  0.92440  0.96240  0.67640  1.0000 0.1369647868
H   H69       1.0  0.71240  0.17440  0.17640  1.0000 0.1369647868
H   H70       1.0  0.99800  0.53600  0.82360  1.0000 0.1369647868
H   H71       1.0  0.82560  0.00200  0.53800  1.0000 0.1369647868
H   H72       1.0  0.46400  0.28760  0.46200  1.0000 0.1369647868
H   H73       1.0  0.10280  0.85240  0.03320  1.0000 0.1189737829
H   H74       1.0  0.14760  0.18080  0.25040  1.0000 0.1189737829
H   H75       1.0  0.81920  0.06960  0.96680  1.0000 0.1189737829
H   H76       1.0  0.93040  0.89720  0.74960  1.0000 0.1189737829
H   H77       1.0  0.64720  0.18040  0.24960  1.0000 0.1189737829
H   H78       1.0  0.93080  0.39760  0.75040  1.0000 0.1189737829
H   H79       1.0  0.81960  0.06920  0.46680  1.0000 0.1189737829
H   H80       1.0  0.60240  0.35280  0.53320  1.0000 0.1189737829
C   C1        1.0  0.44618  0.33318  0.75840  1.0000 0.5547734387
C   C2        1.0  0.66682  0.42522  0.11300  1.0000 0.5547734387
C   C3        1.0  0.57478  0.68778  0.24160  1.0000 0.5547734387
C   C4        1.0  0.31222  0.55382  0.88700  1.0000 0.5547734387
C   C5        1.0  0.30382  0.56222  0.38700  1.0000 0.5547734387
C   C6        1.0  0.17522  0.91682  0.61300  1.0000 0.5547734387
C   C7        1.0  0.43778  0.82478  0.74160  1.0000 0.5547734387
C   C8        1.0  0.08318  0.69618  0.25840  1.0000 0.5547734387
C   C9        1.0  0.40844  0.23024  0.61460  1.0000 -0.0504132248
C   C10       1.0  0.76976  0.38436  0.17820  1.0000 -0.0504132248
C   C11       1.0  0.61564  0.79384  0.38540  1.0000 -0.0504132248
C   C12       1.0  0.20616  0.59156  0.82180  1.0000 -0.0504132248
C   C13       1.0  0.34156  0.45616  0.32180  1.0000 -0.0504132248
C   C14       1.0  0.13436  0.01976  0.67820  1.0000 -0.0504132248
C   C15       1.0  0.54384  0.86564  0.88540  1.0000 -0.0504132248
C   C16       1.0  0.98024  0.65844  0.11460  1.0000 -0.0504132248
C   C17       1.0  0.45974  0.20414  0.57000  1.0000 -0.122925262
C   C18       1.0  0.79586  0.36586  0.25560  1.0000 -0.122925262
C   C19       1.0  0.63414  0.88974  0.43000  1.0000 -0.122925262
C   C20       1.0  0.11026  0.54026  0.74440  1.0000 -0.122925262
C   C21       1.0  0.29026  0.36026  0.24440  1.0000 -0.122925262
C   C22       1.0  0.11586  0.04586  0.75560  1.0000 -0.122925262
C   C23       1.0  0.63974  0.88414  0.93000  1.0000 -0.122925262
C   C24       1.0  0.95414  0.70974  0.07000  1.0000 -0.122925262
C   C25       1.0  0.42624  0.10474  0.43650  1.0000 -0.1825158559
C   C26       1.0  0.89526  0.33176  0.32150  1.0000 -0.1825158559
C   C27       1.0  0.66824  0.98974  0.56350  1.0000 -0.1825158559
C   C28       1.0  0.01026  0.57376  0.67850  1.0000 -0.1825158559
C   C29       1.0  0.32376  0.26026  0.17850  1.0000 -0.1825158559
C   C30       1.0  0.08176  0.14526  0.82150  1.0000 -0.1825158559
C   C31       1.0  0.73974  0.91824  0.06350  1.0000 -0.1825158559
C   C32       1.0  0.85474  0.67624  0.93650  1.0000 -0.1825158559
C   C33       1.0  0.33804  0.03464  0.34560  1.0000 0.1040853569
C   C34       1.0  0.96536  0.31096  0.30340  1.0000 0.1040853569
C   C35       1.0  0.68904  0.99244  0.65440  1.0000 0.1040853569
C   C36       1.0  0.00756  0.66196  0.69660  1.0000 0.1040853569
C   C37       1.0  0.41196  0.25756  0.19660  1.0000 0.1040853569
C   C38       1.0  0.06096  0.21536  0.80340  1.0000 0.1040853569
C   C39       1.0  0.74244  0.93904  0.15440  1.0000 0.1040853569
C   C40       1.0  0.78464  0.58804  0.84560  1.0000 0.1040853569
C   C41       1.0  0.28417  0.06157  0.38840  1.0000 -0.1627137996
C   C42       1.0  0.93843  0.32683  0.22260  1.0000 -0.1627137996
C   C43       1.0  0.67317  0.89577  0.61160  1.0000 -0.1627137996
C   C44       1.0  0.10423  0.71583  0.77740  1.0000 -0.1627137996
C   C45       1.0  0.46583  0.35423  0.27740  1.0000 -0.1627137996
C   C46       1.0  0.07683  0.18843  0.72260  1.0000 -0.1627137996
C   C47       1.0  0.64577  0.92317  0.11160  1.0000 -0.1627137996
C   C48       1.0  0.81157  0.53417  0.88840  1.0000 -0.1627137996
C   C49       1.0  0.32130  0.15760  0.52310  1.0000 -0.1061113756
C   C50       1.0  0.84240  0.36550  0.16370  1.0000 -0.1061113756
C   C51       1.0  0.63450  0.79820  0.47690  1.0000 -0.1061113756
C   C52       1.0  0.20180  0.67870  0.83630  1.0000 -0.1061113756
C   C53       1.0  0.42870  0.45180  0.33630  1.0000 -0.1061113756
C   C54       1.0  0.11550  0.09240  0.66370  1.0000 -0.1061113756
C   C55       1.0  0.54820  0.88450  0.97690  1.0000 -0.1061113756
C   C56       1.0  0.90760  0.57130  0.02310  1.0000 -0.1061113756
C   C57       1.0  0.29802  0.93222  0.19940  1.0000 -0.2009128201
C   C58       1.0  0.06778  0.26718  0.36580  1.0000 -0.2009128201
C   C59       1.0  0.73282  0.09862  0.80060  1.0000 -0.2009128201
C   C60       1.0  0.90138  0.70198  0.63420  1.0000 -0.2009128201
C   C61       1.0  0.45198  0.15138  0.13420  1.0000 -0.2009128201
C   C62       1.0  0.01718  0.31778  0.86580  1.0000 -0.2009128201
C   C63       1.0  0.84862  0.98282  0.30060  1.0000 -0.2009128201
C   C64       1.0  0.68222  0.54802  0.69940  1.0000 -0.2009128201
C   C65       1.0  0.32930  0.78640  0.19690  1.0000 0.0402819109
C   C66       1.0  0.21360  0.41050  0.54290  1.0000 0.0402819109
C   C67       1.0  0.58950  0.13240  0.80310  1.0000 0.0402819109
C   C68       1.0  0.86760  0.67070  0.45710  1.0000 0.0402819109
C   C69       1.0  0.42070  0.11760  0.95710  1.0000 0.0402819109
C   C70       1.0  0.16050  0.46360  0.04290  1.0000 0.0402819109
C   C71       1.0  0.88240  0.83950  0.30310  1.0000 0.0402819109
C   C72       1.0  0.53640  0.57930  0.69690  1.0000 0.0402819109
C   C73       1.0  0.29530  0.70060  0.15470  1.0000 -0.1712010782
C   C74       1.0  0.29940  0.45410  0.59470  1.0000 -0.1712010782
C   C75       1.0  0.54590  0.14060  0.84530  1.0000 -0.1712010782
C   C76       1.0  0.85940  0.70470  0.40530  1.0000 -0.1712010782
C   C77       1.0  0.45470  0.10940  0.90530  1.0000 -0.1712010782
C   C78       1.0  0.20410  0.54940  0.09470  1.0000 -0.1712010782
C   C79       1.0  0.89060  0.79590  0.34530  1.0000 -0.1712010782
C   C80       1.0  0.45060  0.54530  0.65470  1.0000 -0.1712010782
C   C81       1.0  0.18490  0.67190  0.06540  1.0000 0.1113566048
C   C82       1.0  0.32810  0.39350  0.51300  1.0000 0.1113566048
C   C83       1.0  0.60650  0.11950  0.93460  1.0000 0.1113566048
C   C84       1.0  0.88050  0.81510  0.48700  1.0000 0.1113566048
C   C85       1.0  0.56510  0.13050  0.98700  1.0000 0.1113566048
C   C86       1.0  0.14350  0.57810  0.01300  1.0000 0.1113566048
C   C87       1.0  0.86950  0.85650  0.43460  1.0000 0.1113566048
C   C88       1.0  0.42190  0.43490  0.56540  1.0000 0.1113566048
C   C89       1.0  0.11196  0.73086  0.02070  1.0000 -0.1935842149
C   C90       1.0  0.26914  0.28984  0.38110  1.0000 -0.1935842149
C   C91       1.0  0.71016  0.09126  0.97930  1.0000 -0.1935842149
C   C92       1.0  0.90874  0.88804  0.61890  1.0000 -0.1935842149
C   C93       1.0  0.63804  0.15874  0.11890  1.0000 -0.1935842149
C   C94       1.0  0.03984  0.51914  0.88110  1.0000 -0.1935842149
C   C95       1.0  0.84126  0.96016  0.47930  1.0000 -0.1935842149
C   C96       1.0  0.48086  0.36196  0.52070  1.0000 -0.1935842149
C   C97       1.0  0.15112  0.81402  0.06430  1.0000 0.0402819109
C   C98       1.0  0.18598  0.25028  0.33710  1.0000 0.0402819109
C   C99       1.0  0.74972  0.08682  0.93570  1.0000 0.0402819109
C   C100      1.0  0.91318  0.84888  0.66290  1.0000 0.0402819109
C   C101      1.0  0.59888  0.16318  0.16290  1.0000 0.0402819109
C   C102      1.0  0.00028  0.43598  0.83710  1.0000 0.0402819109
C   C103      1.0  0.83682  0.99972  0.43570  1.0000 0.0402819109
C   C104      1.0  0.56402  0.40112  0.56430  1.0000 0.0402819109
N   N1        1.0  0.63457  0.63457  0.00000  1.0000 0.5587146915
N   N2        1.0  0.36543  0.36543  0.00000  1.0000 0.5587146915
N   N3        1.0  0.11543  0.61543  0.50000  1.0000 0.5587146915
N   N4        1.0  0.38457  0.88457  0.50000  1.0000 0.5587146915
N   N5        1.0  0.25757  0.84027  0.15070  1.0000 0.0811927803
N   N6        1.0  0.15973  0.31043  0.41730  1.0000 0.0811927803
N   N7        1.0  0.68957  0.10687  0.84930  1.0000 0.0811927803
N   N8        1.0  0.89313  0.74243  0.58270  1.0000 0.0811927803
N   N9        1.0  0.49243  0.14313  0.08270  1.0000 0.0811927803
N   N10       1.0  0.06043  0.40973  0.91730  1.0000 0.0811927803
N   N11       1.0  0.85687  0.93957  0.34930  1.0000 0.0811927803
N   N12       1.0  0.59027  0.50757  0.65070  1.0000 0.0811927803
Cl  Cl1       1.0  0.75000  0.25000  0.50000  1.0000 -0.7300942503
Cl  Cl2       1.0  0.00000  0.00000  0.00000  1.0000 -0.7300942503
O   O1        1.0  0.49778  0.40988  0.81630  1.0000 -0.5180398785
O   O2        1.0  0.59012  0.40642  0.08790  1.0000 -0.5180398785
O   O3        1.0  0.59358  0.68148  0.18370  1.0000 -0.5180398785
O   O4        1.0  0.31852  0.50222  0.91210  1.0000 -0.5180398785
O   O5        1.0  0.25222  0.56852  0.41210  1.0000 -0.5180398785
O   O6        1.0  0.15642  0.84012  0.58790  1.0000 -0.5180398785
O   O7        1.0  0.43148  0.84358  0.68370  1.0000 -0.5180398785
O   O8        1.0  0.15988  0.74778  0.31630  1.0000 -0.5180398785
O   O9        1.0  0.42430  0.33570  0.81120  1.0000 -0.5474377833
O   O10       1.0  0.66430  0.47550  0.08860  1.0000 -0.5474377833
O   O11       1.0  0.52450  0.61310  0.18880  1.0000 -0.5474377833
O   O12       1.0  0.38690  0.57570  0.91140  1.0000 -0.5474377833
O   O13       1.0  0.32570  0.63690  0.41140  1.0000 -0.5474377833
O   O14       1.0  0.22550  0.91430  0.58860  1.0000 -0.5474377833
O   O15       1.0  0.36310  0.77450  0.68880  1.0000 -0.5474377833
O   O16       1.0  0.08570  0.67430  0.31120  1.0000 -0.5474377833
O   O17       1.0  0.67880  0.59110  0.04430  1.0000 -0.2776561156
O   O18       1.0  0.40890  0.45320  0.08770  1.0000 -0.2776561156
O   O19       1.0  0.54680  0.63450  0.95570  1.0000 -0.2776561156
O   O20       1.0  0.36550  0.32120  0.91230  1.0000 -0.2776561156
O   O21       1.0  0.07120  0.61550  0.41230  1.0000 -0.2776561156
O   O22       1.0  0.20320  0.65890  0.58770  1.0000 -0.2776561156
O   O23       1.0  0.38450  0.79680  0.45570  1.0000 -0.2776561156
O   O24       1.0  0.34110  0.92880  0.54430  1.0000 -0.2776561156
O   O25       1.0  0.67237  0.67237  0.00000  1.0000 -0.3482361324
O   O26       1.0  0.32763  0.32763  0.00000  1.0000 -0.3482361324
O   O27       1.0  0.07763  0.57763  0.50000  1.0000 -0.3482361324
O   O28       1.0  0.42237  0.92237  0.50000  1.0000 -0.3482361324
