# DDEC6 charges by PACMAN v1.1 (https://github.com/mtap-research/PACMAN-charge/)
data_2009[In][neb]3[ION]1
_chemical_formula_sum              "In4 H20 C20 N4 O32"
_cell_length_a       17.4816
_cell_length_b       16.1728
_cell_length_c       9.0311
_cell_angle_alpha    82.6217
_cell_angle_beta     66.5593
_cell_angle_gamma    30.819

_symmetry_space_group_name_H-M    "P 1"
_symmetry_Int_Tables_number       1

loop_
  _symmetry_equiv_pos_as_xyz
  'x, y, z'

loop_
  _atom_site_type_symbol
  _atom_site_label
  _atom_site_symmetry_multiplicity
  _atom_site_fract_x
  _atom_site_fract_y
  _atom_site_fract_z
  _atom_site_occupancy
  _atom_site_charge
In  In1       1.0  0.99572  0.63366  0.03166  1.0000 1.3782486199
In  In2       1.0  0.33896  0.03166  0.63366  1.0000 1.3782486199
In  In3       1.0  0.61634  0.25428  0.91104  1.0000 1.3782486199
In  In4       1.0  0.21834  0.91104  0.25428  1.0000 1.3782486199
H   H1        1.0  0.37860  0.58620  0.45880  1.0000 0.1055234233
H   H2        1.0  0.57640  0.45880  0.58620  1.0000 0.1055234233
H   H3        1.0  0.34120  0.58600  0.64760  1.0000 0.1241724072
H   H4        1.0  0.42520  0.64760  0.58600  1.0000 0.1241724072
H   H5        1.0  0.65710  0.26030  0.44990  1.0000 0.2712169318
H   H6        1.0  0.63270  0.44990  0.26030  1.0000 0.2712169318
H   H7        1.0  0.50880  0.33880  0.49800  1.0000 0.283548343
H   H8        1.0  0.65440  0.49800  0.33880  1.0000 0.283548343
H   H9        1.0  0.60560  0.30360  0.32440  1.0000 0.2712169318
H   H10       1.0  0.76640  0.32440  0.30360  1.0000 0.2712169318
H   H11       1.0  0.66380  0.87140  0.67360  1.0000 0.1055234233
H   H12       1.0  0.79120  0.67360  0.87140  1.0000 0.1055234233
H   H13       1.0  0.66400  0.90880  0.82480  1.0000 0.1241724072
H   H14       1.0  0.60240  0.82480  0.90880  1.0000 0.1241724072
H   H15       1.0  0.98970  0.59290  0.61730  1.0000 0.2712169318
H   H16       1.0  0.80010  0.61730  0.59290  1.0000 0.2712169318
H   H17       1.0  0.91120  0.74120  0.59560  1.0000 0.283548343
H   H18       1.0  0.75200  0.59560  0.74120  1.0000 0.283548343
H   H19       1.0  0.94640  0.64440  0.48360  1.0000 0.2712169318
H   H20       1.0  0.92560  0.48360  0.64440  1.0000 0.2712169318
C   C1        1.0  0.13603  0.36623  0.79717  1.0000 0.4632576062
C   C2        1.0  0.70057  0.79717  0.36623  1.0000 0.4632576062
C   C3        1.0  0.88377  0.11397  0.54943  1.0000 0.4632576062
C   C4        1.0  0.45283  0.54943  0.11397  1.0000 0.4632576062
C   C5        1.0  0.22522  0.26582  0.89878  1.0000 0.4682393065
C   C6        1.0  0.61018  0.89878  0.26582  1.0000 0.4682393065
C   C7        1.0  0.98418  0.02478  0.63982  1.0000 0.4682393065
C   C8        1.0  0.35122  0.63982  0.02478  1.0000 0.4682393065
C   C9        1.0  0.35269  0.39849  0.87291  1.0000 0.4682393065
C   C10       1.0  0.37591  0.87291  0.39849  1.0000 0.4682393065
C   C11       1.0  0.85151  0.89731  0.87409  1.0000 0.4682393065
C   C12       1.0  0.37709  0.87409  0.89731  1.0000 0.4682393065
C   C13       1.0  0.27085  0.46205  0.07715  1.0000 0.4776397525
C   C14       1.0  0.18995  0.07715  0.46205  1.0000 0.4776397525
C   C15       1.0  0.78795  0.97915  0.06005  1.0000 0.4776397525
C   C16       1.0  0.17285  0.06005  0.97915  1.0000 0.4776397525
C   C17       1.0  0.43560  0.52140  0.52320  1.0000 -0.0722476905
C   C18       1.0  0.51980  0.52320  0.52140  1.0000 -0.0722476905
C   C19       1.0  0.72860  0.81440  0.73020  1.0000 -0.0722476905
C   C20       1.0  0.72680  0.73020  0.81440  1.0000 -0.0722476905
N   N1        1.0  0.56467  0.33767  0.44073  1.0000 -0.3785217526
N   N2        1.0  0.65693  0.44073  0.33767  1.0000 -0.3785217526
N   N3        1.0  0.91233  0.68533  0.59307  1.0000 -0.3785217526
N   N4        1.0  0.80927  0.59307  0.68533  1.0000 -0.3785217526
O   O1        1.0  0.04585  0.51143  0.82517  1.0000 -0.4681327017
O   O2        1.0  0.61755  0.82517  0.51143  1.0000 -0.4681327017
O   O3        1.0  0.73857  0.20415  0.63245  1.0000 -0.4681327017
O   O4        1.0  0.42483  0.63245  0.20415  1.0000 -0.4681327017
O   O5        1.0  0.19526  0.34196  0.00804  1.0000 -0.491486477
O   O6        1.0  0.45474  0.00804  0.34196  1.0000 -0.491486477
O   O7        1.0  0.90804  0.05474  0.79526  1.0000 -0.491486477
O   O8        1.0  0.24196  0.79526  0.05474  1.0000 -0.491486477
O   O9        1.0  0.25814  0.45830  0.82490  1.0000 -0.491486477
O   O10       1.0  0.45866  0.82490  0.45830  1.0000 -0.491486477
O   O11       1.0  0.79170  0.99186  0.79134  1.0000 -0.491486477
O   O12       1.0  0.42510  0.79134  0.99186  1.0000 -0.491486477
O   O13       1.0  0.11963  0.56383  0.17877  1.0000 -0.4681327017
O   O14       1.0  0.13777  0.17877  0.56383  1.0000 -0.4681327017
O   O15       1.0  0.68617  0.13037  0.11223  1.0000 -0.4649894359
O   O16       1.0  0.07123  0.11223  0.13037  1.0000 -0.4649894359
O   O17       1.0  0.15687  0.29851  0.68929  1.0000 -0.4791593226
O   O18       1.0  0.85533  0.68929  0.29851  1.0000 -0.4791593226
O   O19       1.0  0.95149  0.09313  0.39467  1.0000 -0.4791593226
O   O20       1.0  0.56071  0.39467  0.09313  1.0000 -0.4791593226
O   O21       1.0  0.32001  0.11711  0.86049  1.0000 -0.491486477
O   O22       1.0  0.70239  0.86049  0.11711  1.0000 -0.491486477
O   O23       1.0  0.13289  0.92999  0.54761  1.0000 -0.491486477
O   O24       1.0  0.38951  0.54761  0.92999  1.0000 -0.491486477
O   O25       1.0  0.50745  0.29109  0.76931  1.0000 -0.4649894359
O   O26       1.0  0.43215  0.76931  0.29109  1.0000 -0.4649894359
O   O27       1.0  0.95891  0.74255  0.81785  1.0000 -0.4681327017
O   O28       1.0  0.48069  0.81785  0.74255  1.0000 -0.4681327017
O   O29       1.0  0.36778  0.40218  0.12282  1.0000 -0.5056595923
O   O30       1.0  0.10722  0.12282  0.40218  1.0000 -0.5056595923
O   O31       1.0  0.84782  0.88222  0.14278  1.0000 -0.5056595923
O   O32       1.0  0.12718  0.14278  0.88222  1.0000 -0.5056595923
