# DDEC6 charges by PACMAN v1.1 (https://github.com/mtap-research/PACMAN-charge/)
data_2009[LiCd][nan]3[ION]1
_chemical_formula_sum              "Li2 Cd2 H40 C40 N2 O16"
_cell_length_a       17.6921
_cell_length_b       17.6921
_cell_length_c       10.3821
_cell_angle_alpha    87.7213
_cell_angle_beta     92.2787
_cell_angle_gamma    21.47

_symmetry_space_group_name_H-M    "P 1"
_symmetry_Int_Tables_number       1

loop_
  _symmetry_equiv_pos_as_xyz
  'x, y, z'

loop_
  _atom_site_type_symbol
  _atom_site_label
  _atom_site_symmetry_multiplicity
  _atom_site_fract_x
  _atom_site_fract_y
  _atom_site_fract_z
  _atom_site_occupancy
  _atom_site_charge
Li  Li1       1.0  0.62293  0.62293  0.25000  1.0000 0.8294859508
Li  Li2       1.0  0.37707  0.37707  0.75000  1.0000 0.8294859508
Cd  Cd1       1.0  0.12008  0.12008  0.25000  1.0000 0.9422471205
Cd  Cd2       1.0  0.87992  0.87992  0.75000  1.0000 0.9422471205
H   H1        1.0  0.71280  0.70660  0.39460  1.0000 0.1310006658
H   H2        1.0  0.70660  0.71280  0.10540  1.0000 0.1310006658
H   H3        1.0  0.28720  0.29340  0.60540  1.0000 0.1310006658
H   H4        1.0  0.29340  0.28720  0.89460  1.0000 0.1310006658
H   H5        1.0  0.34130  0.12470  0.52910  1.0000 0.1208312603
H   H6        1.0  0.12470  0.34130  0.97090  1.0000 0.1208312603
H   H7        1.0  0.65870  0.87530  0.47090  1.0000 0.1208312603
H   H8        1.0  0.87530  0.65870  0.02910  1.0000 0.1208312603
H   H9        1.0  0.40840  0.68580  0.11520  1.0000 0.1310006658
H   H10       1.0  0.68580  0.40840  0.38480  1.0000 0.1310006658
H   H11       1.0  0.59160  0.31420  0.88480  1.0000 0.1310006658
H   H12       1.0  0.31420  0.59160  0.61520  1.0000 0.1310006658
H   H13       1.0  0.83820  0.17320  0.96020  1.0000 0.1208312603
H   H14       1.0  0.17320  0.83820  0.53980  1.0000 0.1208312603
H   H15       1.0  0.16180  0.82680  0.03980  1.0000 0.1208312603
H   H16       1.0  0.82680  0.16180  0.46020  1.0000 0.1208312603
H   H17       1.0  0.50260  0.73700  0.88260  1.0000 0.141993307
H   H18       1.0  0.73700  0.50260  0.61740  1.0000 0.141993307
H   H19       1.0  0.70130  0.60170  0.93340  1.0000 0.141993307
H   H20       1.0  0.60170  0.70130  0.56660  1.0000 0.141993307
H   H21       1.0  0.72970  0.49170  0.89420  1.0000 0.1476489683
H   H22       1.0  0.49170  0.72970  0.60580  1.0000 0.1476489683
H   H23       1.0  0.89600  0.45620  0.67800  1.0000 0.141993307
H   H24       1.0  0.45620  0.89600  0.82200  1.0000 0.141993307
H   H25       1.0  0.97670  0.32330  0.79620  1.0000 0.1476489683
H   H26       1.0  0.32330  0.97670  0.70380  1.0000 0.1476489683
H   H27       1.0  0.89730  0.47770  0.82250  1.0000 0.1476489683
H   H28       1.0  0.47770  0.89730  0.67750  1.0000 0.1476489683
H   H29       1.0  0.49740  0.26300  0.11740  1.0000 0.141993307
H   H30       1.0  0.26300  0.49740  0.38260  1.0000 0.141993307
H   H31       1.0  0.29870  0.39830  0.06660  1.0000 0.141993307
H   H32       1.0  0.39830  0.29870  0.43340  1.0000 0.141993307
H   H33       1.0  0.27030  0.50830  0.10580  1.0000 0.1476489683
H   H34       1.0  0.50830  0.27030  0.39420  1.0000 0.1476489683
H   H35       1.0  0.10400  0.54380  0.32200  1.0000 0.141993307
H   H36       1.0  0.54380  0.10400  0.17800  1.0000 0.141993307
H   H37       1.0  0.02330  0.67670  0.20380  1.0000 0.1476489683
H   H38       1.0  0.67670  0.02330  0.29620  1.0000 0.1476489683
H   H39       1.0  0.10270  0.52230  0.17750  1.0000 0.1476489683
H   H40       1.0  0.52230  0.10270  0.32250  1.0000 0.1476489683
C   C1        1.0  0.03486  0.31906  0.39760  1.0000 0.5728169957
C   C2        1.0  0.31906  0.03486  0.10240  1.0000 0.5728169957
C   C3        1.0  0.96514  0.68094  0.60240  1.0000 0.5728169957
C   C4        1.0  0.68094  0.96514  0.89760  1.0000 0.5728169957
C   C5        1.0  0.01477  0.41497  0.45110  1.0000 -0.0196280388
C   C6        1.0  0.41497  0.01477  0.04890  1.0000 -0.0196280388
C   C7        1.0  0.98523  0.58503  0.54890  1.0000 -0.0196280388
C   C8        1.0  0.58503  0.98523  0.95110  1.0000 -0.0196280388
C   C9        1.0  0.81982  0.63142  0.43500  1.0000 -0.0987223594
C   C10       1.0  0.63142  0.81982  0.06500  1.0000 -0.0987223594
C   C11       1.0  0.18018  0.36858  0.56500  1.0000 -0.0987223594
C   C12       1.0  0.36858  0.18018  0.93500  1.0000 -0.0987223594
C   C13       1.0  0.19591  0.28311  0.51610  1.0000 -0.1174412502
C   C14       1.0  0.28311  0.19591  0.98390  1.0000 -0.1174412502
C   C15       1.0  0.80409  0.71689  0.48390  1.0000 -0.1174412502
C   C16       1.0  0.71689  0.80409  0.01610  1.0000 -0.1174412502
C   C17       1.0  0.81878  0.31198  0.10470  1.0000 0.5782991329
C   C18       1.0  0.31198  0.81878  0.39530  1.0000 0.5782991329
C   C19       1.0  0.18122  0.68802  0.89530  1.0000 0.5782991329
C   C20       1.0  0.68802  0.18122  0.60470  1.0000 0.5782991329
C   C21       1.0  0.65209  0.41169  0.04929  1.0000 -0.0196280388
C   C22       1.0  0.41169  0.65209  0.45071  1.0000 -0.0196280388
C   C23       1.0  0.34791  0.58831  0.95071  1.0000 -0.0196280388
C   C24       1.0  0.58831  0.34791  0.54929  1.0000 -0.0196280388
C   C25       1.0  0.44945  0.60585  0.07280  1.0000 -0.0987223594
C   C26       1.0  0.60585  0.44945  0.42720  1.0000 -0.0987223594
C   C27       1.0  0.55055  0.39415  0.92720  1.0000 -0.0987223594
C   C28       1.0  0.39415  0.55055  0.57280  1.0000 -0.0987223594
C   C29       1.0  0.70088  0.30728  0.97550  1.0000 -0.0987223594
C   C30       1.0  0.30728  0.70088  0.52450  1.0000 -0.0987223594
C   C31       1.0  0.29912  0.69272  0.02450  1.0000 -0.0987223594
C   C32       1.0  0.69272  0.29912  0.47550  1.0000 -0.0987223594
C   C33       1.0  0.64420  0.61620  0.87380  1.0000 -0.3340592405
C   C34       1.0  0.61620  0.64420  0.62620  1.0000 -0.3340592405
C   C35       1.0  0.87640  0.45640  0.76300  1.0000 -0.4464271983
C   C36       1.0  0.45640  0.87640  0.73700  1.0000 -0.4464271983
C   C37       1.0  0.35580  0.38380  0.12620  1.0000 -0.3340592405
C   C38       1.0  0.38380  0.35580  0.37380  1.0000 -0.3340592405
C   C39       1.0  0.12360  0.54360  0.23700  1.0000 -0.4464271983
C   C40       1.0  0.54360  0.12360  0.26300  1.0000 -0.4464271983
N   N1        1.0  0.64238  0.64238  0.75000  1.0000 0.2902096191
N   N2        1.0  0.35762  0.35762  0.25000  1.0000 0.2902096191
O   O1        1.0  0.21579  0.12419  0.40250  1.0000 -0.528667005
O   O2        1.0  0.12419  0.21579  0.09750  1.0000 -0.528667005
O   O3        1.0  0.78421  0.87581  0.59750  1.0000 -0.528667005
O   O4        1.0  0.87581  0.78421  0.90250  1.0000 -0.528667005
O   O5        1.0  0.87054  0.43814  0.34920  1.0000 -0.6303512475
O   O6        1.0  0.43814  0.87054  0.15080  1.0000 -0.6303512475
O   O7        1.0  0.12946  0.56186  0.65080  1.0000 -0.6303512475
O   O8        1.0  0.56186  0.12946  0.84920  1.0000 -0.6303512475
O   O9        1.0  0.76748  0.41428  0.16703  1.0000 -0.6376673302
O   O10       1.0  0.41428  0.76748  0.33297  1.0000 -0.6376673302
O   O11       1.0  0.23252  0.58572  0.83297  1.0000 -0.6376673302
O   O12       1.0  0.58572  0.23252  0.66703  1.0000 -0.6376673302
O   O13       1.0  0.00350  0.13150  0.09008  1.0000 -0.5246417245
O   O14       1.0  0.13150  0.00350  0.40992  1.0000 -0.5246417245
O   O15       1.0  0.99650  0.86850  0.90992  1.0000 -0.5246417245
O   O16       1.0  0.86850  0.99650  0.59008  1.0000 -0.5246417245
