# DDEC6 charges by PACMAN v1.1 (https://github.com/mtap-research/PACMAN-charge/)
data_2009[Cu][sra]3[ION]1
_chemical_formula_sum              "Cu4 B6 H96 C100 N16 O16 F24"
_cell_length_a       14.1838
_cell_length_b       14.1838
_cell_length_c       21.64
_cell_angle_alpha    86.4473
_cell_angle_beta     93.5527
_cell_angle_gamma    60.4117

_symmetry_space_group_name_H-M    "P 1"
_symmetry_Int_Tables_number       1

loop_
  _symmetry_equiv_pos_as_xyz
  'x, y, z'

loop_
  _atom_site_type_symbol
  _atom_site_label
  _atom_site_symmetry_multiplicity
  _atom_site_fract_x
  _atom_site_fract_y
  _atom_site_fract_z
  _atom_site_occupancy
  _atom_site_charge
Cu  Cu1       1.0  0.98521  0.76713  0.42960  1.0000 0.2375537506
Cu  Cu2       1.0  0.76713  0.98521  0.07040  1.0000 0.2375537506
Cu  Cu3       1.0  0.01479  0.23287  0.57040  1.0000 0.2375537506
Cu  Cu4       1.0  0.23287  0.01479  0.92960  1.0000 0.2375537506
B   B1        1.0  0.72339  0.88859  0.80690  1.0000 0.9701789594
B   B2        1.0  0.88859  0.72339  0.69310  1.0000 0.9701789594
B   B3        1.0  0.27661  0.11141  0.19310  1.0000 0.9701789594
B   B4        1.0  0.11141  0.27661  0.30690  1.0000 0.9701789594
B   B5        1.0  0.42787  0.42787  0.75000  1.0000 1.0995691544
B   B6        1.0  0.57213  0.57213  0.25000  1.0000 1.0925255544
H   H1        1.0  0.88330  0.48770  0.20820  1.0000 0.1204146198
H   H2        1.0  0.48770  0.88330  0.29180  1.0000 0.1204146198
H   H3        1.0  0.11670  0.51230  0.79180  1.0000 0.1204146198
H   H4        1.0  0.51230  0.11670  0.70820  1.0000 0.1204146198
H   H5        1.0  0.76990  0.59830  0.19410  1.0000 0.1094093891
H   H6        1.0  0.59830  0.76990  0.30590  1.0000 0.1094093891
H   H7        1.0  0.23010  0.40170  0.80590  1.0000 0.1094093891
H   H8        1.0  0.40170  0.23010  0.69410  1.0000 0.1094093891
H   H9        1.0  0.83280  0.59460  0.28850  1.0000 0.1505070138
H   H10       1.0  0.59460  0.83280  0.21150  1.0000 0.1505070138
H   H11       1.0  0.16720  0.40540  0.71150  1.0000 0.1505070138
H   H12       1.0  0.40540  0.16720  0.78850  1.0000 0.1505070138
H   H13       1.0  0.86760  0.65020  0.37790  1.0000 0.1004611294
H   H14       1.0  0.65020  0.86760  0.12210  1.0000 0.1004611294
H   H15       1.0  0.13240  0.34980  0.62210  1.0000 0.1004611294
H   H16       1.0  0.34980  0.13240  0.87790  1.0000 0.1004611294
H   H17       1.0  0.02580  0.77520  0.29890  1.0000 0.1004611294
H   H18       1.0  0.77520  0.02580  0.20110  1.0000 0.1004611294
H   H19       1.0  0.97420  0.22480  0.70110  1.0000 0.1004611294
H   H20       1.0  0.22480  0.97420  0.79890  1.0000 0.1004611294
H   H21       1.0  0.99200  0.72420  0.20220  1.0000 0.1376826181
H   H22       1.0  0.72420  0.99200  0.29780  1.0000 0.1376826181
H   H23       1.0  0.00800  0.27580  0.79780  1.0000 0.1376826181
H   H24       1.0  0.27580  0.00800  0.70220  1.0000 0.1376826181
H   H25       1.0  0.74710  0.46830  0.06420  1.0000 0.0922232408
H   H26       1.0  0.46830  0.74710  0.43580  1.0000 0.0922232408
H   H27       1.0  0.25290  0.53170  0.93580  1.0000 0.0922232408
H   H28       1.0  0.53170  0.25290  0.56420  1.0000 0.0922232408
H   H29       1.0  0.71470  0.49010  0.13310  1.0000 0.1094093891
H   H30       1.0  0.49010  0.71470  0.36690  1.0000 0.1094093891
H   H31       1.0  0.28530  0.50990  0.86690  1.0000 0.1094093891
H   H32       1.0  0.50990  0.28530  0.63310  1.0000 0.1094093891
H   H33       1.0  0.98830  0.15890  0.13420  1.0000 0.1697473018
H   H34       1.0  0.15890  0.98830  0.36580  1.0000 0.1697473018
H   H35       1.0  0.01170  0.84110  0.86580  1.0000 0.1697473018
H   H36       1.0  0.84110  0.01170  0.63420  1.0000 0.1697473018
H   H37       1.0  0.95860  0.02160  0.10600  1.0000 0.1004611294
H   H38       1.0  0.02160  0.95860  0.39400  1.0000 0.1004611294
H   H39       1.0  0.04140  0.97840  0.89400  1.0000 0.1004611294
H   H40       1.0  0.97840  0.04140  0.60600  1.0000 0.1004611294
H   H41       1.0  0.64410  0.22790  0.06720  1.0000 0.1094093891
H   H42       1.0  0.22790  0.64410  0.43280  1.0000 0.1094093891
H   H43       1.0  0.35590  0.77210  0.93280  1.0000 0.1094093891
H   H44       1.0  0.77210  0.35590  0.56720  1.0000 0.1094093891
H   H45       1.0  0.67290  0.36610  0.09700  1.0000 0.1505070138
H   H46       1.0  0.36610  0.67290  0.40300  1.0000 0.1505070138
H   H47       1.0  0.32710  0.63390  0.90300  1.0000 0.1505070138
H   H48       1.0  0.63390  0.32710  0.59700  1.0000 0.1505070138
H   H49       1.0  0.99210  0.40730  0.11820  1.0000 0.1094093891
H   H50       1.0  0.40730  0.99210  0.38180  1.0000 0.1094093891
H   H51       1.0  0.00790  0.59270  0.88180  1.0000 0.1094093891
H   H52       1.0  0.59270  0.00790  0.61820  1.0000 0.1094093891
H   H53       1.0  0.97550  0.52150  0.08970  1.0000 0.1094093891
H   H54       1.0  0.52150  0.97550  0.41030  1.0000 0.1094093891
H   H55       1.0  0.02450  0.47850  0.91030  1.0000 0.1094093891
H   H56       1.0  0.47850  0.02450  0.58970  1.0000 0.1094093891
H   H57       1.0  0.11620  0.30220  0.07880  1.0000 0.1505070138
H   H58       1.0  0.30220  0.11620  0.42120  1.0000 0.1505070138
H   H59       1.0  0.88380  0.69780  0.92120  1.0000 0.1505070138
H   H60       1.0  0.69780  0.88380  0.57880  1.0000 0.1505070138
H   H61       1.0  0.22540  0.13560  0.04310  1.0000 0.1094093891
H   H62       1.0  0.13560  0.22540  0.45690  1.0000 0.1094093891
H   H63       1.0  0.77460  0.86440  0.95690  1.0000 0.1094093891
H   H64       1.0  0.86440  0.77460  0.54310  1.0000 0.1094093891
H   H65       1.0  0.01100  0.19980  0.90270  1.0000 0.1004611294
H   H66       1.0  0.19980  0.01100  0.59730  1.0000 0.1004611294
H   H67       1.0  0.98900  0.80020  0.09730  1.0000 0.1004611294
H   H68       1.0  0.80020  0.98900  0.40270  1.0000 0.1004611294
H   H69       1.0  0.89370  0.36270  0.93550  1.0000 0.1558218724
H   H70       1.0  0.36270  0.89370  0.56450  1.0000 0.1558218724
H   H71       1.0  0.10630  0.63730  0.06450  1.0000 0.1558218724
H   H72       1.0  0.63730  0.10630  0.43550  1.0000 0.1558218724
H   H73       1.0  0.75580  0.62700  0.02900  1.0000 0.1004611294
H   H74       1.0  0.62700  0.75580  0.47100  1.0000 0.1004611294
H   H75       1.0  0.24420  0.37300  0.97100  1.0000 0.1004611294
H   H76       1.0  0.37300  0.24420  0.52900  1.0000 0.1004611294
H   H77       1.0  0.79170  0.68690  0.07710  1.0000 0.1094093891
H   H78       1.0  0.68690  0.79170  0.42290  1.0000 0.1094093891
H   H79       1.0  0.20830  0.31310  0.92290  1.0000 0.1094093891
H   H80       1.0  0.31310  0.20830  0.57710  1.0000 0.1094093891
H   H81       1.0  0.46250  0.77590  0.11870  1.0000 0.1771711833
H   H82       1.0  0.77590  0.46250  0.38130  1.0000 0.1771711833
H   H83       1.0  0.53750  0.22410  0.88130  1.0000 0.1771711833
H   H84       1.0  0.22410  0.53750  0.61870  1.0000 0.1771711833
H   H85       1.0  0.31430  0.91310  0.06320  1.0000 0.1204146198
H   H86       1.0  0.91310  0.31430  0.43680  1.0000 0.1204146198
H   H87       1.0  0.68570  0.08690  0.93680  1.0000 0.1204146198
H   H88       1.0  0.08690  0.68570  0.56320  1.0000 0.1204146198
H   H89       1.0  0.47840  0.92220  0.92720  1.0000 0.1094093891
H   H90       1.0  0.92220  0.47840  0.57280  1.0000 0.1094093891
H   H91       1.0  0.52160  0.07780  0.07280  1.0000 0.1094093891
H   H92       1.0  0.07780  0.52160  0.42720  1.0000 0.1094093891
H   H93       1.0  0.63400  0.79320  0.98460  1.0000 0.1505070138
H   H94       1.0  0.79320  0.63400  0.51540  1.0000 0.1505070138
H   H95       1.0  0.36600  0.20680  0.01540  1.0000 0.1505070138
H   H96       1.0  0.20680  0.36600  0.48460  1.0000 0.1505070138
C   C1        1.0  0.83302  0.53068  0.11216  1.0000 0.0922232408
C   C2        1.0  0.53068  0.83302  0.38784  1.0000 0.0922232408
C   C3        1.0  0.16698  0.46932  0.88784  1.0000 0.0922232408
C   C4        1.0  0.46932  0.16698  0.61216  1.0000 0.0922232408
C   C5        1.0  0.84271  0.55583  0.18051  1.0000 -0.0725452384
C   C6        1.0  0.55583  0.84271  0.31949  1.0000 -0.0725452384
C   C7        1.0  0.15729  0.44417  0.81949  1.0000 -0.0725452384
C   C8        1.0  0.44417  0.15729  0.68051  1.0000 -0.0725452384
C   C9        1.0  0.91484  0.65054  0.23844  1.0000 0.2679458647
C   C10       1.0  0.65054  0.91484  0.26156  1.0000 0.2679458647
C   C11       1.0  0.08516  0.34946  0.76156  1.0000 0.2679458647
C   C12       1.0  0.34946  0.08516  0.73844  1.0000 0.2679458647
C   C13       1.0  0.87300  0.63110  0.28986  1.0000 -0.2302560345
C   C14       1.0  0.63110  0.87300  0.21014  1.0000 -0.2302560345
C   C15       1.0  0.12700  0.36890  0.71014  1.0000 -0.2302560345
C   C16       1.0  0.36890  0.12700  0.78986  1.0000 -0.2302560345
C   C17       1.0  0.89229  0.66647  0.34159  1.0000 0.0685964526
C   C18       1.0  0.66647  0.89229  0.15841  1.0000 0.0685964526
C   C19       1.0  0.10771  0.33353  0.65841  1.0000 0.0685964526
C   C20       1.0  0.33353  0.10771  0.84159  1.0000 0.0685964526
C   C21       1.0  0.98447  0.74017  0.29591  1.0000 0.0685964526
C   C22       1.0  0.74017  0.98447  0.20409  1.0000 0.0685964526
C   C23       1.0  0.01553  0.25983  0.70409  1.0000 0.0685964526
C   C24       1.0  0.25983  0.01553  0.79591  1.0000 0.0685964526
C   C25       1.0  0.96779  0.70747  0.23851  1.0000 -0.249560351
C   C26       1.0  0.70747  0.96779  0.26149  1.0000 -0.249560351
C   C27       1.0  0.03221  0.29253  0.76149  1.0000 -0.249560351
C   C28       1.0  0.29253  0.03221  0.73851  1.0000 -0.249560351
C   C29       1.0  0.77559  0.46321  0.10742  1.0000 -0.0921375825
C   C30       1.0  0.46321  0.77559  0.39258  1.0000 -0.0921375825
C   C31       1.0  0.22441  0.53679  0.89258  1.0000 -0.0921375825
C   C32       1.0  0.53679  0.22441  0.60742  1.0000 -0.0921375825
C   C33       1.0  0.83158  0.27790  0.11483  1.0000 0.2876910245
C   C34       1.0  0.27790  0.83158  0.38517  1.0000 0.2876910245
C   C35       1.0  0.16842  0.72210  0.88517  1.0000 0.2876910245
C   C36       1.0  0.72210  0.16842  0.61483  1.0000 0.2876910245
C   C37       1.0  0.91772  0.17422  0.12002  1.0000 -0.249560351
C   C38       1.0  0.17422  0.91772  0.37998  1.0000 -0.249560351
C   C39       1.0  0.08228  0.82578  0.87998  1.0000 -0.249560351
C   C40       1.0  0.82578  0.08228  0.62002  1.0000 -0.249560351
C   C41       1.0  0.89806  0.09230  0.10389  1.0000 0.0685964526
C   C42       1.0  0.09230  0.89806  0.39611  1.0000 0.0685964526
C   C43       1.0  0.10194  0.90770  0.89611  1.0000 0.0685964526
C   C44       1.0  0.90770  0.10194  0.60389  1.0000 0.0685964526
C   C45       1.0  0.71502  0.21168  0.08140  1.0000 0.0589297304
C   C46       1.0  0.21168  0.71502  0.41860  1.0000 0.0589297304
C   C47       1.0  0.28498  0.78832  0.91860  1.0000 0.0589297304
C   C48       1.0  0.78832  0.28498  0.58140  1.0000 0.0589297304
C   C49       1.0  0.73279  0.29533  0.09792  1.0000 -0.26073613
C   C50       1.0  0.29533  0.73279  0.40208  1.0000 -0.26073613
C   C51       1.0  0.26721  0.70467  0.90208  1.0000 -0.26073613
C   C52       1.0  0.70467  0.26721  0.59792  1.0000 -0.26073613
C   C53       1.0  0.94352  0.47410  0.09072  1.0000 -0.0921375825
C   C54       1.0  0.47410  0.94352  0.40928  1.0000 -0.0921375825
C   C55       1.0  0.05648  0.52590  0.90928  1.0000 -0.0921375825
C   C56       1.0  0.52590  0.05648  0.59072  1.0000 -0.0921375825
C   C57       1.0  0.99428  0.35144  0.00949  1.0000 0.2811565525
C   C58       1.0  0.35144  0.99428  0.49051  1.0000 0.2811565525
C   C59       1.0  0.00572  0.64856  0.99051  1.0000 0.2811565525
C   C60       1.0  0.64856  0.00572  0.50949  1.0000 0.2811565525
C   C61       1.0  0.09291  0.28291  0.04252  1.0000 -0.26073613
C   C62       1.0  0.28291  0.09291  0.45748  1.0000 -0.26073613
C   C63       1.0  0.90709  0.71709  0.95748  1.0000 -0.26073613
C   C64       1.0  0.71709  0.90709  0.54252  1.0000 -0.26073613
C   C65       1.0  0.15752  0.18304  0.02021  1.0000 0.0589297304
C   C66       1.0  0.18304  0.15752  0.47979  1.0000 0.0589297304
C   C67       1.0  0.84248  0.81696  0.97979  1.0000 0.0589297304
C   C68       1.0  0.81696  0.84248  0.52021  1.0000 0.0589297304
C   C69       1.0  0.03313  0.21955  0.93920  1.0000 0.048612365
C   C70       1.0  0.21955  0.03313  0.56080  1.0000 0.048612365
C   C71       1.0  0.96687  0.78045  0.06080  1.0000 0.048612365
C   C72       1.0  0.78045  0.96687  0.43920  1.0000 0.048612365
C   C73       1.0  0.96276  0.31816  0.95775  1.0000 -0.26073613
C   C74       1.0  0.31816  0.96276  0.54225  1.0000 -0.26073613
C   C75       1.0  0.03724  0.68184  0.04225  1.0000 -0.26073613
C   C76       1.0  0.68184  0.03724  0.45775  1.0000 -0.26073613
C   C77       1.0  0.76137  0.63841  0.07293  1.0000 -0.0921375825
C   C78       1.0  0.63841  0.76137  0.42707  1.0000 -0.0921375825
C   C79       1.0  0.23863  0.36159  0.92707  1.0000 -0.0921375825
C   C80       1.0  0.36159  0.23863  0.57293  1.0000 -0.0921375825
C   C81       1.0  0.56947  0.76693  0.05781  1.0000 0.2679458647
C   C82       1.0  0.76693  0.56947  0.44219  1.0000 0.2679458647
C   C83       1.0  0.43053  0.23307  0.94219  1.0000 0.2679458647
C   C84       1.0  0.23307  0.43053  0.55781  1.0000 0.2679458647
C   C85       1.0  0.46869  0.80565  0.08018  1.0000 -0.2302560345
C   C86       1.0  0.80565  0.46869  0.41982  1.0000 -0.2302560345
C   C87       1.0  0.53131  0.19435  0.91982  1.0000 -0.2302560345
C   C88       1.0  0.19435  0.53131  0.58018  1.0000 -0.2302560345
C   C89       1.0  0.38109  0.88551  0.04607  1.0000 0.0589297304
C   C90       1.0  0.88551  0.38109  0.45393  1.0000 0.0589297304
C   C91       1.0  0.61891  0.11449  0.95393  1.0000 0.0589297304
C   C92       1.0  0.11449  0.61891  0.54607  1.0000 0.0589297304
C   C93       1.0  0.47472  0.89394  0.96679  1.0000 0.0922232408
C   C94       1.0  0.89394  0.47472  0.53321  1.0000 0.0922232408
C   C95       1.0  0.52528  0.10606  0.03321  1.0000 0.0922232408
C   C96       1.0  0.10606  0.52528  0.46679  1.0000 0.0922232408
C   C97       1.0  0.56727  0.81543  0.00108  1.0000 -0.2795006731
C   C98       1.0  0.81543  0.56727  0.49892  1.0000 -0.2795006731
C   C99       1.0  0.43273  0.18457  0.99892  1.0000 -0.2795006731
C   C100      1.0  0.18457  0.43273  0.50108  1.0000 -0.2795006731
N   N1        1.0  0.94356  0.72312  0.34654  1.0000 -0.2302560345
N   N2        1.0  0.72312  0.94356  0.15346  1.0000 -0.2302560345
N   N3        1.0  0.05644  0.27688  0.65346  1.0000 -0.2302560345
N   N4        1.0  0.27688  0.05644  0.84654  1.0000 -0.2302560345
N   N5        1.0  0.80020  0.10474  0.08554  1.0000 -0.2392815039
N   N6        1.0  0.10474  0.80020  0.41446  1.0000 -0.2392815039
N   N7        1.0  0.19980  0.89526  0.91446  1.0000 -0.2392815039
N   N8        1.0  0.89526  0.19980  0.58554  1.0000 -0.2392815039
N   N9        1.0  0.13164  0.14836  0.96888  1.0000 -0.2302560345
N   N10       1.0  0.14836  0.13164  0.53112  1.0000 -0.2302560345
N   N11       1.0  0.86836  0.85164  0.03112  1.0000 -0.2302560345
N   N12       1.0  0.85164  0.86836  0.46888  1.0000 -0.2302560345
N   N13       1.0  0.37985  0.93037  0.98907  1.0000 -0.2302560345
N   N14       1.0  0.93037  0.37985  0.51093  1.0000 -0.2302560345
N   N15       1.0  0.62015  0.06963  0.01093  1.0000 -0.2302560345
N   N16       1.0  0.06963  0.62015  0.48907  1.0000 -0.2302560345
O   O1        1.0  0.89819  0.61589  0.18297  1.0000 -0.1829632693
O   O2        1.0  0.61589  0.89819  0.31703  1.0000 -0.1829632693
O   O3        1.0  0.10181  0.38411  0.81703  1.0000 -0.1829632693
O   O4        1.0  0.38411  0.10181  0.68297  1.0000 -0.1829632693
O   O5        1.0  0.85693  0.35047  0.12961  1.0000 -0.131514045
O   O6        1.0  0.35047  0.85693  0.37039  1.0000 -0.131514045
O   O7        1.0  0.14307  0.64953  0.87039  1.0000 -0.131514045
O   O8        1.0  0.64953  0.14307  0.62961  1.0000 -0.131514045
O   O9        1.0  0.92584  0.44886  0.02831  1.0000 -0.1694359356
O   O10       1.0  0.44886  0.92584  0.47169  1.0000 -0.1694359356
O   O11       1.0  0.07416  0.55114  0.97169  1.0000 -0.1694359356
O   O12       1.0  0.55114  0.07416  0.52831  1.0000 -0.1694359356
O   O13       1.0  0.65655  0.68475  0.09552  1.0000 -0.1694359356
O   O14       1.0  0.68475  0.65655  0.40448  1.0000 -0.1694359356
O   O15       1.0  0.34345  0.31525  0.90448  1.0000 -0.1694359356
O   O16       1.0  0.31525  0.34345  0.59552  1.0000 -0.1694359356
F   F1        1.0  0.80874  0.79170  0.80769  1.0000 -0.3602352166
F   F2        1.0  0.65966  0.88560  0.84716  1.0000 -0.399110286
F   F3        1.0  0.67051  0.91993  0.75123  1.0000 -0.3666274645
F   F4        1.0  0.75427  0.95811  0.82125  1.0000 -0.399110286
F   F5        1.0  0.79170  0.80874  0.69231  1.0000 -0.3602352166
F   F6        1.0  0.88560  0.65966  0.65284  1.0000 -0.399110286
F   F7        1.0  0.91993  0.67051  0.74877  1.0000 -0.3666274645
F   F8        1.0  0.95811  0.75427  0.67875  1.0000 -0.399110286
F   F9        1.0  0.19126  0.20830  0.19231  1.0000 -0.3602352166
F   F10       1.0  0.34034  0.11440  0.15284  1.0000 -0.399110286
F   F11       1.0  0.32949  0.08007  0.24877  1.0000 -0.3666274645
F   F12       1.0  0.24573  0.04189  0.17875  1.0000 -0.399110286
F   F13       1.0  0.20830  0.19126  0.30769  1.0000 -0.3602352166
F   F14       1.0  0.11440  0.34034  0.34716  1.0000 -0.399110286
F   F15       1.0  0.08007  0.32949  0.25123  1.0000 -0.3666274645
F   F16       1.0  0.04189  0.24573  0.32125  1.0000 -0.399110286
F   F17       1.0  0.43252  0.48678  0.79610  1.0000 -0.4802491986
F   F18       1.0  0.48678  0.43252  0.70390  1.0000 -0.4802491986
F   F19       1.0  0.32360  0.46830  0.72731  1.0000 -0.4701862955
F   F20       1.0  0.46830  0.32360  0.77269  1.0000 -0.4701862955
F   F21       1.0  0.56748  0.51322  0.20390  1.0000 -0.4802491986
F   F22       1.0  0.51322  0.56748  0.29610  1.0000 -0.4802491986
F   F23       1.0  0.67640  0.53170  0.27269  1.0000 -0.4701862955
F   F24       1.0  0.53170  0.67640  0.22731  1.0000 -0.4701862955
