# DDEC6 charges by PACMAN v1.1 (https://github.com/mtap-research/PACMAN-charge/)
data_2009[Cd][nuc]3[ION]2
_chemical_formula_sum              "Cd4 H144 C192 N48 Cl4 O16"
_cell_length_a       15.903
_cell_length_b       15.903
_cell_length_c       21.396
_cell_angle_alpha    90
_cell_angle_beta     90
_cell_angle_gamma    90

_symmetry_space_group_name_H-M    "P 1"
_symmetry_Int_Tables_number       1

loop_
  _symmetry_equiv_pos_as_xyz
  'x, y, z'

loop_
  _atom_site_type_symbol
  _atom_site_label
  _atom_site_symmetry_multiplicity
  _atom_site_fract_x
  _atom_site_fract_y
  _atom_site_fract_z
  _atom_site_occupancy
  _atom_site_charge
Cd  Cd1       1.0  0.05948  0.94052  0.75000  1.0000 0.6465518191
Cd  Cd2       1.0  0.94052  0.05948  0.25000  1.0000 0.6465518191
Cd  Cd3       1.0  0.55948  0.55948  0.50000  1.0000 0.6465518191
Cd  Cd4       1.0  0.44052  0.44052  0.00000  1.0000 0.6465518191
H   H1        1.0  0.13710  0.76860  0.79320  1.0000 0.0986451109
H   H2        1.0  0.86290  0.23140  0.29320  1.0000 0.0986451109
H   H3        1.0  0.73140  0.63710  0.54320  1.0000 0.0986451109
H   H4        1.0  0.26860  0.36290  0.04320  1.0000 0.0986451109
H   H5        1.0  0.36290  0.26860  0.95680  1.0000 0.0986451109
H   H6        1.0  0.63710  0.73140  0.45680  1.0000 0.0986451109
H   H7        1.0  0.76860  0.13710  0.20680  1.0000 0.0986451109
H   H8        1.0  0.23140  0.86290  0.70680  1.0000 0.0986451109
H   H9        1.0  0.23700  0.71250  0.85600  1.0000 0.1300939187
H   H10       1.0  0.76300  0.28750  0.35600  1.0000 0.1300939187
H   H11       1.0  0.78750  0.73700  0.60600  1.0000 0.1300939187
H   H12       1.0  0.21250  0.26300  0.10600  1.0000 0.1300939187
H   H13       1.0  0.26300  0.21250  0.89400  1.0000 0.1300939187
H   H14       1.0  0.73700  0.78750  0.39400  1.0000 0.1300939187
H   H15       1.0  0.71250  0.23700  0.14400  1.0000 0.1300939187
H   H16       1.0  0.28750  0.76300  0.64400  1.0000 0.1300939187
H   H17       1.0  0.21490  0.91450  0.96690  1.0000 0.1300939187
H   H18       1.0  0.78510  0.08550  0.46690  1.0000 0.1300939187
H   H19       1.0  0.58550  0.71490  0.71690  1.0000 0.1300939187
H   H20       1.0  0.41450  0.28510  0.21690  1.0000 0.1300939187
H   H21       1.0  0.28510  0.41450  0.78310  1.0000 0.1300939187
H   H22       1.0  0.71490  0.58550  0.28310  1.0000 0.1300939187
H   H23       1.0  0.91450  0.21490  0.03310  1.0000 0.1300939187
H   H24       1.0  0.08550  0.78510  0.53310  1.0000 0.1300939187
H   H25       1.0  0.11460  0.96320  0.90090  1.0000 0.0986451109
H   H26       1.0  0.88540  0.03680  0.40090  1.0000 0.0986451109
H   H27       1.0  0.53680  0.61460  0.65090  1.0000 0.0986451109
H   H28       1.0  0.46320  0.38540  0.15090  1.0000 0.0986451109
H   H29       1.0  0.38540  0.46320  0.84910  1.0000 0.0986451109
H   H30       1.0  0.61460  0.53680  0.34910  1.0000 0.0986451109
H   H31       1.0  0.96320  0.11460  0.09910  1.0000 0.0986451109
H   H32       1.0  0.03680  0.88540  0.59910  1.0000 0.0986451109
H   H33       1.0  0.30110  0.85020  0.03210  1.0000 0.0986451109
H   H34       1.0  0.69890  0.14980  0.53210  1.0000 0.0986451109
H   H35       1.0  0.64980  0.80110  0.78210  1.0000 0.0986451109
H   H36       1.0  0.35020  0.19890  0.28210  1.0000 0.0986451109
H   H37       1.0  0.19890  0.35020  0.71790  1.0000 0.0986451109
H   H38       1.0  0.80110  0.64980  0.21790  1.0000 0.0986451109
H   H39       1.0  0.85020  0.30110  0.96790  1.0000 0.0986451109
H   H40       1.0  0.14980  0.69890  0.46790  1.0000 0.0986451109
H   H41       1.0  0.41350  0.79940  0.08730  1.0000 0.1100879917
H   H42       1.0  0.58650  0.20060  0.58730  1.0000 0.1100879917
H   H43       1.0  0.70060  0.91350  0.83730  1.0000 0.1100879917
H   H44       1.0  0.29940  0.08650  0.33730  1.0000 0.1100879917
H   H45       1.0  0.08650  0.29940  0.66270  1.0000 0.1100879917
H   H46       1.0  0.91350  0.70060  0.16270  1.0000 0.1100879917
H   H47       1.0  0.79940  0.41350  0.91270  1.0000 0.1100879917
H   H48       1.0  0.20060  0.58650  0.41270  1.0000 0.1100879917
H   H49       1.0  0.50510  0.70260  0.04260  1.0000 0.1100879917
H   H50       1.0  0.49490  0.29740  0.54260  1.0000 0.1100879917
H   H51       1.0  0.79740  0.00510  0.79260  1.0000 0.1100879917
H   H52       1.0  0.20260  0.99490  0.29260  1.0000 0.1100879917
H   H53       1.0  0.99490  0.20260  0.70740  1.0000 0.1100879917
H   H54       1.0  0.00510  0.79740  0.20740  1.0000 0.1100879917
H   H55       1.0  0.70260  0.50510  0.95740  1.0000 0.1100879917
H   H56       1.0  0.29740  0.49490  0.45740  1.0000 0.1100879917
H   H57       1.0  0.35890  0.69590  0.89030  1.0000 0.1100879917
H   H58       1.0  0.64110  0.30410  0.39030  1.0000 0.1100879917
H   H59       1.0  0.80410  0.85890  0.64030  1.0000 0.1100879917
H   H60       1.0  0.19590  0.14110  0.14030  1.0000 0.1100879917
H   H61       1.0  0.14110  0.19590  0.85970  1.0000 0.1100879917
H   H62       1.0  0.85890  0.80410  0.35970  1.0000 0.1100879917
H   H63       1.0  0.69590  0.35890  0.10970  1.0000 0.1100879917
H   H64       1.0  0.30410  0.64110  0.60970  1.0000 0.1100879917
H   H65       1.0  0.62060  0.45690  0.79000  1.0000 0.1100879917
H   H66       1.0  0.37940  0.54310  0.29000  1.0000 0.1100879917
H   H67       1.0  0.04310  0.12060  0.54000  1.0000 0.1100879917
H   H68       1.0  0.95690  0.87940  0.04000  1.0000 0.1100879917
H   H69       1.0  0.87940  0.95690  0.96000  1.0000 0.1100879917
H   H70       1.0  0.12060  0.04310  0.46000  1.0000 0.1100879917
H   H71       1.0  0.45690  0.62060  0.21000  1.0000 0.1100879917
H   H72       1.0  0.54310  0.37940  0.71000  1.0000 0.1100879917
H   H73       1.0  0.73320  0.43590  0.72290  1.0000 0.1100879917
H   H74       1.0  0.26680  0.56410  0.22290  1.0000 0.1100879917
H   H75       1.0  0.06410  0.23320  0.47290  1.0000 0.1100879917
H   H76       1.0  0.93590  0.76680  0.97290  1.0000 0.1100879917
H   H77       1.0  0.76680  0.93590  0.02710  1.0000 0.1100879917
H   H78       1.0  0.23320  0.06410  0.52710  1.0000 0.1100879917
H   H79       1.0  0.43590  0.73320  0.27710  1.0000 0.1100879917
H   H80       1.0  0.56410  0.26680  0.77710  1.0000 0.1100879917
H   H81       1.0  0.83600  0.53620  0.71290  1.0000 0.1100879917
H   H82       1.0  0.16400  0.46380  0.21290  1.0000 0.1100879917
H   H83       1.0  0.96380  0.33600  0.46290  1.0000 0.1100879917
H   H84       1.0  0.03620  0.66400  0.96290  1.0000 0.1100879917
H   H85       1.0  0.66400  0.03620  0.03710  1.0000 0.1100879917
H   H86       1.0  0.33600  0.96380  0.53710  1.0000 0.1100879917
H   H87       1.0  0.53620  0.83600  0.28710  1.0000 0.1100879917
H   H88       1.0  0.46380  0.16400  0.78710  1.0000 0.1100879917
H   H89       1.0  0.72350  0.67510  0.84460  1.0000 0.0986451109
H   H90       1.0  0.27650  0.32490  0.34460  1.0000 0.0986451109
H   H91       1.0  0.82490  0.22350  0.59460  1.0000 0.0986451109
H   H92       1.0  0.17510  0.77650  0.09460  1.0000 0.0986451109
H   H93       1.0  0.77650  0.17510  0.90540  1.0000 0.0986451109
H   H94       1.0  0.22350  0.82490  0.40540  1.0000 0.0986451109
H   H95       1.0  0.67510  0.72350  0.15540  1.0000 0.0986451109
H   H96       1.0  0.32490  0.27650  0.65540  1.0000 0.0986451109
H   H97       1.0  0.84360  0.73760  0.85690  1.0000 0.1300939187
H   H98       1.0  0.15640  0.26240  0.35690  1.0000 0.1300939187
H   H99       1.0  0.76240  0.34360  0.60690  1.0000 0.1300939187
H   H100      1.0  0.23760  0.65640  0.10690  1.0000 0.1300939187
H   H101      1.0  0.65640  0.23760  0.89310  1.0000 0.1300939187
H   H102      1.0  0.34360  0.76240  0.39310  1.0000 0.1300939187
H   H103      1.0  0.73760  0.84360  0.14310  1.0000 0.1300939187
H   H104      1.0  0.26240  0.15640  0.64310  1.0000 0.1300939187
H   H105      1.0  0.93810  0.84390  0.84170  1.0000 0.0986451109
H   H106      1.0  0.06190  0.15610  0.34170  1.0000 0.0986451109
H   H107      1.0  0.65610  0.43810  0.59170  1.0000 0.0986451109
H   H108      1.0  0.34390  0.56190  0.09170  1.0000 0.0986451109
H   H109      1.0  0.56190  0.34390  0.90830  1.0000 0.0986451109
H   H110      1.0  0.43810  0.65610  0.40830  1.0000 0.0986451109
H   H111      1.0  0.84390  0.93810  0.15830  1.0000 0.0986451109
H   H112      1.0  0.15610  0.06190  0.65830  1.0000 0.0986451109
H   H113      1.0  0.99540  0.75950  0.67770  1.0000 0.0986451109
H   H114      1.0  0.00460  0.24050  0.17770  1.0000 0.0986451109
H   H115      1.0  0.74050  0.49540  0.42770  1.0000 0.0986451109
H   H116      1.0  0.25950  0.50460  0.92770  1.0000 0.0986451109
H   H117      1.0  0.50460  0.25950  0.07230  1.0000 0.0986451109
H   H118      1.0  0.49540  0.74050  0.57230  1.0000 0.0986451109
H   H119      1.0  0.75950  0.99540  0.32230  1.0000 0.0986451109
H   H120      1.0  0.24050  0.00460  0.82230  1.0000 0.094897972
H   H121      1.0  0.90310  0.64920  0.68810  1.0000 0.1300939187
H   H122      1.0  0.09690  0.35080  0.18810  1.0000 0.1300939187
H   H123      1.0  0.85080  0.40310  0.43810  1.0000 0.1300939187
H   H124      1.0  0.14920  0.59690  0.93810  1.0000 0.1300939187
H   H125      1.0  0.59690  0.14920  0.06190  1.0000 0.1300939187
H   H126      1.0  0.40310  0.85080  0.56190  1.0000 0.1300939187
H   H127      1.0  0.64920  0.90310  0.31190  1.0000 0.1300939187
H   H128      1.0  0.35080  0.09690  0.81190  1.0000 0.1300939187
H   H129      1.0  0.52830  0.75880  0.86150  1.0000 0.2526612177
H   H130      1.0  0.47170  0.24120  0.36150  1.0000 0.2526612177
H   H131      1.0  0.74120  0.02830  0.61150  1.0000 0.2526612177
H   H132      1.0  0.25880  0.97170  0.11150  1.0000 0.2526612177
H   H133      1.0  0.97170  0.25880  0.88850  1.0000 0.2526612177
H   H134      1.0  0.02830  0.74120  0.38850  1.0000 0.2526612177
H   H135      1.0  0.75880  0.52830  0.13850  1.0000 0.2526612177
H   H136      1.0  0.24120  0.47170  0.63850  1.0000 0.2526612177
H   H137      1.0  0.60360  0.75800  0.90000  1.0000 0.2447920754
H   H138      1.0  0.39640  0.24200  0.40000  1.0000 0.2447920754
H   H139      1.0  0.74200  0.10360  0.65000  1.0000 0.2447920754
H   H140      1.0  0.25800  0.89640  0.15000  1.0000 0.2526612177
H   H141      1.0  0.89640  0.25800  0.85000  1.0000 0.2447920754
H   H142      1.0  0.10360  0.74200  0.35000  1.0000 0.2447920754
H   H143      1.0  0.75800  0.60360  0.10000  1.0000 0.2526612177
H   H144      1.0  0.24200  0.39640  0.60000  1.0000 0.2447920754
C   C1        1.0  0.15530  0.79940  0.82760  1.0000 0.0302236504
C   C2        1.0  0.84470  0.20060  0.32760  1.0000 0.0302236504
C   C3        1.0  0.70060  0.65530  0.57760  1.0000 0.0302236504
C   C4        1.0  0.29940  0.34470  0.07760  1.0000 0.0302236504
C   C5        1.0  0.34470  0.29940  0.92240  1.0000 0.0302236504
C   C6        1.0  0.65530  0.70060  0.42240  1.0000 0.0302236504
C   C7        1.0  0.79940  0.15530  0.17240  1.0000 0.0302236504
C   C8        1.0  0.20060  0.84470  0.67240  1.0000 0.0302236504
C   C9        1.0  0.21580  0.76550  0.86520  1.0000 -0.1897270824
C   C10       1.0  0.78420  0.23450  0.36520  1.0000 -0.1897270824
C   C11       1.0  0.73450  0.71580  0.61520  1.0000 -0.1897270824
C   C12       1.0  0.26550  0.28420  0.11520  1.0000 -0.1897270824
C   C13       1.0  0.28420  0.26550  0.88480  1.0000 -0.1897270824
C   C14       1.0  0.71580  0.73450  0.38480  1.0000 -0.1897270824
C   C15       1.0  0.76550  0.21580  0.13480  1.0000 -0.1897270824
C   C16       1.0  0.23450  0.78420  0.63480  1.0000 -0.1897270824
C   C17       1.0  0.24630  0.80890  0.91710  1.0000 0.1100879917
C   C18       1.0  0.75370  0.19110  0.41710  1.0000 0.1100879917
C   C19       1.0  0.69110  0.74630  0.66710  1.0000 0.1100879917
C   C20       1.0  0.30890  0.25370  0.16710  1.0000 0.1100879917
C   C21       1.0  0.25370  0.30890  0.83290  1.0000 0.1100879917
C   C22       1.0  0.74630  0.69110  0.33290  1.0000 0.1100879917
C   C23       1.0  0.80890  0.24630  0.08290  1.0000 0.1100879917
C   C24       1.0  0.19110  0.75370  0.58290  1.0000 0.1100879917
C   C25       1.0  0.20250  0.88460  0.93070  1.0000 -0.2015736343
C   C26       1.0  0.79750  0.11540  0.43070  1.0000 -0.2015736343
C   C27       1.0  0.61540  0.70250  0.68070  1.0000 -0.2015736343
C   C28       1.0  0.38460  0.29750  0.18070  1.0000 -0.2015736343
C   C29       1.0  0.29750  0.38460  0.81930  1.0000 -0.2015736343
C   C30       1.0  0.70250  0.61540  0.31930  1.0000 -0.2015736343
C   C31       1.0  0.88460  0.20250  0.06930  1.0000 -0.2015736343
C   C32       1.0  0.11540  0.79750  0.56930  1.0000 -0.2015736343
C   C33       1.0  0.14220  0.91350  0.89050  1.0000 0.0701010838
C   C34       1.0  0.85780  0.08650  0.39050  1.0000 0.0701010838
C   C35       1.0  0.58650  0.64220  0.64050  1.0000 0.0701010838
C   C36       1.0  0.41350  0.35780  0.14050  1.0000 0.0701010838
C   C37       1.0  0.35780  0.41350  0.85950  1.0000 0.0701010838
C   C38       1.0  0.64220  0.58650  0.35950  1.0000 0.0701010838
C   C39       1.0  0.91350  0.14220  0.10950  1.0000 0.0701010838
C   C40       1.0  0.08650  0.85780  0.60950  1.0000 0.0701010838
C   C41       1.0  0.31750  0.77920  0.95420  1.0000 0.0615837415
C   C42       1.0  0.68250  0.22080  0.45420  1.0000 0.0615837415
C   C43       1.0  0.72080  0.81750  0.70420  1.0000 0.0615837415
C   C44       1.0  0.27920  0.18250  0.20420  1.0000 0.0615837415
C   C45       1.0  0.18250  0.27920  0.79580  1.0000 0.0615837415
C   C46       1.0  0.81750  0.72080  0.29580  1.0000 0.0615837415
C   C47       1.0  0.77920  0.31750  0.04580  1.0000 0.0615837415
C   C48       1.0  0.22080  0.68250  0.54580  1.0000 0.0615837415
C   C49       1.0  0.33560  0.80940  0.01430  1.0000 -0.162628992
C   C50       1.0  0.66440  0.19060  0.51430  1.0000 -0.162628992
C   C51       1.0  0.69060  0.83560  0.76430  1.0000 -0.162628992
C   C52       1.0  0.30940  0.16440  0.26430  1.0000 -0.162628992
C   C53       1.0  0.16440  0.30940  0.73570  1.0000 -0.162628992
C   C54       1.0  0.83560  0.69060  0.23570  1.0000 -0.162628992
C   C55       1.0  0.80940  0.33560  0.98570  1.0000 -0.162628992
C   C56       1.0  0.19060  0.66440  0.48570  1.0000 -0.162628992
C   C57       1.0  0.40350  0.77970  0.04710  1.0000 -0.10344356
C   C58       1.0  0.59650  0.22030  0.54710  1.0000 -0.10344356
C   C59       1.0  0.72030  0.90350  0.79710  1.0000 -0.10344356
C   C60       1.0  0.27970  0.09650  0.29710  1.0000 -0.10344356
C   C61       1.0  0.09650  0.27970  0.70290  1.0000 -0.10344356
C   C62       1.0  0.90350  0.72030  0.20290  1.0000 -0.10344356
C   C63       1.0  0.77970  0.40350  0.95290  1.0000 -0.10344356
C   C64       1.0  0.22030  0.59650  0.45290  1.0000 -0.10344356
C   C65       1.0  0.45770  0.72050  0.02090  1.0000 -0.150057017
C   C66       1.0  0.54230  0.27950  0.52090  1.0000 -0.150057017
C   C67       1.0  0.77950  0.95770  0.77090  1.0000 -0.150057017
C   C68       1.0  0.22050  0.04230  0.27090  1.0000 -0.150057017
C   C69       1.0  0.04230  0.22050  0.72910  1.0000 -0.150057017
C   C70       1.0  0.95770  0.77950  0.22910  1.0000 -0.150057017
C   C71       1.0  0.72050  0.45770  0.97910  1.0000 -0.150057017
C   C72       1.0  0.27950  0.54230  0.47910  1.0000 -0.150057017
C   C73       1.0  0.43980  0.68870  0.96200  1.0000 0.0136888582
C   C74       1.0  0.56020  0.31130  0.46200  1.0000 0.0136888582
C   C75       1.0  0.81130  0.93980  0.71200  1.0000 0.0136888582
C   C76       1.0  0.18870  0.06020  0.21200  1.0000 0.0136888582
C   C77       1.0  0.06020  0.18870  0.78800  1.0000 0.0136888582
C   C78       1.0  0.93980  0.81130  0.28800  1.0000 0.0136888582
C   C79       1.0  0.68870  0.43980  0.03800  1.0000 0.0136888582
C   C80       1.0  0.31130  0.56020  0.53800  1.0000 0.0136888582
C   C81       1.0  0.37040  0.71790  0.92970  1.0000 -0.1844065473
C   C82       1.0  0.62960  0.28210  0.42970  1.0000 -0.1844065473
C   C83       1.0  0.78210  0.87040  0.67970  1.0000 -0.1844065473
C   C84       1.0  0.21790  0.12960  0.17970  1.0000 -0.1844065473
C   C85       1.0  0.12960  0.21790  0.82030  1.0000 -0.1844065473
C   C86       1.0  0.87040  0.78210  0.32030  1.0000 -0.1844065473
C   C87       1.0  0.71790  0.37040  0.07030  1.0000 -0.1844065473
C   C88       1.0  0.28210  0.62960  0.57030  1.0000 -0.1844065473
C   C89       1.0  0.49470  0.62620  0.93160  1.0000 0.1780820727
C   C90       1.0  0.50530  0.37380  0.43160  1.0000 0.1780820727
C   C91       1.0  0.87380  0.99470  0.68160  1.0000 0.1780820727
C   C92       1.0  0.12620  0.00530  0.18160  1.0000 0.1780820727
C   C93       1.0  0.00530  0.12620  0.81840  1.0000 0.1780820727
C   C94       1.0  0.99470  0.87380  0.31840  1.0000 0.1780820727
C   C95       1.0  0.62620  0.49470  0.06840  1.0000 0.1780820727
C   C96       1.0  0.37380  0.50530  0.56840  1.0000 0.1780820727
C   C97       1.0  0.59180  0.57630  0.86800  1.0000 0.1780820727
C   C98       1.0  0.40820  0.42370  0.36800  1.0000 0.1780820727
C   C99       1.0  0.92370  0.09180  0.61800  1.0000 0.1780820727
C   C100      1.0  0.07630  0.90820  0.11800  1.0000 0.1780820727
C   C101      1.0  0.90820  0.07630  0.88200  1.0000 0.1780820727
C   C102      1.0  0.09180  0.92370  0.38200  1.0000 0.1780820727
C   C103      1.0  0.57630  0.59180  0.13200  1.0000 0.1780820727
C   C104      1.0  0.42370  0.40820  0.63200  1.0000 0.1780820727
C   C105      1.0  0.66080  0.56830  0.82390  1.0000 0.0302236504
C   C106      1.0  0.33920  0.43170  0.32390  1.0000 0.0302236504
C   C107      1.0  0.93170  0.16080  0.57390  1.0000 0.0302236504
C   C108      1.0  0.06830  0.83920  0.07390  1.0000 0.0302236504
C   C109      1.0  0.83920  0.06830  0.92610  1.0000 0.0302236504
C   C110      1.0  0.16080  0.93170  0.42610  1.0000 0.0302236504
C   C111      1.0  0.56830  0.66080  0.17610  1.0000 0.0302236504
C   C112      1.0  0.43170  0.33920  0.67610  1.0000 0.0302236504
C   C113      1.0  0.66330  0.49670  0.78740  1.0000 -0.150057017
C   C114      1.0  0.33670  0.50330  0.28740  1.0000 -0.150057017
C   C115      1.0  0.00330  0.16330  0.53740  1.0000 -0.150057017
C   C116      1.0  0.99670  0.83670  0.03740  1.0000 -0.150057017
C   C117      1.0  0.83670  0.99670  0.96260  1.0000 -0.150057017
C   C118      1.0  0.16330  0.00330  0.46260  1.0000 -0.150057017
C   C119      1.0  0.49670  0.66330  0.21260  1.0000 -0.150057017
C   C120      1.0  0.50330  0.33670  0.71260  1.0000 -0.150057017
C   C121      1.0  0.73050  0.48470  0.74680  1.0000 -0.10344356
C   C122      1.0  0.26950  0.51530  0.24680  1.0000 -0.10344356
C   C123      1.0  0.01530  0.23050  0.49680  1.0000 -0.10344356
C   C124      1.0  0.98470  0.76950  0.99680  1.0000 -0.10344356
C   C125      1.0  0.76950  0.98470  0.00320  1.0000 -0.1050793216
C   C126      1.0  0.23050  0.01530  0.50320  1.0000 -0.10344356
C   C127      1.0  0.48470  0.73050  0.25320  1.0000 -0.10344356
C   C128      1.0  0.51530  0.26950  0.75320  1.0000 -0.10344356
C   C129      1.0  0.79270  0.54400  0.74160  1.0000 -0.150057017
C   C130      1.0  0.20730  0.45600  0.24160  1.0000 -0.150057017
C   C131      1.0  0.95600  0.29270  0.49160  1.0000 -0.150057017
C   C132      1.0  0.04400  0.70730  0.99160  1.0000 -0.150057017
C   C133      1.0  0.70730  0.04400  0.00840  1.0000 -0.150057017
C   C134      1.0  0.29270  0.95600  0.50840  1.0000 -0.150057017
C   C135      1.0  0.54400  0.79270  0.25840  1.0000 -0.150057017
C   C136      1.0  0.45600  0.20730  0.75840  1.0000 -0.150057017
C   C137      1.0  0.79150  0.61560  0.77890  1.0000 0.0701010838
C   C138      1.0  0.20850  0.38440  0.27890  1.0000 0.0701010838
C   C139      1.0  0.88440  0.29150  0.52890  1.0000 0.0701010838
C   C140      1.0  0.11560  0.70850  0.02890  1.0000 0.0701010838
C   C141      1.0  0.70850  0.11560  0.97110  1.0000 0.0701010838
C   C142      1.0  0.29150  0.88440  0.47110  1.0000 0.0701010838
C   C143      1.0  0.61560  0.79150  0.22110  1.0000 0.0701010838
C   C144      1.0  0.38440  0.20850  0.72110  1.0000 0.0701010838
C   C145      1.0  0.72520  0.62720  0.81960  1.0000 -0.1897270824
C   C146      1.0  0.27480  0.37280  0.31960  1.0000 -0.1897270824
C   C147      1.0  0.87280  0.22520  0.56960  1.0000 -0.1897270824
C   C148      1.0  0.12720  0.77480  0.06960  1.0000 -0.1897270824
C   C149      1.0  0.77480  0.12720  0.93040  1.0000 -0.1897270824
C   C150      1.0  0.22520  0.87280  0.43040  1.0000 -0.1897270824
C   C151      1.0  0.62720  0.72520  0.18040  1.0000 -0.1897270824
C   C152      1.0  0.37280  0.27480  0.68040  1.0000 -0.1897270824
C   C153      1.0  0.85860  0.68160  0.77300  1.0000 0.1100879917
C   C154      1.0  0.14140  0.31840  0.27300  1.0000 0.1100879917
C   C155      1.0  0.81840  0.35860  0.52300  1.0000 0.1100879917
C   C156      1.0  0.18160  0.64140  0.02300  1.0000 0.1100879917
C   C157      1.0  0.64140  0.18160  0.97700  1.0000 0.1100879917
C   C158      1.0  0.35860  0.81840  0.47700  1.0000 0.1100879917
C   C159      1.0  0.68160  0.85860  0.22700  1.0000 0.1100879917
C   C160      1.0  0.31840  0.14140  0.72700  1.0000 0.1100879917
C   C161      1.0  0.87290  0.74080  0.81940  1.0000 -0.2015736343
C   C162      1.0  0.12710  0.25920  0.31940  1.0000 -0.2015736343
C   C163      1.0  0.75920  0.37290  0.56940  1.0000 -0.2015736343
C   C164      1.0  0.24080  0.62710  0.06940  1.0000 -0.2015736343
C   C165      1.0  0.62710  0.24080  0.93060  1.0000 -0.2015736343
C   C166      1.0  0.37290  0.75920  0.43060  1.0000 -0.2015736343
C   C167      1.0  0.74080  0.87290  0.18060  1.0000 -0.2015736343
C   C168      1.0  0.25920  0.12710  0.68060  1.0000 -0.2015736343
C   C169      1.0  0.93070  0.80450  0.81010  1.0000 0.0615837415
C   C170      1.0  0.06930  0.19550  0.31010  1.0000 0.0615837415
C   C171      1.0  0.69550  0.43070  0.56010  1.0000 0.0615837415
C   C172      1.0  0.30450  0.56930  0.06010  1.0000 0.0615837415
C   C173      1.0  0.56930  0.30450  0.93990  1.0000 0.0615837415
C   C174      1.0  0.43070  0.69550  0.43990  1.0000 0.0615837415
C   C175      1.0  0.80450  0.93070  0.18990  1.0000 0.0615837415
C   C176      1.0  0.19550  0.06930  0.68990  1.0000 0.0615837415
C   C177      1.0  0.96430  0.75520  0.71440  1.0000 0.0764598563
C   C178      1.0  0.03570  0.24480  0.21440  1.0000 0.0764598563
C   C179      1.0  0.74480  0.46430  0.46440  1.0000 0.0764598563
C   C180      1.0  0.25520  0.53570  0.96440  1.0000 0.0764598563
C   C181      1.0  0.53570  0.25520  0.03560  1.0000 0.0764598563
C   C182      1.0  0.46430  0.74480  0.53560  1.0000 0.0764598563
C   C183      1.0  0.75520  0.96430  0.28560  1.0000 0.0764598563
C   C184      1.0  0.24480  0.03570  0.78560  1.0000 0.0764598563
C   C185      1.0  0.90780  0.68870  0.71990  1.0000 -0.2015736343
C   C186      1.0  0.09220  0.31130  0.21990  1.0000 -0.2015736343
C   C187      1.0  0.81130  0.40780  0.46990  1.0000 -0.2015736343
C   C188      1.0  0.18870  0.59220  0.96990  1.0000 -0.2015736343
C   C189      1.0  0.59220  0.18870  0.03010  1.0000 -0.2015736343
C   C190      1.0  0.40780  0.81130  0.53010  1.0000 -0.2015736343
C   C191      1.0  0.68870  0.90780  0.28010  1.0000 -0.2015736343
C   C192      1.0  0.31130  0.09220  0.78010  1.0000 -0.2015736343
N   N1        1.0  0.12060  0.87570  0.83820  1.0000 -0.2367675215
N   N2        1.0  0.87940  0.12430  0.33820  1.0000 -0.2367675215
N   N3        1.0  0.62430  0.62060  0.58820  1.0000 -0.2367675215
N   N4        1.0  0.37570  0.37940  0.08820  1.0000 -0.2367675215
N   N5        1.0  0.37940  0.37570  0.91180  1.0000 -0.2367675215
N   N6        1.0  0.62060  0.62430  0.41180  1.0000 -0.2367675215
N   N7        1.0  0.87570  0.12060  0.16180  1.0000 -0.2367675215
N   N8        1.0  0.12430  0.87940  0.66180  1.0000 -0.2367675215
N   N9        1.0  0.49260  0.54440  0.93400  1.0000 -0.2280128137
N   N10       1.0  0.50740  0.45560  0.43400  1.0000 -0.2280128137
N   N11       1.0  0.95560  0.99260  0.68400  1.0000 -0.2280128137
N   N12       1.0  0.04440  0.00740  0.18400  1.0000 -0.2280128137
N   N13       1.0  0.00740  0.04440  0.81600  1.0000 -0.2280128137
N   N14       1.0  0.99260  0.95560  0.31600  1.0000 -0.2280128137
N   N15       1.0  0.54440  0.49260  0.06600  1.0000 -0.2280128137
N   N16       1.0  0.45560  0.50740  0.56600  1.0000 -0.2280128137
N   N17       1.0  0.55330  0.51240  0.89490  1.0000 -0.2746221111
N   N18       1.0  0.44670  0.48760  0.39490  1.0000 -0.2746221111
N   N19       1.0  0.98760  0.05330  0.64490  1.0000 -0.2746221111
N   N20       1.0  0.01240  0.94670  0.14490  1.0000 -0.2746221111
N   N21       1.0  0.94670  0.01240  0.85510  1.0000 -0.2746221111
N   N22       1.0  0.05330  0.98760  0.35510  1.0000 -0.2746221111
N   N23       1.0  0.51240  0.55330  0.10510  1.0000 -0.2746221111
N   N24       1.0  0.48760  0.44670  0.60510  1.0000 -0.2746221111
N   N25       1.0  0.55590  0.64920  0.89040  1.0000 0.0615837415
N   N26       1.0  0.44410  0.35080  0.39040  1.0000 0.0615837415
N   N27       1.0  0.85080  0.05590  0.64040  1.0000 0.0615837415
N   N28       1.0  0.14920  0.94410  0.14040  1.0000 0.0615837415
N   N29       1.0  0.94410  0.14920  0.85960  1.0000 0.0615837415
N   N30       1.0  0.05590  0.85080  0.35960  1.0000 0.0615837415
N   N31       1.0  0.64920  0.55590  0.10960  1.0000 0.0615837415
N   N32       1.0  0.35080  0.44410  0.60960  1.0000 0.0615837415
N   N33       1.0  0.57570  0.73130  0.86990  1.0000 -0.4911880404
N   N34       1.0  0.42430  0.26870  0.36990  1.0000 -0.4911880404
N   N35       1.0  0.76870  0.07570  0.61990  1.0000 -0.4911880404
N   N36       1.0  0.23130  0.92430  0.11990  1.0000 -0.4911880404
N   N37       1.0  0.92430  0.23130  0.88010  1.0000 -0.4911880404
N   N38       1.0  0.07570  0.76870  0.38010  1.0000 -0.4911880404
N   N39       1.0  0.73130  0.57570  0.13010  1.0000 -0.4911880404
N   N40       1.0  0.26870  0.42430  0.63010  1.0000 -0.4911880404
N   N41       1.0  0.97630  0.81240  0.75810  1.0000 -0.2367675215
N   N42       1.0  0.02370  0.18760  0.25810  1.0000 -0.2367675215
N   N43       1.0  0.68760  0.47630  0.50810  1.0000 -0.2367675215
N   N44       1.0  0.31240  0.52370  0.00810  1.0000 -0.2367675215
N   N45       1.0  0.52370  0.31240  0.99190  1.0000 -0.2367675215
N   N46       1.0  0.47630  0.68760  0.49190  1.0000 -0.2367675215
N   N47       1.0  0.81240  0.97630  0.24190  1.0000 -0.2367675215
N   N48       1.0  0.18760  0.02370  0.74190  1.0000 -0.2367675215
Cl  Cl1       1.0  0.87706  0.87706  0.50000  1.0000 1.0272595003
Cl  Cl2       1.0  0.12294  0.12294  0.00000  1.0000 1.0272595003
Cl  Cl3       1.0  0.37706  0.62294  0.75000  1.0000 1.0272595003
Cl  Cl4       1.0  0.62294  0.37706  0.25000  1.0000 1.0272595003
O   O1        1.0  0.81370  0.89020  0.46300  1.0000 -0.366300045
O   O2        1.0  0.89020  0.81370  0.53700  1.0000 -0.366300045
O   O3        1.0  0.93780  0.87320  0.46240  1.0000 -0.3388113663
O   O4        1.0  0.87320  0.93780  0.53760  1.0000 -0.3388113663
O   O5        1.0  0.18630  0.10980  0.96300  1.0000 -0.366300045
O   O6        1.0  0.10980  0.18630  0.03700  1.0000 -0.366300045
O   O7        1.0  0.06220  0.12680  0.96240  1.0000 -0.3388113663
O   O8        1.0  0.12680  0.06220  0.03760  1.0000 -0.3388113663
O   O9        1.0  0.39020  0.68630  0.71300  1.0000 -0.366300045
O   O10       1.0  0.31370  0.60980  0.78700  1.0000 -0.3646160648
O   O11       1.0  0.37320  0.56220  0.71240  1.0000 -0.3388113663
O   O12       1.0  0.43780  0.62680  0.78760  1.0000 -0.3388113663
O   O13       1.0  0.60980  0.31370  0.21300  1.0000 -0.3646160648
O   O14       1.0  0.68630  0.39020  0.28700  1.0000 -0.366300045
O   O15       1.0  0.62680  0.43780  0.21240  1.0000 -0.3388113663
O   O16       1.0  0.56220  0.37320  0.28760  1.0000 -0.3388113663
