# DDEC6 charges by PACMAN v1.1 (https://github.com/mtap-research/PACMAN-charge/)
data_2010[Cd][nuc]3[ION]13
_chemical_formula_sum              "Cd4 H144 C192 N48 Cl4 O16"
_cell_length_a       15.8878
_cell_length_b       15.8878
_cell_length_c       21.703
_cell_angle_alpha    90
_cell_angle_beta     90
_cell_angle_gamma    90

_symmetry_space_group_name_H-M    "P 1"
_symmetry_Int_Tables_number       1

loop_
  _symmetry_equiv_pos_as_xyz
  'x, y, z'

loop_
  _atom_site_type_symbol
  _atom_site_label
  _atom_site_symmetry_multiplicity
  _atom_site_fract_x
  _atom_site_fract_y
  _atom_site_fract_z
  _atom_site_occupancy
  _atom_site_charge
Cd  Cd1       1.0  0.94117  0.05883  0.25000  1.0000 0.6408223064
Cd  Cd2       1.0  0.05883  0.94117  0.75000  1.0000 0.6408223064
Cd  Cd3       1.0  0.44117  0.44117  0.50000  1.0000 0.6408223064
Cd  Cd4       1.0  0.55883  0.55883  0.00000  1.0000 0.6408223064
H   H1        1.0  0.86000  0.80250  0.13700  1.0000 0.1098001904
H   H2        1.0  0.14000  0.19750  0.63700  1.0000 0.1098001904
H   H3        1.0  0.69750  0.36000  0.38700  1.0000 0.1098001904
H   H4        1.0  0.30250  0.64000  0.88700  1.0000 0.1098001904
H   H5        1.0  0.64000  0.30250  0.11300  1.0000 0.1098001904
H   H6        1.0  0.36000  0.69750  0.61300  1.0000 0.1098001904
H   H7        1.0  0.80250  0.86000  0.86300  1.0000 0.1098001904
H   H8        1.0  0.19750  0.14000  0.36300  1.0000 0.1098001904
H   H9        1.0  0.91090  0.70410  0.33560  1.0000 0.1098001904
H   H10       1.0  0.08910  0.29590  0.83560  1.0000 0.1098001904
H   H11       1.0  0.79590  0.41090  0.58560  1.0000 0.1098001904
H   H12       1.0  0.20410  0.58910  0.08560  1.0000 0.1098001904
H   H13       1.0  0.58910  0.20410  0.91440  1.0000 0.1098001904
H   H14       1.0  0.41090  0.79590  0.41440  1.0000 0.1098001904
H   H15       1.0  0.70410  0.91090  0.66440  1.0000 0.1098001904
H   H16       1.0  0.29590  0.08910  0.16440  1.0000 0.1098001904
H   H17       1.0  0.22400  0.82360  0.09470  1.0000 0.0985841753
H   H18       1.0  0.77600  0.17640  0.59470  1.0000 0.0985841753
H   H19       1.0  0.67640  0.72400  0.34470  1.0000 0.0985841753
H   H20       1.0  0.32360  0.27600  0.84470  1.0000 0.0985841753
H   H21       1.0  0.27600  0.32360  0.15530  1.0000 0.0985841753
H   H22       1.0  0.72400  0.67640  0.65530  1.0000 0.0985841753
H   H23       1.0  0.82360  0.22400  0.90530  1.0000 0.0985841753
H   H24       1.0  0.17640  0.77600  0.40530  1.0000 0.0985841753
H   H25       1.0  0.23350  0.06600  0.97370  1.0000 0.1098001904
H   H26       1.0  0.76650  0.93400  0.47370  1.0000 0.1098001904
H   H27       1.0  0.43400  0.73350  0.22370  1.0000 0.1098001904
H   H28       1.0  0.56600  0.26650  0.72370  1.0000 0.1098001904
H   H29       1.0  0.26650  0.56600  0.27630  1.0000 0.1098001904
H   H30       1.0  0.73350  0.43400  0.77630  1.0000 0.1098001904
H   H31       1.0  0.06600  0.23350  0.02630  1.0000 0.1098001904
H   H32       1.0  0.93400  0.76650  0.52630  1.0000 0.1098001904
H   H33       1.0  0.34430  0.76300  0.10720  1.0000 0.1289754409
H   H34       1.0  0.65570  0.23700  0.60720  1.0000 0.1289754409
H   H35       1.0  0.73700  0.84430  0.35720  1.0000 0.1289754409
H   H36       1.0  0.26300  0.15570  0.85720  1.0000 0.1289754409
H   H37       1.0  0.15570  0.26300  0.14280  1.0000 0.1289754409
H   H38       1.0  0.84430  0.73700  0.64280  1.0000 0.1289754409
H   H39       1.0  0.76300  0.34430  0.89280  1.0000 0.1289754409
H   H40       1.0  0.23700  0.65570  0.39280  1.0000 0.1289754409
H   H41       1.0  0.33830  0.96520  0.96430  1.0000 0.1098001904
H   H42       1.0  0.66170  0.03480  0.46430  1.0000 0.1098001904
H   H43       1.0  0.53480  0.83830  0.21430  1.0000 0.1098001904
H   H44       1.0  0.46520  0.16170  0.71430  1.0000 0.1098001904
H   H45       1.0  0.16170  0.46520  0.28570  1.0000 0.1098001904
H   H46       1.0  0.83830  0.53480  0.78570  1.0000 0.1098001904
H   H47       1.0  0.96520  0.33830  0.03570  1.0000 0.1098001904
H   H48       1.0  0.03480  0.66170  0.53570  1.0000 0.1098001904
H   H49       1.0  0.79500  0.65420  0.28090  1.0000 0.0985841753
H   H50       1.0  0.20500  0.34580  0.78090  1.0000 0.0985841753
H   H51       1.0  0.84580  0.29500  0.53090  1.0000 0.0985841753
H   H52       1.0  0.15420  0.70500  0.03090  1.0000 0.0985841753
H   H53       1.0  0.70500  0.15420  0.96910  1.0000 0.0985841753
H   H54       1.0  0.29500  0.84580  0.46910  1.0000 0.0985841753
H   H55       1.0  0.65420  0.79500  0.71910  1.0000 0.0985841753
H   H56       1.0  0.34580  0.20500  0.21910  1.0000 0.0985841753
H   H57       1.0  0.73610  0.78980  0.10530  1.0000 0.1289754409
H   H58       1.0  0.26390  0.21020  0.60530  1.0000 0.1289754409
H   H59       1.0  0.71020  0.23610  0.35530  1.0000 0.1289754409
H   H60       1.0  0.28980  0.76390  0.85530  1.0000 0.1289754409
H   H61       1.0  0.76390  0.28980  0.14470  1.0000 0.1289754409
H   H62       1.0  0.23610  0.71020  0.64470  1.0000 0.1289754409
H   H63       1.0  0.78980  0.73610  0.89470  1.0000 0.1289754409
H   H64       1.0  0.21020  0.26390  0.39470  1.0000 0.1289754409
H   H65       1.0  0.63960  0.73060  0.04080  1.0000 0.0985841753
H   H66       1.0  0.36040  0.26940  0.54080  1.0000 0.0985841753
H   H67       1.0  0.76940  0.13960  0.29080  1.0000 0.0985841753
H   H68       1.0  0.23060  0.86040  0.79080  1.0000 0.0985841753
H   H69       1.0  0.86040  0.23060  0.20920  1.0000 0.0985841753
H   H70       1.0  0.13960  0.76940  0.70920  1.0000 0.0985841753
H   H71       1.0  0.73060  0.63960  0.95920  1.0000 0.0985841753
H   H72       1.0  0.26940  0.36040  0.45920  1.0000 0.0985841753
H   H73       1.0  0.61190  0.53740  0.15010  1.0000 0.0985841753
H   H74       1.0  0.38810  0.46260  0.65010  1.0000 0.0985841753
H   H75       1.0  0.96260  0.11190  0.40010  1.0000 0.0985841753
H   H76       1.0  0.03740  0.88810  0.90010  1.0000 0.0985841753
H   H77       1.0  0.88810  0.03740  0.09990  1.0000 0.0985841753
H   H78       1.0  0.11190  0.96260  0.59990  1.0000 0.0985841753
H   H79       1.0  0.53740  0.61190  0.84990  1.0000 0.0985841753
H   H80       1.0  0.46260  0.38810  0.34990  1.0000 0.0985841753
H   H81       1.0  0.09080  0.73750  0.14990  1.0000 0.258411605
H   H82       1.0  0.90920  0.26250  0.64990  1.0000 0.258411605
H   H83       1.0  0.76250  0.59080  0.39990  1.0000 0.258411605
H   H84       1.0  0.23750  0.40920  0.89990  1.0000 0.258411605
H   H85       1.0  0.40920  0.23750  0.10010  1.0000 0.258411605
H   H86       1.0  0.59080  0.76250  0.60010  1.0000 0.258411605
H   H87       1.0  0.73750  0.09080  0.85010  1.0000 0.258411605
H   H88       1.0  0.26250  0.90920  0.35010  1.0000 0.258411605
H   H89       1.0  0.02730  0.74710  0.10010  1.0000 0.258411605
H   H90       1.0  0.97270  0.25290  0.60010  1.0000 0.258411605
H   H91       1.0  0.75290  0.52730  0.35010  1.0000 0.258411605
H   H92       1.0  0.24710  0.47270  0.85010  1.0000 0.258411605
H   H93       1.0  0.47270  0.24710  0.14990  1.0000 0.258411605
H   H94       1.0  0.52730  0.75290  0.64990  1.0000 0.258411605
H   H95       1.0  0.74710  0.02730  0.89990  1.0000 0.258411605
H   H96       1.0  0.25290  0.97270  0.39990  1.0000 0.258411605
H   H97       1.0  0.71450  0.58690  0.21600  1.0000 0.1289754409
H   H98       1.0  0.28550  0.41310  0.71600  1.0000 0.1289754409
H   H99       1.0  0.91310  0.21450  0.46600  1.0000 0.1289754409
H   H100      1.0  0.08690  0.78550  0.96600  1.0000 0.1289754409
H   H101      1.0  0.78550  0.08690  0.03400  1.0000 0.1289754409
H   H102      1.0  0.21450  0.91310  0.53400  1.0000 0.1289754409
H   H103      1.0  0.58690  0.71450  0.78400  1.0000 0.1289754409
H   H104      1.0  0.41310  0.28550  0.28400  1.0000 0.1289754409
H   H105      1.0  0.12230  0.04620  0.04090  1.0000 0.1098001904
H   H106      1.0  0.87770  0.95380  0.54090  1.0000 0.1098001904
H   H107      1.0  0.45380  0.62230  0.29090  1.0000 0.1098001904
H   H108      1.0  0.54620  0.37770  0.79090  1.0000 0.1098001904
H   H109      1.0  0.37770  0.54620  0.20910  1.0000 0.1098001904
H   H110      1.0  0.62230  0.45380  0.70910  1.0000 0.1098001904
H   H111      1.0  0.04620  0.12230  0.95910  1.0000 0.1098001904
H   H112      1.0  0.95380  0.87770  0.45910  1.0000 0.1098001904
H   H113      1.0  0.40160  0.85140  0.93820  1.0000 0.1289754409
H   H114      1.0  0.59840  0.14860  0.43820  1.0000 0.1289754409
H   H115      1.0  0.64860  0.90160  0.18820  1.0000 0.1289754409
H   H116      1.0  0.35140  0.09840  0.68820  1.0000 0.1289754409
H   H117      1.0  0.09840  0.35140  0.31180  1.0000 0.1289754409
H   H118      1.0  0.90160  0.64860  0.81180  1.0000 0.1289754409
H   H119      1.0  0.85140  0.40160  0.06180  1.0000 0.1289754409
H   H120      1.0  0.14860  0.59840  0.56180  1.0000 0.1289754409
H   H121      1.0  0.00350  0.80090  0.29080  1.0000 0.1098001904
H   H122      1.0  0.99650  0.19910  0.79080  1.0000 0.1098001904
H   H123      1.0  0.69910  0.50350  0.54080  1.0000 0.1098001904
H   H124      1.0  0.30090  0.49650  0.04080  1.0000 0.1098001904
H   H125      1.0  0.49650  0.30090  0.95920  1.0000 0.1098001904
H   H126      1.0  0.50350  0.69910  0.45920  1.0000 0.1098001904
H   H127      1.0  0.80090  0.00350  0.70920  1.0000 0.1098001904
H   H128      1.0  0.19910  0.99650  0.20920  1.0000 0.1098001904
H   H129      1.0  0.43830  0.65510  0.09060  1.0000 0.0985841753
H   H130      1.0  0.56170  0.34490  0.59060  1.0000 0.0985841753
H   H131      1.0  0.84490  0.93830  0.34060  1.0000 0.0985841753
H   H132      1.0  0.15510  0.06170  0.84060  1.0000 0.0985841753
H   H133      1.0  0.06170  0.15510  0.15940  1.0000 0.0985841753
H   H134      1.0  0.93830  0.84490  0.65940  1.0000 0.0985841753
H   H135      1.0  0.65510  0.43830  0.90940  1.0000 0.0985841753
H   H136      1.0  0.34490  0.56170  0.40940  1.0000 0.0985841753
H   H137      1.0  0.49470  0.74000  0.92640  1.0000 0.0985841753
H   H138      1.0  0.50530  0.26000  0.42640  1.0000 0.0985841753
H   H139      1.0  0.76000  0.99470  0.17640  1.0000 0.0985841753
H   H140      1.0  0.24000  0.00530  0.67640  1.0000 0.0985841753
H   H141      1.0  0.00530  0.24000  0.32360  1.0000 0.0985841753
H   H142      1.0  0.99470  0.76000  0.82360  1.0000 0.0985841753
H   H143      1.0  0.74000  0.49470  0.07360  1.0000 0.0985841753
H   H144      1.0  0.26000  0.50530  0.57360  1.0000 0.0985841753
C   C1        1.0  0.16140  0.93280  0.07430  1.0000 0.0388187153
C   C2        1.0  0.83860  0.06720  0.57430  1.0000 0.0388187153
C   C3        1.0  0.56720  0.66140  0.32430  1.0000 0.0388187153
C   C4        1.0  0.43280  0.33860  0.82430  1.0000 0.0388187153
C   C5        1.0  0.33860  0.43280  0.17570  1.0000 0.0388187153
C   C6        1.0  0.66140  0.56720  0.67570  1.0000 0.0388187153
C   C7        1.0  0.93280  0.16140  0.92570  1.0000 0.0388187153
C   C8        1.0  0.06720  0.83860  0.42570  1.0000 0.0388187153
C   C9        1.0  0.09220  0.92510  0.11810  1.0000 0.1795511927
C   C10       1.0  0.90780  0.07490  0.61810  1.0000 0.1795511927
C   C11       1.0  0.57490  0.59220  0.36810  1.0000 0.1795511927
C   C12       1.0  0.42510  0.40780  0.86810  1.0000 0.1795511927
C   C13       1.0  0.40780  0.42510  0.13190  1.0000 0.1795511927
C   C14       1.0  0.59220  0.57490  0.63190  1.0000 0.1795511927
C   C15       1.0  0.92510  0.09220  0.88190  1.0000 0.1795511927
C   C16       1.0  0.07490  0.90780  0.38190  1.0000 0.1795511927
C   C17       1.0  0.99470  0.87370  0.18000  1.0000 0.1795511927
C   C18       1.0  0.00530  0.12630  0.68000  1.0000 0.1795511927
C   C19       1.0  0.62630  0.49470  0.43000  1.0000 0.1795511927
C   C20       1.0  0.37370  0.50530  0.93000  1.0000 0.1795511927
C   C21       1.0  0.50530  0.37370  0.07000  1.0000 0.1795511927
C   C22       1.0  0.49470  0.62630  0.57000  1.0000 0.1795511927
C   C23       1.0  0.87370  0.99470  0.82000  1.0000 0.1795511927
C   C24       1.0  0.12630  0.00530  0.32000  1.0000 0.1795511927
C   C25       1.0  0.87050  0.78210  0.17750  1.0000 -0.1905016053
C   C26       1.0  0.12950  0.21790  0.67750  1.0000 -0.1905016053
C   C27       1.0  0.71790  0.37050  0.42750  1.0000 -0.1905016053
C   C28       1.0  0.28210  0.62950  0.92750  1.0000 -0.1905016053
C   C29       1.0  0.62950  0.28210  0.07250  1.0000 -0.1905016053
C   C30       1.0  0.37050  0.71790  0.57250  1.0000 -0.1905016053
C   C31       1.0  0.78210  0.87050  0.82250  1.0000 -0.1905016053
C   C32       1.0  0.21790  0.12950  0.32250  1.0000 -0.1905016053
C   C33       1.0  0.90080  0.72380  0.29500  1.0000 -0.1046105794
C   C34       1.0  0.09920  0.27620  0.79500  1.0000 -0.1053545921
C   C35       1.0  0.77620  0.40080  0.54500  1.0000 -0.1046105794
C   C36       1.0  0.22380  0.59920  0.04500  1.0000 -0.1053545921
C   C37       1.0  0.59920  0.22380  0.95500  1.0000 -0.1046105794
C   C38       1.0  0.40080  0.77620  0.45500  1.0000 -0.1053545921
C   C39       1.0  0.72380  0.90080  0.70500  1.0000 -0.1046105794
C   C40       1.0  0.27620  0.09920  0.20500  1.0000 -0.1046105794
C   C41       1.0  0.22570  0.87270  0.06970  1.0000 -0.1905016053
C   C42       1.0  0.77430  0.12730  0.56970  1.0000 -0.1905016053
C   C43       1.0  0.62730  0.72570  0.31970  1.0000 -0.1905016053
C   C44       1.0  0.37270  0.27430  0.81970  1.0000 -0.1905016053
C   C45       1.0  0.27430  0.37270  0.18030  1.0000 -0.1905016053
C   C46       1.0  0.72570  0.62730  0.68030  1.0000 -0.1905016053
C   C47       1.0  0.87270  0.22570  0.93030  1.0000 -0.1905016053
C   C48       1.0  0.12730  0.77430  0.43030  1.0000 -0.1905016053
C   C49       1.0  0.23110  0.01640  0.99800  1.0000 -0.1046105794
C   C50       1.0  0.76890  0.98360  0.49800  1.0000 -0.1046105794
C   C51       1.0  0.48360  0.73110  0.24800  1.0000 -0.1046105794
C   C52       1.0  0.51640  0.26890  0.74800  1.0000 -0.1046105794
C   C53       1.0  0.26890  0.51640  0.25200  1.0000 -0.1046105794
C   C54       1.0  0.73110  0.48360  0.75200  1.0000 -0.1046105794
C   C55       1.0  0.01640  0.23110  0.00200  1.0000 -0.1046105794
C   C56       1.0  0.98360  0.76890  0.50200  1.0000 -0.1046105794
C   C57       1.0  0.37330  0.75930  0.06900  1.0000 -0.2009455561
C   C58       1.0  0.62670  0.24070  0.56900  1.0000 -0.2009455561
C   C59       1.0  0.74070  0.87330  0.31900  1.0000 -0.2009455561
C   C60       1.0  0.25930  0.12670  0.81900  1.0000 -0.2009455561
C   C61       1.0  0.12670  0.25930  0.18100  1.0000 -0.2009455561
C   C62       1.0  0.87330  0.74070  0.68100  1.0000 -0.2009455561
C   C63       1.0  0.75930  0.37330  0.93100  1.0000 -0.2009455561
C   C64       1.0  0.24070  0.62670  0.43100  1.0000 -0.2009455561
C   C65       1.0  0.35820  0.81870  0.02240  1.0000 0.1098001904
C   C66       1.0  0.64180  0.18130  0.52240  1.0000 0.1098001904
C   C67       1.0  0.68130  0.85820  0.27240  1.0000 0.1098001904
C   C68       1.0  0.31870  0.14180  0.77240  1.0000 0.1098001904
C   C69       1.0  0.14180  0.31870  0.22760  1.0000 0.1098001904
C   C70       1.0  0.85820  0.68130  0.72760  1.0000 0.1098001904
C   C71       1.0  0.81870  0.35820  0.97760  1.0000 0.1098001904
C   C72       1.0  0.18130  0.64180  0.47760  1.0000 0.1098001904
C   C73       1.0  0.29360  0.95680  0.99280  1.0000 -0.1565609573
C   C74       1.0  0.70640  0.04320  0.49280  1.0000 -0.1565609573
C   C75       1.0  0.54320  0.79360  0.24280  1.0000 -0.1565609573
C   C76       1.0  0.45680  0.20640  0.74280  1.0000 -0.1565609573
C   C77       1.0  0.20640  0.45680  0.25720  1.0000 -0.1565609573
C   C78       1.0  0.79360  0.54320  0.75720  1.0000 -0.1565609573
C   C79       1.0  0.95680  0.29360  0.00720  1.0000 -0.1565609573
C   C80       1.0  0.04320  0.70640  0.50720  1.0000 -0.1565609573
C   C81       1.0  0.83190  0.69400  0.26250  1.0000 -0.16637028
C   C82       1.0  0.16810  0.30600  0.76250  1.0000 -0.16637028
C   C83       1.0  0.80600  0.33190  0.51250  1.0000 -0.16637028
C   C84       1.0  0.19400  0.66810  0.01250  1.0000 -0.16637028
C   C85       1.0  0.66810  0.19400  0.98750  1.0000 -0.16637028
C   C86       1.0  0.33190  0.80600  0.48750  1.0000 -0.16637028
C   C87       1.0  0.69400  0.83190  0.73750  1.0000 -0.16637028
C   C88       1.0  0.30600  0.16810  0.23750  1.0000 -0.16637028
C   C89       1.0  0.81660  0.72270  0.20240  1.0000 0.0687743544
C   C90       1.0  0.18340  0.27730  0.70240  1.0000 0.0687743544
C   C91       1.0  0.77730  0.31660  0.45240  1.0000 0.0687743544
C   C92       1.0  0.22270  0.68340  0.95240  1.0000 0.0687743544
C   C93       1.0  0.68340  0.22270  0.04760  1.0000 0.0687743544
C   C94       1.0  0.31660  0.77730  0.54760  1.0000 0.0687743544
C   C95       1.0  0.72270  0.81660  0.79760  1.0000 0.0687743544
C   C96       1.0  0.27730  0.18340  0.29760  1.0000 0.0687743544
C   C97       1.0  0.71470  0.73530  0.11410  1.0000 -0.1905016053
C   C98       1.0  0.28530  0.26470  0.61410  1.0000 -0.1905016053
C   C99       1.0  0.76470  0.21470  0.36410  1.0000 -0.1905016053
C   C100      1.0  0.23530  0.78530  0.86410  1.0000 -0.1905016053
C   C101      1.0  0.78530  0.23530  0.13590  1.0000 -0.1905016053
C   C102      1.0  0.21470  0.76470  0.63590  1.0000 -0.1905016053
C   C103      1.0  0.73530  0.71470  0.88590  1.0000 -0.1905016053
C   C104      1.0  0.26470  0.28530  0.38590  1.0000 -0.1905016053
C   C105      1.0  0.65600  0.70020  0.07660  1.0000 0.0313947202
C   C106      1.0  0.34400  0.29980  0.57660  1.0000 0.0313947202
C   C107      1.0  0.79980  0.15600  0.32660  1.0000 0.0313947202
C   C108      1.0  0.20020  0.84400  0.82660  1.0000 0.0313947202
C   C109      1.0  0.84400  0.20020  0.17340  1.0000 0.0313947202
C   C110      1.0  0.15600  0.79980  0.67340  1.0000 0.0313947202
C   C111      1.0  0.70020  0.65600  0.92340  1.0000 0.0313947202
C   C112      1.0  0.29980  0.34400  0.42340  1.0000 0.0313947202
C   C113      1.0  0.64070  0.58770  0.13940  1.0000 0.0621230484
C   C114      1.0  0.35930  0.41230  0.63940  1.0000 0.0621230484
C   C115      1.0  0.91230  0.14070  0.38940  1.0000 0.0621230484
C   C116      1.0  0.08770  0.85930  0.88940  1.0000 0.0621230484
C   C117      1.0  0.85930  0.08770  0.11060  1.0000 0.0621230484
C   C118      1.0  0.14070  0.91230  0.61060  1.0000 0.0621230484
C   C119      1.0  0.58770  0.64070  0.86060  1.0000 0.0621230484
C   C120      1.0  0.41230  0.35930  0.36060  1.0000 0.0621230484
C   C121      1.0  0.74370  0.69180  0.16540  1.0000 0.1175147222
C   C122      1.0  0.25630  0.30820  0.66540  1.0000 0.1175147222
C   C123      1.0  0.80820  0.24370  0.41540  1.0000 0.1175147222
C   C124      1.0  0.19180  0.75630  0.91540  1.0000 0.1175147222
C   C125      1.0  0.75630  0.19180  0.08460  1.0000 0.1175147222
C   C126      1.0  0.24370  0.80820  0.58460  1.0000 0.1175147222
C   C127      1.0  0.69180  0.74370  0.83460  1.0000 0.1175147222
C   C128      1.0  0.30820  0.25630  0.33460  1.0000 0.1175147222
C   C129      1.0  0.70150  0.61710  0.17940  1.0000 -0.2009455561
C   C130      1.0  0.29850  0.38290  0.67940  1.0000 -0.2009455561
C   C131      1.0  0.88290  0.20150  0.42940  1.0000 -0.2009455561
C   C132      1.0  0.11710  0.79850  0.92940  1.0000 -0.2009455561
C   C133      1.0  0.79850  0.11710  0.07060  1.0000 -0.2009455561
C   C134      1.0  0.20150  0.88290  0.57060  1.0000 -0.2009455561
C   C135      1.0  0.61710  0.70150  0.82060  1.0000 -0.2009455561
C   C136      1.0  0.38290  0.29850  0.32060  1.0000 -0.2009455561
C   C137      1.0  0.29190  0.88480  0.02880  1.0000 0.0687743544
C   C138      1.0  0.70810  0.11520  0.52880  1.0000 0.0687743544
C   C139      1.0  0.61520  0.79190  0.27880  1.0000 0.0687743544
C   C140      1.0  0.38480  0.20810  0.77880  1.0000 0.0687743544
C   C141      1.0  0.20810  0.38480  0.22120  1.0000 0.0687743544
C   C142      1.0  0.79190  0.61520  0.72120  1.0000 0.0687743544
C   C143      1.0  0.88480  0.29190  0.97120  1.0000 0.0687743544
C   C144      1.0  0.11520  0.70810  0.47120  1.0000 0.0687743544
C   C145      1.0  0.16530  0.00490  0.03800  1.0000 -0.1529317972
C   C146      1.0  0.83470  0.99510  0.53800  1.0000 -0.1529317972
C   C147      1.0  0.49510  0.66530  0.28800  1.0000 -0.1529317972
C   C148      1.0  0.50490  0.33470  0.78800  1.0000 -0.1529317972
C   C149      1.0  0.33470  0.50490  0.21200  1.0000 -0.1529317972
C   C150      1.0  0.66530  0.49510  0.71200  1.0000 -0.1529317972
C   C151      1.0  0.00490  0.16530  0.96200  1.0000 -0.1529317972
C   C152      1.0  0.99510  0.83470  0.46200  1.0000 -0.1529317972
C   C153      1.0  0.40680  0.81100  0.97020  1.0000 -0.2009455561
C   C154      1.0  0.59320  0.18900  0.47020  1.0000 -0.2009455561
C   C155      1.0  0.68900  0.90680  0.22020  1.0000 -0.2009455561
C   C156      1.0  0.31100  0.09320  0.72020  1.0000 -0.2009455561
C   C157      1.0  0.09320  0.31100  0.27980  1.0000 -0.2009455561
C   C158      1.0  0.90680  0.68900  0.77980  1.0000 -0.2009455561
C   C159      1.0  0.81100  0.40680  0.02980  1.0000 -0.2009455561
C   C160      1.0  0.18900  0.59320  0.52980  1.0000 -0.2009455561
C   C161      1.0  0.93890  0.81270  0.20970  1.0000 0.0126623969
C   C162      1.0  0.06110  0.18730  0.70970  1.0000 0.0126623969
C   C163      1.0  0.68730  0.43890  0.45970  1.0000 0.0126623969
C   C164      1.0  0.31270  0.56110  0.95970  1.0000 0.0126623969
C   C165      1.0  0.56110  0.31270  0.04030  1.0000 0.0126623969
C   C166      1.0  0.43890  0.68730  0.54030  1.0000 0.0126623969
C   C167      1.0  0.81270  0.93890  0.79030  1.0000 0.0126623969
C   C168      1.0  0.18730  0.06110  0.29030  1.0000 0.0126623969
C   C169      1.0  0.95540  0.78210  0.26870  1.0000 -0.1529317972
C   C170      1.0  0.04460  0.21790  0.76870  1.0000 -0.1529317972
C   C171      1.0  0.71790  0.45540  0.51870  1.0000 -0.1529317972
C   C172      1.0  0.28210  0.54460  0.01870  1.0000 -0.1529317972
C   C173      1.0  0.54460  0.28210  0.98130  1.0000 -0.1529317972
C   C174      1.0  0.45540  0.71790  0.48130  1.0000 -0.1529317972
C   C175      1.0  0.78210  0.95540  0.73130  1.0000 -0.1529317972
C   C176      1.0  0.21790  0.04460  0.23130  1.0000 -0.1529317972
C   C177      1.0  0.43060  0.69560  0.05900  1.0000 0.0687743544
C   C178      1.0  0.56940  0.30440  0.55900  1.0000 0.0687743544
C   C179      1.0  0.80440  0.93060  0.30900  1.0000 0.0621230484
C   C180      1.0  0.19560  0.06940  0.80900  1.0000 0.0687743544
C   C181      1.0  0.06940  0.19560  0.19100  1.0000 0.0687743544
C   C182      1.0  0.93060  0.80440  0.69100  1.0000 0.0687743544
C   C183      1.0  0.69560  0.43060  0.94100  1.0000 0.0621230484
C   C184      1.0  0.30440  0.56940  0.44100  1.0000 0.0687743544
C   C185      1.0  0.46360  0.74450  0.96360  1.0000 0.0687743544
C   C186      1.0  0.53640  0.25550  0.46360  1.0000 0.0687743544
C   C187      1.0  0.75550  0.96360  0.21360  1.0000 0.0687743544
C   C188      1.0  0.24450  0.03640  0.71360  1.0000 0.0687743544
C   C189      1.0  0.03640  0.24450  0.28640  1.0000 0.0687743544
C   C190      1.0  0.96360  0.75550  0.78640  1.0000 0.0687743544
C   C191      1.0  0.74450  0.46360  0.03640  1.0000 0.0687743544
C   C192      1.0  0.25550  0.53640  0.53640  1.0000 0.0687743544
N   N1        1.0  0.05500  0.85130  0.13880  1.0000 0.0687743544
N   N2        1.0  0.94500  0.14870  0.63880  1.0000 0.0687743544
N   N3        1.0  0.64870  0.55500  0.38880  1.0000 0.0687743544
N   N4        1.0  0.35130  0.44500  0.88880  1.0000 0.0687743544
N   N5        1.0  0.44500  0.35130  0.11120  1.0000 0.0687743544
N   N6        1.0  0.55500  0.64870  0.61120  1.0000 0.0687743544
N   N7        1.0  0.85130  0.05500  0.86120  1.0000 0.0687743544
N   N8        1.0  0.14870  0.94500  0.36120  1.0000 0.0687743544
N   N9        1.0  0.61980  0.62530  0.08690  1.0000 -0.2287884661
N   N10       1.0  0.38020  0.37470  0.58690  1.0000 -0.2287884661
N   N11       1.0  0.87470  0.11980  0.33690  1.0000 -0.2287884661
N   N12       1.0  0.12530  0.88020  0.83690  1.0000 -0.2287884661
N   N13       1.0  0.88020  0.12530  0.16310  1.0000 -0.2287884661
N   N14       1.0  0.11980  0.87470  0.66310  1.0000 -0.2287884661
N   N15       1.0  0.62530  0.61980  0.91310  1.0000 -0.2287884661
N   N16       1.0  0.37470  0.38020  0.41310  1.0000 -0.2287884661
N   N17       1.0  0.05480  0.98800  0.14520  1.0000 -0.2659584357
N   N18       1.0  0.94520  0.01200  0.64520  1.0000 -0.2659584357
N   N19       1.0  0.51200  0.55480  0.39520  1.0000 -0.2659584357
N   N20       1.0  0.48800  0.44520  0.89520  1.0000 -0.2659584357
N   N21       1.0  0.44520  0.48800  0.10480  1.0000 -0.2659584357
N   N22       1.0  0.55480  0.51200  0.60480  1.0000 -0.2659584357
N   N23       1.0  0.98800  0.05480  0.85480  1.0000 -0.2659584357
N   N24       1.0  0.01200  0.94520  0.35480  1.0000 -0.2659584357
N   N25       1.0  0.99370  0.95590  0.18320  1.0000 -0.2287884661
N   N26       1.0  0.00630  0.04410  0.68320  1.0000 -0.2287884661
N   N27       1.0  0.54410  0.49370  0.43320  1.0000 -0.2287884661
N   N28       1.0  0.45590  0.50630  0.93320  1.0000 -0.2287884661
N   N29       1.0  0.50630  0.45590  0.06680  1.0000 -0.2287884661
N   N30       1.0  0.49370  0.54410  0.56680  1.0000 -0.2287884661
N   N31       1.0  0.95590  0.99370  0.81680  1.0000 -0.2287884661
N   N32       1.0  0.04410  0.00630  0.31680  1.0000 -0.2287884661
N   N33       1.0  0.47570  0.68730  0.00750  1.0000 -0.2388913183
N   N34       1.0  0.52430  0.31270  0.50750  1.0000 -0.2388913183
N   N35       1.0  0.81270  0.97570  0.25750  1.0000 -0.2388913183
N   N36       1.0  0.18730  0.02430  0.75750  1.0000 -0.2388913183
N   N37       1.0  0.02430  0.18730  0.24250  1.0000 -0.2388913183
N   N38       1.0  0.97570  0.81270  0.74250  1.0000 -0.2388913183
N   N39       1.0  0.68730  0.47570  0.99250  1.0000 -0.2388913183
N   N40       1.0  0.31270  0.52430  0.49250  1.0000 -0.2388913183
N   N41       1.0  0.07410  0.77000  0.11760  1.0000 -0.4978846608
N   N42       1.0  0.92590  0.23000  0.61760  1.0000 -0.4978846608
N   N43       1.0  0.73000  0.57410  0.36760  1.0000 -0.4978846608
N   N44       1.0  0.27000  0.42590  0.86760  1.0000 -0.4978846608
N   N45       1.0  0.42590  0.27000  0.13240  1.0000 -0.4978846608
N   N46       1.0  0.57410  0.73000  0.63240  1.0000 -0.4978846608
N   N47       1.0  0.77000  0.07410  0.88240  1.0000 -0.4978846608
N   N48       1.0  0.23000  0.92590  0.38240  1.0000 -0.4978846608
Cl  Cl1       1.0  0.37902  0.62098  0.75000  1.0000 1.0167180897
Cl  Cl2       1.0  0.62098  0.37902  0.25000  1.0000 1.0167180897
Cl  Cl3       1.0  0.12098  0.12098  0.50000  1.0000 1.0167180897
Cl  Cl4       1.0  0.87902  0.87902  0.00000  1.0000 1.0167180897
O   O1        1.0  0.36580  0.55940  0.78500  1.0000 -0.3354292511
O   O2        1.0  0.44060  0.63420  0.71500  1.0000 -0.3354292511
O   O3        1.0  0.38980  0.67730  0.79490  1.0000 -0.3771172537
O   O4        1.0  0.32270  0.61020  0.70510  1.0000 -0.3771172537
O   O5        1.0  0.63420  0.44060  0.28500  1.0000 -0.3354292511
O   O6        1.0  0.55940  0.36580  0.21500  1.0000 -0.3354292511
O   O7        1.0  0.61020  0.32270  0.29490  1.0000 -0.3771172537
O   O8        1.0  0.67730  0.38980  0.20510  1.0000 -0.3771172537
O   O9        1.0  0.05940  0.13420  0.53500  1.0000 -0.3354292511
O   O10       1.0  0.13420  0.05940  0.46500  1.0000 -0.3354292511
O   O11       1.0  0.17730  0.11020  0.54490  1.0000 -0.3771172537
O   O12       1.0  0.11020  0.17730  0.45510  1.0000 -0.3771172537
O   O13       1.0  0.94060  0.86580  0.03500  1.0000 -0.3354292511
O   O14       1.0  0.86580  0.94060  0.96500  1.0000 -0.334886521
O   O15       1.0  0.82270  0.88980  0.04490  1.0000 -0.3771172537
O   O16       1.0  0.88980  0.82270  0.95510  1.0000 -0.3771172537
