# DDEC6 charges by PACMAN v1.1 (https://github.com/mtap-research/PACMAN-charge/)
data_2010[Cd][rtl]3[ION]1
_chemical_formula_sum              "Cd4 H44 C44 N4 O24"
_cell_length_a       10.0957
_cell_length_b       14.3518
_cell_length_c       14.0989
_cell_angle_alpha    90
_cell_angle_beta     117.79
_cell_angle_gamma    90

_symmetry_space_group_name_H-M    "P 1"
_symmetry_Int_Tables_number       1

loop_
  _symmetry_equiv_pos_as_xyz
  'x, y, z'

loop_
  _atom_site_type_symbol
  _atom_site_label
  _atom_site_symmetry_multiplicity
  _atom_site_fract_x
  _atom_site_fract_y
  _atom_site_fract_z
  _atom_site_occupancy
  _atom_site_charge
Cd  Cd1       1.0  0.15170  0.06623  0.06047  1.0000 0.9941811148
Cd  Cd2       1.0  0.84830  0.56623  0.43953  1.0000 0.9941811148
Cd  Cd3       1.0  0.84830  0.93377  0.93953  1.0000 0.9941811148
Cd  Cd4       1.0  0.15170  0.43377  0.56047  1.0000 0.9941811148
H   H1        1.0  0.58770  0.31190  0.24350  1.0000 0.1217312486
H   H2        1.0  0.41230  0.81190  0.25650  1.0000 0.1217312486
H   H3        1.0  0.41230  0.68810  0.75650  1.0000 0.1217312486
H   H4        1.0  0.58770  0.18810  0.74350  1.0000 0.1217312486
H   H5        1.0  0.97920  0.25680  0.24730  1.0000 0.1217312486
H   H6        1.0  0.02080  0.75680  0.25270  1.0000 0.1217312486
H   H7        1.0  0.02080  0.74320  0.75270  1.0000 0.1217312486
H   H8        1.0  0.97920  0.24320  0.74730  1.0000 0.1217312486
H   H9        1.0  0.62010  0.09830  0.07340  1.0000 0.1217312486
H   H10       1.0  0.37990  0.59830  0.42660  1.0000 0.1217312486
H   H11       1.0  0.37990  0.90170  0.92660  1.0000 0.1217312486
H   H12       1.0  0.62010  0.40170  0.57340  1.0000 0.1217312486
H   H13       1.0  0.19290  0.09580  0.79370  1.0000 0.250781234
H   H14       1.0  0.30170  0.09320  0.90640  1.0000 0.2608889375
H   H15       1.0  0.39080  0.23670  0.90490  1.0000 0.1310628724
H   H16       1.0  0.22630  0.23570  0.88880  1.0000 0.1310628724
H   H17       1.0  0.25590  0.24890  0.78990  1.0000 0.1408362
H   H18       1.0  0.37770  0.11180  0.74430  1.0000 0.1408362
H   H19       1.0  0.38510  0.01620  0.80040  1.0000 0.1310628724
H   H20       1.0  0.49360  0.09740  0.86520  1.0000 0.1408362
H   H21       1.0  0.80710  0.59580  0.70630  1.0000 0.250781234
H   H22       1.0  0.69830  0.59320  0.59360  1.0000 0.2608889375
H   H23       1.0  0.60920  0.73670  0.59510  1.0000 0.1310628724
H   H24       1.0  0.77370  0.73570  0.61120  1.0000 0.1310628724
H   H25       1.0  0.74410  0.74890  0.71010  1.0000 0.1408362
H   H26       1.0  0.62230  0.61180  0.75570  1.0000 0.1408362
H   H27       1.0  0.61490  0.51620  0.69960  1.0000 0.1310628724
H   H28       1.0  0.50640  0.59740  0.63480  1.0000 0.1408362
H   H29       1.0  0.80710  0.90420  0.20630  1.0000 0.250781234
H   H30       1.0  0.69830  0.90680  0.09360  1.0000 0.2608889375
H   H31       1.0  0.60920  0.76330  0.09510  1.0000 0.1310628724
H   H32       1.0  0.77370  0.76430  0.11120  1.0000 0.1310628724
H   H33       1.0  0.74410  0.75110  0.21010  1.0000 0.1408362
H   H34       1.0  0.62230  0.88820  0.25570  1.0000 0.1408362
H   H35       1.0  0.61490  0.98380  0.19960  1.0000 0.1310628724
H   H36       1.0  0.50640  0.90260  0.13480  1.0000 0.1408362
H   H37       1.0  0.19290  0.40420  0.29370  1.0000 0.250781234
H   H38       1.0  0.30170  0.40680  0.40640  1.0000 0.2608889375
H   H39       1.0  0.39080  0.26330  0.40490  1.0000 0.1310628724
H   H40       1.0  0.22630  0.26430  0.38880  1.0000 0.1310628724
H   H41       1.0  0.25590  0.25110  0.28990  1.0000 0.1408362
H   H42       1.0  0.37770  0.38820  0.24430  1.0000 0.1408362
H   H43       1.0  0.38510  0.48380  0.30040  1.0000 0.1310628724
H   H44       1.0  0.49360  0.40260  0.36520  1.0000 0.1408362
C   C1        1.0  0.42170  0.17000  0.12600  1.0000 0.5286313776
C   C2        1.0  0.57830  0.67000  0.37400  1.0000 0.5286313776
C   C3        1.0  0.57830  0.83000  0.87400  1.0000 0.5286313776
C   C4        1.0  0.42170  0.33000  0.62600  1.0000 0.5286313776
C   C5        1.0  0.86740  0.37420  0.33730  1.0000 0.5828424279
C   C6        1.0  0.13260  0.87420  0.16270  1.0000 0.5828424279
C   C7        1.0  0.13260  0.62580  0.66270  1.0000 0.5828424279
C   C8        1.0  0.86740  0.12580  0.83730  1.0000 0.5828424279
C   C9        1.0  0.90220  0.11210  0.11290  1.0000 0.5717487816
C   C10       1.0  0.09780  0.61210  0.38710  1.0000 0.5717487816
C   C11       1.0  0.09780  0.88790  0.88710  1.0000 0.5717487816
C   C12       1.0  0.90220  0.38790  0.61290  1.0000 0.5717487816
C   C13       1.0  0.57990  0.19950  0.15530  1.0000 -0.0264950994
C   C14       1.0  0.42010  0.69950  0.34470  1.0000 -0.0264950994
C   C15       1.0  0.42010  0.80050  0.84470  1.0000 -0.0264950994
C   C16       1.0  0.57990  0.30050  0.65530  1.0000 -0.0264950994
C   C17       1.0  0.64500  0.27520  0.22220  1.0000 -0.1134717431
C   C18       1.0  0.35500  0.77520  0.27780  1.0000 -0.1134717431
C   C19       1.0  0.35500  0.72480  0.77780  1.0000 -0.1134717431
C   C20       1.0  0.64500  0.22480  0.72220  1.0000 -0.1134717431
C   C21       1.0  0.79510  0.29680  0.25770  1.0000 -0.0210565038
C   C22       1.0  0.20490  0.79680  0.24230  1.0000 -0.0210565038
C   C23       1.0  0.20490  0.70320  0.74230  1.0000 -0.0210565038
C   C24       1.0  0.79510  0.20320  0.75770  1.0000 -0.0210565038
C   C25       1.0  0.87840  0.24310  0.22300  1.0000 -0.1134717431
C   C26       1.0  0.12160  0.74310  0.27700  1.0000 -0.1134717431
C   C27       1.0  0.12160  0.75690  0.77700  1.0000 -0.1134717431
C   C28       1.0  0.87840  0.25690  0.72300  1.0000 -0.1134717431
C   C29       1.0  0.81390  0.16946  0.15290  1.0000 -0.0210565038
C   C30       1.0  0.18610  0.66946  0.34710  1.0000 -0.0210565038
C   C31       1.0  0.18610  0.83054  0.84710  1.0000 -0.0210565038
C   C32       1.0  0.81390  0.33054  0.65290  1.0000 -0.0210565038
C   C33       1.0  0.66410  0.14799  0.11990  1.0000 -0.124708366
C   C34       1.0  0.33590  0.64799  0.38010  1.0000 -0.124708366
C   C35       1.0  0.33590  0.85201  0.88010  1.0000 -0.1250791963
C   C36       1.0  0.66410  0.35201  0.61990  1.0000 -0.124708366
C   C37       1.0  0.28960  0.21830  0.85780  1.0000 -0.291867711
C   C38       1.0  0.39460  0.08250  0.81020  1.0000 -0.291867711
C   C39       1.0  0.71040  0.71830  0.64220  1.0000 -0.291867711
C   C40       1.0  0.60540  0.58250  0.68980  1.0000 -0.291867711
C   C41       1.0  0.71040  0.78170  0.14220  1.0000 -0.291867711
C   C42       1.0  0.60540  0.91750  0.18980  1.0000 -0.291867711
C   C43       1.0  0.28960  0.28170  0.35780  1.0000 -0.291867711
C   C44       1.0  0.39460  0.41750  0.31020  1.0000 -0.291867711
N   N1        1.0  0.28340  0.11660  0.84220  1.0000 -0.0981521573
N   N2        1.0  0.71660  0.61660  0.65780  1.0000 -0.0981521573
N   N3        1.0  0.71660  0.88340  0.15780  1.0000 -0.0981521573
N   N4        1.0  0.28340  0.38340  0.34220  1.0000 -0.0981521573
O   O1        1.0  0.37250  0.09852  0.06860  1.0000 -0.5371234929
O   O2        1.0  0.62750  0.59852  0.43140  1.0000 -0.5371234929
O   O3        1.0  0.62750  0.90148  0.93140  1.0000 -0.5371234929
O   O4        1.0  0.37250  0.40148  0.56860  1.0000 -0.5371234929
O   O5        1.0  0.34800  0.21320  0.15850  1.0000 -0.5013738613
O   O6        1.0  0.65200  0.71320  0.34150  1.0000 -0.5013738613
O   O7        1.0  0.65200  0.78680  0.84150  1.0000 -0.5013738613
O   O8        1.0  0.34800  0.28680  0.65850  1.0000 -0.5013738613
O   O9        1.0  0.78550  0.44168  0.33250  1.0000 -0.5494939055
O   O10       1.0  0.21450  0.94168  0.16750  1.0000 -0.5494939055
O   O11       1.0  0.21450  0.55832  0.66750  1.0000 -0.5494939055
O   O12       1.0  0.78550  0.05832  0.83250  1.0000 -0.5494939055
O   O13       1.0  0.00344  0.36335  0.40284  1.0000 -0.5671388026
O   O14       1.0  0.99656  0.86335  0.09716  1.0000 -0.5671388026
O   O15       1.0  0.99656  0.63665  0.59716  1.0000 -0.5671388026
O   O16       1.0  0.00344  0.13665  0.90284  1.0000 -0.5671388026
O   O17       1.0  0.03367  0.13817  0.13797  1.0000 -0.5346105214
O   O18       1.0  0.96633  0.63817  0.36203  1.0000 -0.5346105214
O   O19       1.0  0.96633  0.86183  0.86203  1.0000 -0.5371234929
O   O20       1.0  0.03367  0.36183  0.63797  1.0000 -0.5371234929
O   O21       1.0  0.83810  0.04311  0.05700  1.0000 -0.576727521
O   O22       1.0  0.16190  0.54311  0.44300  1.0000 -0.576727521
O   O23       1.0  0.16190  0.95689  0.94300  1.0000 -0.576727521
O   O24       1.0  0.83810  0.45689  0.55700  1.0000 -0.576727521
