# DDEC6 charges by PACMAN v1.1 (https://github.com/mtap-research/PACMAN-charge/)
data_2010[Cd][nuc]3[ION]8
_chemical_formula_sum              "Cd4 H144 C192 N48 Cl4 O16"
_cell_length_a       15.8496
_cell_length_b       15.8496
_cell_length_c       21.709
_cell_angle_alpha    90
_cell_angle_beta     90
_cell_angle_gamma    90

_symmetry_space_group_name_H-M    "P 1"
_symmetry_Int_Tables_number       1

loop_
  _symmetry_equiv_pos_as_xyz
  'x, y, z'

loop_
  _atom_site_type_symbol
  _atom_site_label
  _atom_site_symmetry_multiplicity
  _atom_site_fract_x
  _atom_site_fract_y
  _atom_site_fract_z
  _atom_site_occupancy
  _atom_site_charge
Cd  Cd1       1.0  0.05879  0.94121  0.25000  1.0000 0.6455951723
Cd  Cd2       1.0  0.94121  0.05879  0.75000  1.0000 0.6455951723
Cd  Cd3       1.0  0.55879  0.55879  0.50000  1.0000 0.6455951723
Cd  Cd4       1.0  0.44121  0.44121  0.00000  1.0000 0.6455951723
H   H1        1.0  0.53580  0.61330  0.35070  1.0000 0.0994692905
H   H2        1.0  0.46420  0.38670  0.85070  1.0000 0.0994692905
H   H3        1.0  0.88670  0.03580  0.60070  1.0000 0.0994692905
H   H4        1.0  0.11330  0.96420  0.10070  1.0000 0.0994692905
H   H5        1.0  0.96420  0.11330  0.89930  1.0000 0.0994692905
H   H6        1.0  0.03580  0.88670  0.39930  1.0000 0.0994692905
H   H7        1.0  0.61330  0.53580  0.64930  1.0000 0.0994692905
H   H8        1.0  0.38670  0.46420  0.14930  1.0000 0.0994692905
H   H9        1.0  0.58480  0.71350  0.28480  1.0000 0.1294971983
H   H10       1.0  0.41520  0.28650  0.78480  1.0000 0.1294971983
H   H11       1.0  0.78650  0.08480  0.53480  1.0000 0.1294971983
H   H12       1.0  0.21350  0.91520  0.03480  1.0000 0.1294971983
H   H13       1.0  0.91520  0.21350  0.96520  1.0000 0.1294971983
H   H14       1.0  0.08480  0.78650  0.46520  1.0000 0.1294971983
H   H15       1.0  0.71350  0.58480  0.71520  1.0000 0.1294971983
H   H16       1.0  0.28650  0.41520  0.21520  1.0000 0.1294971983
H   H17       1.0  0.78760  0.73910  0.39580  1.0000 0.1294971983
H   H18       1.0  0.21240  0.26090  0.89580  1.0000 0.1294971983
H   H19       1.0  0.76090  0.28760  0.64580  1.0000 0.1294971983
H   H20       1.0  0.23910  0.71240  0.14580  1.0000 0.1294971983
H   H21       1.0  0.71240  0.23910  0.85420  1.0000 0.1294971983
H   H22       1.0  0.28760  0.76090  0.35420  1.0000 0.1294971983
H   H23       1.0  0.73910  0.78760  0.60420  1.0000 0.1294971983
H   H24       1.0  0.26090  0.21240  0.10420  1.0000 0.1294971983
H   H25       1.0  0.73020  0.63890  0.45910  1.0000 0.0994692905
H   H26       1.0  0.26980  0.36110  0.95910  1.0000 0.0994692905
H   H27       1.0  0.86110  0.23020  0.70910  1.0000 0.0994692905
H   H28       1.0  0.13890  0.76980  0.20910  1.0000 0.0994692905
H   H29       1.0  0.76980  0.13890  0.79090  1.0000 0.0994692905
H   H30       1.0  0.23020  0.86110  0.29090  1.0000 0.0994692905
H   H31       1.0  0.63890  0.73020  0.54090  1.0000 0.0994692905
H   H32       1.0  0.36110  0.26980  0.04090  1.0000 0.0994692905
H   H33       1.0  0.65270  0.79550  0.21960  1.0000 0.0994692905
H   H34       1.0  0.34730  0.20450  0.71960  1.0000 0.0994692905
H   H35       1.0  0.70450  0.15270  0.46960  1.0000 0.0994692905
H   H36       1.0  0.29550  0.84730  0.96960  1.0000 0.0994692905
H   H37       1.0  0.84730  0.29550  0.03040  1.0000 0.0994692905
H   H38       1.0  0.15270  0.70450  0.53040  1.0000 0.0994692905
H   H39       1.0  0.79550  0.65270  0.78040  1.0000 0.0994692905
H   H40       1.0  0.20450  0.34730  0.28040  1.0000 0.0994692905
H   H41       1.0  0.70430  0.90960  0.16440  1.0000 0.0994692905
H   H42       1.0  0.29570  0.09040  0.66440  1.0000 0.0994692905
H   H43       1.0  0.59040  0.20430  0.41440  1.0000 0.0994692905
H   H44       1.0  0.40960  0.79570  0.91440  1.0000 0.0994692905
H   H45       1.0  0.79570  0.40960  0.08560  1.0000 0.0994692905
H   H46       1.0  0.20430  0.59040  0.58560  1.0000 0.0994692905
H   H47       1.0  0.90960  0.70430  0.83560  1.0000 0.0994692905
H   H48       1.0  0.09040  0.29570  0.33560  1.0000 0.0994692905
H   H49       1.0  0.80270  0.00100  0.20740  1.0000 0.1091417997
H   H50       1.0  0.19730  0.99900  0.70740  1.0000 0.1091417997
H   H51       1.0  0.49900  0.30270  0.45740  1.0000 0.1091417997
H   H52       1.0  0.50100  0.69730  0.95740  1.0000 0.1091417997
H   H53       1.0  0.69730  0.50100  0.04260  1.0000 0.1091417997
H   H54       1.0  0.30270  0.49900  0.54260  1.0000 0.1091417997
H   H55       1.0  0.00100  0.80270  0.79260  1.0000 0.1091417997
H   H56       1.0  0.99900  0.19730  0.29260  1.0000 0.1091417997
H   H57       1.0  0.80230  0.86020  0.36270  1.0000 0.1091417997
H   H58       1.0  0.19770  0.13980  0.86270  1.0000 0.1091417997
H   H59       1.0  0.63980  0.30230  0.61270  1.0000 0.1091417997
H   H60       1.0  0.36020  0.69770  0.11270  1.0000 0.1091417997
H   H61       1.0  0.69770  0.36020  0.88730  1.0000 0.1091417997
H   H62       1.0  0.30230  0.63980  0.38730  1.0000 0.1091417997
H   H63       1.0  0.86020  0.80230  0.63730  1.0000 0.1091417997
H   H64       1.0  0.13980  0.19770  0.13730  1.0000 0.1091417997
H   H65       1.0  0.04390  0.11880  0.45920  1.0000 0.1091417997
H   H66       1.0  0.95610  0.88120  0.95920  1.0000 0.1091417997
H   H67       1.0  0.38120  0.54390  0.70920  1.0000 0.1091417997
H   H68       1.0  0.61880  0.45610  0.20920  1.0000 0.1091417997
H   H69       1.0  0.45610  0.61880  0.79080  1.0000 0.1091417997
H   H70       1.0  0.54390  0.38120  0.29080  1.0000 0.1091417997
H   H71       1.0  0.11880  0.04390  0.54080  1.0000 0.1091417997
H   H72       1.0  0.88120  0.95610  0.04080  1.0000 0.1091417997
H   H73       1.0  0.06500  0.23040  0.52690  1.0000 0.1091417997
H   H74       1.0  0.93500  0.76960  0.02690  1.0000 0.1091417997
H   H75       1.0  0.26960  0.56500  0.77690  1.0000 0.1091417997
H   H76       1.0  0.73040  0.43500  0.27690  1.0000 0.1091417997
H   H77       1.0  0.43500  0.73040  0.72310  1.0000 0.1091417997
H   H78       1.0  0.56500  0.26960  0.22310  1.0000 0.1091417997
H   H79       1.0  0.23040  0.06500  0.47310  1.0000 0.1091417997
H   H80       1.0  0.76960  0.93500  0.97310  1.0000 0.1091417997
H   H81       1.0  0.96260  0.33440  0.53830  1.0000 0.1091417997
H   H82       1.0  0.03740  0.66560  0.03830  1.0000 0.1091417997
H   H83       1.0  0.16560  0.46260  0.78830  1.0000 0.1091417997
H   H84       1.0  0.83440  0.53740  0.28830  1.0000 0.1091417997
H   H85       1.0  0.53740  0.83440  0.71170  1.0000 0.1091417997
H   H86       1.0  0.46260  0.16560  0.21170  1.0000 0.1091417997
H   H87       1.0  0.33440  0.96260  0.46170  1.0000 0.1091417997
H   H88       1.0  0.66560  0.03740  0.96170  1.0000 0.1091417997
H   H89       1.0  0.82460  0.22350  0.40440  1.0000 0.0994692905
H   H90       1.0  0.17540  0.77650  0.90440  1.0000 0.0994692905
H   H91       1.0  0.27650  0.32460  0.65440  1.0000 0.0994692905
H   H92       1.0  0.72350  0.67540  0.15440  1.0000 0.0994692905
H   H93       1.0  0.67540  0.72350  0.84560  1.0000 0.0994692905
H   H94       1.0  0.32460  0.27650  0.34560  1.0000 0.0994692905
H   H95       1.0  0.22350  0.82460  0.59560  1.0000 0.0994692905
H   H96       1.0  0.77650  0.17540  0.09560  1.0000 0.0994692905
H   H97       1.0  0.84960  0.39830  0.56270  1.0000 0.1294971983
H   H98       1.0  0.15040  0.60170  0.06270  1.0000 0.1294971983
H   H99       1.0  0.10170  0.34960  0.81270  1.0000 0.1294971983
H   H100      1.0  0.89830  0.65040  0.31270  1.0000 0.1294971983
H   H101      1.0  0.65040  0.89830  0.68730  1.0000 0.1294971983
H   H102      1.0  0.34960  0.10170  0.18730  1.0000 0.1294971983
H   H103      1.0  0.39830  0.84960  0.43730  1.0000 0.1294971983
H   H104      1.0  0.60170  0.15040  0.93730  1.0000 0.1294971983
H   H105      1.0  0.74040  0.49560  0.57210  1.0000 0.0920205805
H   H106      1.0  0.25960  0.50440  0.07210  1.0000 0.0920205805
H   H107      1.0  0.00440  0.24040  0.82210  1.0000 0.0920205805
H   H108      1.0  0.99560  0.75960  0.32210  1.0000 0.0920205805
H   H109      1.0  0.75960  0.99560  0.67790  1.0000 0.0920205805
H   H110      1.0  0.24040  0.00440  0.17790  1.0000 0.0920205805
H   H111      1.0  0.49560  0.74040  0.42790  1.0000 0.0920205805
H   H112      1.0  0.50440  0.25960  0.92790  1.0000 0.0920205805
H   H113      1.0  0.65760  0.44010  0.40770  1.0000 0.0994692905
H   H114      1.0  0.34240  0.55990  0.90770  1.0000 0.0994692905
H   H115      1.0  0.05990  0.15760  0.65770  1.0000 0.0994692905
H   H116      1.0  0.94010  0.84240  0.15770  1.0000 0.0994692905
H   H117      1.0  0.84240  0.94010  0.84230  1.0000 0.0994692905
H   H118      1.0  0.15760  0.05990  0.34230  1.0000 0.0994692905
H   H119      1.0  0.44010  0.65760  0.59230  1.0000 0.0994692905
H   H120      1.0  0.55990  0.34240  0.09230  1.0000 0.0994692905
H   H121      1.0  0.76480  0.34590  0.39170  1.0000 0.1294971983
H   H122      1.0  0.23520  0.65410  0.89170  1.0000 0.1294971983
H   H123      1.0  0.15410  0.26480  0.64170  1.0000 0.1294971983
H   H124      1.0  0.84590  0.73520  0.14170  1.0000 0.1294971983
H   H125      1.0  0.73520  0.84590  0.85830  1.0000 0.1294971983
H   H126      1.0  0.26480  0.15410  0.35830  1.0000 0.1294971983
H   H127      1.0  0.34590  0.76480  0.60830  1.0000 0.1294971983
H   H128      1.0  0.65410  0.23520  0.10830  1.0000 0.1294971983
H   H129      1.0  0.74030  0.10240  0.35230  1.0000 0.2547682393
H   H130      1.0  0.25970  0.89760  0.85230  1.0000 0.2547682393
H   H131      1.0  0.39760  0.24030  0.60230  1.0000 0.2547682393
H   H132      1.0  0.60240  0.75970  0.10230  1.0000 0.2547682393
H   H133      1.0  0.75970  0.60240  0.89770  1.0000 0.2547682393
H   H134      1.0  0.24030  0.39760  0.39770  1.0000 0.2547682393
H   H135      1.0  0.10240  0.74030  0.64770  1.0000 0.2547682393
H   H136      1.0  0.89760  0.25970  0.14770  1.0000 0.2547682393
H   H137      1.0  0.74220  0.02470  0.39060  1.0000 0.2668394092
H   H138      1.0  0.25780  0.97530  0.89060  1.0000 0.2668394092
H   H139      1.0  0.47530  0.24220  0.64060  1.0000 0.2668394092
H   H140      1.0  0.52470  0.75780  0.14060  1.0000 0.2668394092
H   H141      1.0  0.75780  0.52470  0.85940  1.0000 0.2668394092
H   H142      1.0  0.24220  0.47530  0.35940  1.0000 0.2668394092
H   H143      1.0  0.02470  0.74220  0.60940  1.0000 0.2668394092
H   H144      1.0  0.97530  0.25780  0.10940  1.0000 0.2668394092
C   C1        1.0  0.58680  0.64150  0.36100  1.0000 0.059645622
C   C2        1.0  0.41320  0.35850  0.86100  1.0000 0.059645622
C   C3        1.0  0.85850  0.08680  0.61100  1.0000 0.059645622
C   C4        1.0  0.14150  0.91320  0.11100  1.0000 0.059645622
C   C5        1.0  0.91320  0.14150  0.88900  1.0000 0.059645622
C   C6        1.0  0.08680  0.85850  0.38900  1.0000 0.059645622
C   C7        1.0  0.64150  0.58680  0.63900  1.0000 0.059645622
C   C8        1.0  0.35850  0.41320  0.13900  1.0000 0.059645622
C   C9        1.0  0.61550  0.70110  0.32130  1.0000 -0.2000490325
C   C10       1.0  0.38450  0.29890  0.82130  1.0000 -0.2000490325
C   C11       1.0  0.79890  0.11550  0.57130  1.0000 -0.2000490325
C   C12       1.0  0.20110  0.88450  0.07130  1.0000 -0.2000490325
C   C13       1.0  0.88450  0.20110  0.92870  1.0000 -0.2000490325
C   C14       1.0  0.11550  0.79890  0.42870  1.0000 -0.2000490325
C   C15       1.0  0.70110  0.61550  0.67870  1.0000 -0.2000490325
C   C16       1.0  0.29890  0.38450  0.17870  1.0000 -0.2000490325
C   C17       1.0  0.69070  0.74440  0.33430  1.0000 0.1165329348
C   C18       1.0  0.30930  0.25560  0.83430  1.0000 0.1165329348
C   C19       1.0  0.75560  0.19070  0.58430  1.0000 0.1165329348
C   C20       1.0  0.24440  0.80930  0.08430  1.0000 0.1165329348
C   C21       1.0  0.80930  0.24440  0.91570  1.0000 0.1165329348
C   C22       1.0  0.19070  0.75560  0.41570  1.0000 0.1165329348
C   C23       1.0  0.74440  0.69070  0.66570  1.0000 0.1165329348
C   C24       1.0  0.25560  0.30930  0.16570  1.0000 0.1165329348
C   C25       1.0  0.73370  0.71620  0.38620  1.0000 -0.2000490325
C   C26       1.0  0.26630  0.28380  0.88620  1.0000 -0.2000490325
C   C27       1.0  0.78380  0.23370  0.63620  1.0000 -0.2000490325
C   C28       1.0  0.21620  0.76630  0.13620  1.0000 -0.2000490325
C   C29       1.0  0.76630  0.21620  0.86380  1.0000 -0.2000490325
C   C30       1.0  0.23370  0.78380  0.36380  1.0000 -0.2000490325
C   C31       1.0  0.71620  0.73370  0.61380  1.0000 -0.2000490325
C   C32       1.0  0.28380  0.26630  0.11380  1.0000 -0.2000490325
C   C33       1.0  0.69930  0.65590  0.42370  1.0000 0.0407460201
C   C34       1.0  0.30070  0.34410  0.92370  1.0000 0.0407460201
C   C35       1.0  0.84410  0.19930  0.67370  1.0000 0.0407460201
C   C36       1.0  0.15590  0.80070  0.17370  1.0000 0.0407460201
C   C37       1.0  0.80070  0.15590  0.82630  1.0000 0.0407460201
C   C38       1.0  0.19930  0.84410  0.32630  1.0000 0.0407460201
C   C39       1.0  0.65590  0.69930  0.57630  1.0000 0.0407460201
C   C40       1.0  0.34410  0.30070  0.07630  1.0000 0.0407460201
C   C41       1.0  0.72150  0.81630  0.29730  1.0000 0.0665758028
C   C42       1.0  0.27850  0.18370  0.79730  1.0000 0.0665758028
C   C43       1.0  0.68370  0.22150  0.54730  1.0000 0.0665758028
C   C44       1.0  0.31630  0.77850  0.04730  1.0000 0.0665758028
C   C45       1.0  0.77850  0.31630  0.95270  1.0000 0.0665758028
C   C46       1.0  0.22150  0.68370  0.45270  1.0000 0.0665758028
C   C47       1.0  0.81630  0.72150  0.70270  1.0000 0.0665758028
C   C48       1.0  0.18370  0.27850  0.20270  1.0000 0.0665758028
C   C49       1.0  0.69330  0.83180  0.23780  1.0000 -0.1595901407
C   C50       1.0  0.30670  0.16820  0.73780  1.0000 -0.1595901407
C   C51       1.0  0.66820  0.19330  0.48780  1.0000 -0.1595901407
C   C52       1.0  0.33180  0.80670  0.98780  1.0000 -0.1595901407
C   C53       1.0  0.80670  0.33180  0.01220  1.0000 -0.1595901407
C   C54       1.0  0.19330  0.66820  0.51220  1.0000 -0.1595901407
C   C55       1.0  0.83180  0.69330  0.76220  1.0000 -0.1595901407
C   C56       1.0  0.16820  0.30670  0.26220  1.0000 -0.1595901407
C   C57       1.0  0.72390  0.89990  0.20510  1.0000 -0.1029061955
C   C58       1.0  0.27610  0.10010  0.70510  1.0000 -0.1029061955
C   C59       1.0  0.60010  0.22390  0.45510  1.0000 -0.1029061955
C   C60       1.0  0.39990  0.77610  0.95510  1.0000 -0.1029061955
C   C61       1.0  0.77610  0.39990  0.04490  1.0000 -0.1029061955
C   C62       1.0  0.22390  0.60010  0.54490  1.0000 -0.1029061955
C   C63       1.0  0.89990  0.72390  0.79490  1.0000 -0.1029061955
C   C64       1.0  0.10010  0.27610  0.29490  1.0000 -0.1029061955
C   C65       1.0  0.78240  0.95410  0.23030  1.0000 -0.1517830443
C   C66       1.0  0.21760  0.04590  0.73030  1.0000 -0.1517830443
C   C67       1.0  0.54590  0.28240  0.48030  1.0000 -0.1517830443
C   C68       1.0  0.45410  0.71760  0.98030  1.0000 -0.1517830443
C   C69       1.0  0.71760  0.45410  0.01970  1.0000 -0.1517830443
C   C70       1.0  0.28240  0.54590  0.51970  1.0000 -0.1517830443
C   C71       1.0  0.95410  0.78240  0.76970  1.0000 -0.1517830443
C   C72       1.0  0.04590  0.21760  0.26970  1.0000 -0.1517830443
C   C73       1.0  0.81140  0.93920  0.28990  1.0000 0.0138407079
C   C74       1.0  0.18860  0.06080  0.78990  1.0000 0.0138407079
C   C75       1.0  0.56080  0.31140  0.53990  1.0000 0.0138407079
C   C76       1.0  0.43920  0.68860  0.03990  1.0000 0.0138407079
C   C77       1.0  0.68860  0.43920  0.96010  1.0000 0.0138407079
C   C78       1.0  0.31140  0.56080  0.46010  1.0000 0.0138407079
C   C79       1.0  0.93920  0.81140  0.71010  1.0000 0.0138407079
C   C80       1.0  0.06080  0.18860  0.21010  1.0000 0.0138407079
C   C81       1.0  0.78150  0.87060  0.32230  1.0000 -0.1908759792
C   C82       1.0  0.21850  0.12940  0.82230  1.0000 -0.1908759792
C   C83       1.0  0.62940  0.28150  0.57230  1.0000 -0.1908759792
C   C84       1.0  0.37060  0.71850  0.07230  1.0000 -0.1908759792
C   C85       1.0  0.71850  0.37060  0.92770  1.0000 -0.1908759792
C   C86       1.0  0.28150  0.62940  0.42770  1.0000 -0.1908759792
C   C87       1.0  0.87060  0.78150  0.67770  1.0000 -0.1908759792
C   C88       1.0  0.12940  0.21850  0.17770  1.0000 -0.1908759792
C   C89       1.0  0.87330  0.99490  0.31970  1.0000 0.1745010856
C   C90       1.0  0.12670  0.00510  0.81970  1.0000 0.1752293615
C   C91       1.0  0.50510  0.37330  0.56970  1.0000 0.1752293615
C   C92       1.0  0.49490  0.62670  0.06970  1.0000 0.1752293615
C   C93       1.0  0.62670  0.49490  0.93030  1.0000 0.1745010856
C   C94       1.0  0.37330  0.50510  0.43030  1.0000 0.1752293615
C   C95       1.0  0.99490  0.87330  0.68030  1.0000 0.1745010856
C   C96       1.0  0.00510  0.12670  0.18030  1.0000 0.1752293615
C   C97       1.0  0.92440  0.09140  0.38140  1.0000 0.1752293615
C   C98       1.0  0.07560  0.90860  0.88140  1.0000 0.1752293615
C   C99       1.0  0.40860  0.42440  0.63140  1.0000 0.1752293615
C   C100      1.0  0.59140  0.57560  0.13140  1.0000 0.1752293615
C   C101      1.0  0.57560  0.59140  0.86860  1.0000 0.1752293615
C   C102      1.0  0.42440  0.40860  0.36860  1.0000 0.1752293615
C   C103      1.0  0.09140  0.92440  0.61860  1.0000 0.1752293615
C   C104      1.0  0.90860  0.07560  0.11860  1.0000 0.1752293615
C   C105      1.0  0.93240  0.16100  0.42580  1.0000 0.0407460201
C   C106      1.0  0.06760  0.83900  0.92580  1.0000 0.0407460201
C   C107      1.0  0.33900  0.43240  0.67580  1.0000 0.0407460201
C   C108      1.0  0.66100  0.56760  0.17580  1.0000 0.0407460201
C   C109      1.0  0.56760  0.66100  0.82420  1.0000 0.0407460201
C   C110      1.0  0.43240  0.33900  0.32420  1.0000 0.0407460201
C   C111      1.0  0.16100  0.93240  0.57420  1.0000 0.0407460201
C   C112      1.0  0.83900  0.06760  0.07420  1.0000 0.0407460201
C   C113      1.0  0.00330  0.16270  0.46210  1.0000 -0.1517830443
C   C114      1.0  0.99670  0.83730  0.96210  1.0000 -0.1517830443
C   C115      1.0  0.33730  0.50330  0.71210  1.0000 -0.1517830443
C   C116      1.0  0.66270  0.49670  0.21210  1.0000 -0.1517830443
C   C117      1.0  0.49670  0.66270  0.78790  1.0000 -0.1517830443
C   C118      1.0  0.50330  0.33730  0.28790  1.0000 -0.1517830443
C   C119      1.0  0.16270  0.00330  0.53790  1.0000 -0.1517830443
C   C120      1.0  0.83730  0.99670  0.03790  1.0000 -0.1517830443
C   C121      1.0  0.01520  0.22830  0.50260  1.0000 -0.1104238723
C   C122      1.0  0.98480  0.77170  0.00260  1.0000 -0.1104238723
C   C123      1.0  0.27170  0.51520  0.75260  1.0000 -0.1104238723
C   C124      1.0  0.72830  0.48480  0.25260  1.0000 -0.1104238723
C   C125      1.0  0.48480  0.72830  0.74740  1.0000 -0.1104238723
C   C126      1.0  0.51520  0.27170  0.24740  1.0000 -0.1104238723
C   C127      1.0  0.22830  0.01520  0.49740  1.0000 -0.1104238723
C   C128      1.0  0.77170  0.98480  0.99740  1.0000 -0.1104238723
C   C129      1.0  0.95540  0.29110  0.50840  1.0000 -0.1595901407
C   C130      1.0  0.04460  0.70890  0.00840  1.0000 -0.1595901407
C   C131      1.0  0.20890  0.45540  0.75840  1.0000 -0.1595901407
C   C132      1.0  0.79110  0.54460  0.25840  1.0000 -0.1517830443
C   C133      1.0  0.54460  0.79110  0.74160  1.0000 -0.1595901407
C   C134      1.0  0.45540  0.20890  0.24160  1.0000 -0.1595901407
C   C135      1.0  0.29110  0.95540  0.49160  1.0000 -0.1595901407
C   C136      1.0  0.70890  0.04460  0.99160  1.0000 -0.1595901407
C   C137      1.0  0.88450  0.29090  0.47050  1.0000 0.0665758028
C   C138      1.0  0.11550  0.70910  0.97050  1.0000 0.0665758028
C   C139      1.0  0.20910  0.38450  0.72050  1.0000 0.0665758028
C   C140      1.0  0.79090  0.61550  0.22050  1.0000 0.0665758028
C   C141      1.0  0.61550  0.79090  0.77950  1.0000 0.0665758028
C   C142      1.0  0.38450  0.20910  0.27950  1.0000 0.0665758028
C   C143      1.0  0.29090  0.88450  0.52950  1.0000 0.0665758028
C   C144      1.0  0.70910  0.11550  0.02950  1.0000 0.0665758028
C   C145      1.0  0.87340  0.22500  0.42990  1.0000 -0.1908759792
C   C146      1.0  0.12660  0.77500  0.92990  1.0000 -0.1908759792
C   C147      1.0  0.27500  0.37340  0.67990  1.0000 -0.1908759792
C   C148      1.0  0.72500  0.62660  0.17990  1.0000 -0.1908759792
C   C149      1.0  0.62660  0.72500  0.82010  1.0000 -0.1908759792
C   C150      1.0  0.37340  0.27500  0.32010  1.0000 -0.1908759792
C   C151      1.0  0.22500  0.87340  0.57010  1.0000 -0.1908759792
C   C152      1.0  0.77500  0.12660  0.07010  1.0000 -0.1908759792
C   C153      1.0  0.81880  0.35800  0.47670  1.0000 0.1165329348
C   C154      1.0  0.18120  0.64200  0.97670  1.0000 0.1165329348
C   C155      1.0  0.14200  0.31880  0.72670  1.0000 0.1165329348
C   C156      1.0  0.85800  0.68120  0.22670  1.0000 0.1165329348
C   C157      1.0  0.68120  0.85800  0.77330  1.0000 0.1165329348
C   C158      1.0  0.31880  0.14200  0.27330  1.0000 0.1165329348
C   C159      1.0  0.35800  0.81880  0.52330  1.0000 0.1165329348
C   C160      1.0  0.64200  0.18120  0.02330  1.0000 0.1165329348
C   C161      1.0  0.81060  0.40530  0.52990  1.0000 -0.2000490325
C   C162      1.0  0.18940  0.59470  0.02990  1.0000 -0.2000490325
C   C163      1.0  0.09470  0.31060  0.77990  1.0000 -0.2000490325
C   C164      1.0  0.90530  0.68940  0.27990  1.0000 -0.2000490325
C   C165      1.0  0.68940  0.90530  0.72010  1.0000 -0.205355188
C   C166      1.0  0.31060  0.09470  0.22010  1.0000 -0.2000490325
C   C167      1.0  0.40530  0.81060  0.47010  1.0000 -0.2000490325
C   C168      1.0  0.59470  0.18940  0.97010  1.0000 -0.2000490325
C   C169      1.0  0.74450  0.46340  0.53530  1.0000 0.0772071219
C   C170      1.0  0.25550  0.53660  0.03530  1.0000 0.0772071219
C   C171      1.0  0.03660  0.24450  0.78530  1.0000 0.0772071219
C   C172      1.0  0.96340  0.75550  0.28530  1.0000 0.0772071219
C   C173      1.0  0.75550  0.96340  0.71470  1.0000 0.0772071219
C   C174      1.0  0.24450  0.03660  0.21470  1.0000 0.0772071219
C   C175      1.0  0.46340  0.74450  0.46470  1.0000 0.0772071219
C   C176      1.0  0.53660  0.25550  0.96470  1.0000 0.0772071219
C   C177      1.0  0.69720  0.43140  0.43990  1.0000 0.059645622
C   C178      1.0  0.30280  0.56860  0.93990  1.0000 0.059645622
C   C179      1.0  0.06860  0.19720  0.68990  1.0000 0.059645622
C   C180      1.0  0.93140  0.80280  0.18990  1.0000 0.059645622
C   C181      1.0  0.80280  0.93140  0.81010  1.0000 0.059645622
C   C182      1.0  0.19720  0.06860  0.31010  1.0000 0.059645622
C   C183      1.0  0.43140  0.69720  0.56010  1.0000 0.059645622
C   C184      1.0  0.56860  0.30280  0.06010  1.0000 0.059645622
C   C185      1.0  0.76050  0.37430  0.43010  1.0000 -0.2000490325
C   C186      1.0  0.23950  0.62570  0.93010  1.0000 -0.2000490325
C   C187      1.0  0.12570  0.26050  0.68010  1.0000 -0.2000490325
C   C188      1.0  0.87430  0.73950  0.18010  1.0000 -0.2000490325
C   C189      1.0  0.73950  0.87430  0.81990  1.0000 -0.2000490325
C   C190      1.0  0.26050  0.12570  0.31990  1.0000 -0.2000490325
C   C191      1.0  0.37430  0.76050  0.56990  1.0000 -0.2000490325
C   C192      1.0  0.62570  0.23950  0.06990  1.0000 -0.2000490325
N   N1        1.0  0.62480  0.61980  0.41320  1.0000 -0.2279753406
N   N2        1.0  0.37520  0.38020  0.91320  1.0000 -0.2279753406
N   N3        1.0  0.88020  0.12480  0.66320  1.0000 -0.2279753406
N   N4        1.0  0.11980  0.87520  0.16320  1.0000 -0.2279753406
N   N5        1.0  0.87520  0.11980  0.83680  1.0000 -0.2279753406
N   N6        1.0  0.12480  0.88020  0.33680  1.0000 -0.2279753406
N   N7        1.0  0.61980  0.62480  0.58680  1.0000 -0.2279753406
N   N8        1.0  0.38020  0.37520  0.08680  1.0000 -0.2279753406
N   N9        1.0  0.95520  0.99350  0.31610  1.0000 -0.2279753406
N   N10       1.0  0.04480  0.00650  0.81610  1.0000 -0.2279753406
N   N11       1.0  0.50650  0.45520  0.56610  1.0000 -0.2279753406
N   N12       1.0  0.49350  0.54480  0.06610  1.0000 -0.2279753406
N   N13       1.0  0.54480  0.49350  0.93390  1.0000 -0.2279753406
N   N14       1.0  0.45520  0.50650  0.43390  1.0000 -0.2279753406
N   N15       1.0  0.99350  0.95520  0.68390  1.0000 -0.2279753406
N   N16       1.0  0.00650  0.04480  0.18390  1.0000 -0.2279753406
N   N17       1.0  0.98790  0.05480  0.35413  1.0000 -0.2714400422
N   N18       1.0  0.01210  0.94520  0.85413  1.0000 -0.2714400422
N   N19       1.0  0.44520  0.48790  0.60413  1.0000 -0.2714400422
N   N20       1.0  0.55480  0.51210  0.10413  1.0000 -0.2714400422
N   N21       1.0  0.51210  0.55480  0.89587  1.0000 -0.2714400422
N   N22       1.0  0.48790  0.44520  0.39587  1.0000 -0.2714400422
N   N23       1.0  0.05480  0.98790  0.64587  1.0000 -0.2714400422
N   N24       1.0  0.94520  0.01210  0.14587  1.0000 -0.2714400422
N   N25       1.0  0.85050  0.05590  0.36046  1.0000 0.0665758028
N   N26       1.0  0.14950  0.94410  0.86046  1.0000 0.0665758028
N   N27       1.0  0.44410  0.35050  0.61046  1.0000 0.0665758028
N   N28       1.0  0.55590  0.64950  0.11046  1.0000 0.0665758028
N   N29       1.0  0.64950  0.55590  0.88954  1.0000 0.0665758028
N   N30       1.0  0.35050  0.44410  0.38954  1.0000 0.0665758028
N   N31       1.0  0.05590  0.85050  0.63954  1.0000 0.0665758028
N   N32       1.0  0.94410  0.14950  0.13954  1.0000 0.0665758028
N   N33       1.0  0.76930  0.07390  0.38190  1.0000 -0.4939123188
N   N34       1.0  0.23070  0.92610  0.88190  1.0000 -0.4939123188
N   N35       1.0  0.42610  0.26930  0.63190  1.0000 -0.4939123188
N   N36       1.0  0.57390  0.73070  0.13190  1.0000 -0.4939123188
N   N37       1.0  0.73070  0.57390  0.86810  1.0000 -0.4939123188
N   N38       1.0  0.26930  0.42610  0.36810  1.0000 -0.4939123188
N   N39       1.0  0.07390  0.76930  0.61810  1.0000 -0.4939123188
N   N40       1.0  0.92610  0.23070  0.11810  1.0000 -0.4939123188
N   N41       1.0  0.68750  0.47580  0.49180  1.0000 -0.235940598
N   N42       1.0  0.31250  0.52420  0.99180  1.0000 -0.235940598
N   N43       1.0  0.02420  0.18750  0.74180  1.0000 -0.235940598
N   N44       1.0  0.97580  0.81250  0.24180  1.0000 -0.235940598
N   N45       1.0  0.81250  0.97580  0.75820  1.0000 -0.235940598
N   N46       1.0  0.18750  0.02420  0.25820  1.0000 -0.235940598
N   N47       1.0  0.47580  0.68750  0.50820  1.0000 -0.235940598
N   N48       1.0  0.52420  0.31250  0.00820  1.0000 -0.235940598
Cl  Cl1       1.0  0.62196  0.37804  0.75000  1.0000 1.0233794841
Cl  Cl2       1.0  0.37804  0.62196  0.25000  1.0000 1.0233794841
Cl  Cl3       1.0  0.87804  0.87804  0.50000  1.0000 1.0233794841
Cl  Cl4       1.0  0.12196  0.12196  0.00000  1.0000 1.0233794841
O   O1        1.0  0.61380  0.31530  0.78780  1.0000 -0.3689548877
O   O2        1.0  0.68470  0.38620  0.71220  1.0000 -0.3689548877
O   O3        1.0  0.62430  0.43890  0.78670  1.0000 -0.3395286669
O   O4        1.0  0.56110  0.37570  0.71330  1.0000 -0.3395286669
O   O5        1.0  0.38620  0.68470  0.28780  1.0000 -0.3689548877
O   O6        1.0  0.31530  0.61380  0.21220  1.0000 -0.3689548877
O   O7        1.0  0.37570  0.56110  0.28670  1.0000 -0.3395286669
O   O8        1.0  0.43890  0.62430  0.21330  1.0000 -0.3395286669
O   O9        1.0  0.81530  0.88620  0.53780  1.0000 -0.3689548877
O   O10       1.0  0.88620  0.81530  0.46220  1.0000 -0.3689548877
O   O11       1.0  0.93890  0.87570  0.53670  1.0000 -0.3395286669
O   O12       1.0  0.87570  0.93890  0.46330  1.0000 -0.3395286669
O   O13       1.0  0.18470  0.11380  0.03780  1.0000 -0.3689548877
O   O14       1.0  0.11380  0.18470  0.96220  1.0000 -0.3689548877
O   O15       1.0  0.06110  0.12430  0.03670  1.0000 -0.3395286669
O   O16       1.0  0.12430  0.06110  0.96330  1.0000 -0.3395286669
