# DDEC6 charges by PACMAN v1.1 (https://github.com/mtap-research/PACMAN-charge/)
data_2010[Cd][nuc]3[ION]6
_chemical_formula_sum              "Cd4 H144 C192 N48 Cl4 O16"
_cell_length_a       15.8271
_cell_length_b       15.8271
_cell_length_c       21.856
_cell_angle_alpha    90
_cell_angle_beta     90
_cell_angle_gamma    90

_symmetry_space_group_name_H-M    "P 1"
_symmetry_Int_Tables_number       1

loop_
  _symmetry_equiv_pos_as_xyz
  'x, y, z'

loop_
  _atom_site_type_symbol
  _atom_site_label
  _atom_site_symmetry_multiplicity
  _atom_site_fract_x
  _atom_site_fract_y
  _atom_site_fract_z
  _atom_site_occupancy
  _atom_site_charge
Cd  Cd1       1.0  0.05770  0.94230  0.25000  1.0000 0.647184559
Cd  Cd2       1.0  0.94230  0.05770  0.75000  1.0000 0.647184559
Cd  Cd3       1.0  0.55770  0.55770  0.50000  1.0000 0.647184559
Cd  Cd4       1.0  0.44230  0.44230  0.00000  1.0000 0.647184559
H   H1        1.0  0.53530  0.61200  0.35010  1.0000 0.0994061692
H   H2        1.0  0.46470  0.38800  0.85010  1.0000 0.0994061692
H   H3        1.0  0.88800  0.03530  0.60010  1.0000 0.0994061692
H   H4        1.0  0.11200  0.96470  0.10010  1.0000 0.0994061692
H   H5        1.0  0.96470  0.11200  0.89990  1.0000 0.0994061692
H   H6        1.0  0.03530  0.88800  0.39990  1.0000 0.0994061692
H   H7        1.0  0.61200  0.53530  0.64990  1.0000 0.0994061692
H   H8        1.0  0.38800  0.46470  0.14990  1.0000 0.0994061692
H   H9        1.0  0.58340  0.71410  0.28640  1.0000 0.1310364067
H   H10       1.0  0.41660  0.28590  0.78640  1.0000 0.1310364067
H   H11       1.0  0.78590  0.08340  0.53640  1.0000 0.1310364067
H   H12       1.0  0.21410  0.91660  0.03640  1.0000 0.1310364067
H   H13       1.0  0.91660  0.21410  0.96360  1.0000 0.1310364067
H   H14       1.0  0.08340  0.78590  0.46360  1.0000 0.1310364067
H   H15       1.0  0.71410  0.58340  0.71360  1.0000 0.1310364067
H   H16       1.0  0.28590  0.41660  0.21360  1.0000 0.1310364067
H   H17       1.0  0.78410  0.74020  0.39500  1.0000 0.1310364067
H   H18       1.0  0.21590  0.25980  0.89500  1.0000 0.1310364067
H   H19       1.0  0.75980  0.28410  0.64500  1.0000 0.1310364067
H   H20       1.0  0.24020  0.71590  0.14500  1.0000 0.1310364067
H   H21       1.0  0.71590  0.24020  0.85500  1.0000 0.1310364067
H   H22       1.0  0.28410  0.75980  0.35500  1.0000 0.1310364067
H   H23       1.0  0.74020  0.78410  0.60500  1.0000 0.1310364067
H   H24       1.0  0.25980  0.21590  0.10500  1.0000 0.1310364067
H   H25       1.0  0.72710  0.63990  0.45850  1.0000 0.0994061692
H   H26       1.0  0.27290  0.36010  0.95850  1.0000 0.0994061692
H   H27       1.0  0.86010  0.22710  0.70850  1.0000 0.0994061692
H   H28       1.0  0.13990  0.77290  0.20850  1.0000 0.0994061692
H   H29       1.0  0.77290  0.13990  0.79150  1.0000 0.0994061692
H   H30       1.0  0.22710  0.86010  0.29150  1.0000 0.0994061692
H   H31       1.0  0.63990  0.72710  0.54150  1.0000 0.0994061692
H   H32       1.0  0.36010  0.27290  0.04150  1.0000 0.0994061692
H   H33       1.0  0.65240  0.79580  0.22040  1.0000 0.0994061692
H   H34       1.0  0.34760  0.20420  0.72040  1.0000 0.0994061692
H   H35       1.0  0.70420  0.15240  0.47040  1.0000 0.0994061692
H   H36       1.0  0.29580  0.84760  0.97040  1.0000 0.0994061692
H   H37       1.0  0.84760  0.29580  0.02960  1.0000 0.0994061692
H   H38       1.0  0.15240  0.70420  0.52960  1.0000 0.0994061692
H   H39       1.0  0.79580  0.65240  0.77960  1.0000 0.0994061692
H   H40       1.0  0.20420  0.34760  0.27960  1.0000 0.0994061692
H   H41       1.0  0.70300  0.90840  0.16600  1.0000 0.0994061692
H   H42       1.0  0.29700  0.09160  0.66600  1.0000 0.0994061692
H   H43       1.0  0.59160  0.20300  0.41600  1.0000 0.0994061692
H   H44       1.0  0.40840  0.79700  0.91600  1.0000 0.0994061692
H   H45       1.0  0.79700  0.40840  0.08400  1.0000 0.0994061692
H   H46       1.0  0.20300  0.59160  0.58400  1.0000 0.0994061692
H   H47       1.0  0.90840  0.70300  0.83400  1.0000 0.0994061692
H   H48       1.0  0.09160  0.29700  0.33400  1.0000 0.0994061692
H   H49       1.0  0.80120  0.99940  0.20750  1.0000 0.110236686
H   H50       1.0  0.19880  0.00060  0.70750  1.0000 0.110236686
H   H51       1.0  0.50060  0.30120  0.45750  1.0000 0.110236686
H   H52       1.0  0.49940  0.69880  0.95750  1.0000 0.110236686
H   H53       1.0  0.69880  0.49940  0.04250  1.0000 0.110236686
H   H54       1.0  0.30120  0.50060  0.54250  1.0000 0.110236686
H   H55       1.0  0.99940  0.80120  0.79250  1.0000 0.110236686
H   H56       1.0  0.00060  0.19880  0.29250  1.0000 0.110236686
H   H57       1.0  0.79580  0.86420  0.36290  1.0000 0.110236686
H   H58       1.0  0.20420  0.13580  0.86290  1.0000 0.110236686
H   H59       1.0  0.63580  0.29580  0.61290  1.0000 0.110236686
H   H60       1.0  0.36420  0.70420  0.11290  1.0000 0.110236686
H   H61       1.0  0.70420  0.36420  0.88710  1.0000 0.110236686
H   H62       1.0  0.29580  0.63580  0.38710  1.0000 0.110236686
H   H63       1.0  0.86420  0.79580  0.63710  1.0000 0.110236686
H   H64       1.0  0.13580  0.20420  0.13710  1.0000 0.110236686
H   H65       1.0  0.04250  0.11830  0.45950  1.0000 0.110236686
H   H66       1.0  0.95750  0.88170  0.95950  1.0000 0.110236686
H   H67       1.0  0.38170  0.54250  0.70950  1.0000 0.110236686
H   H68       1.0  0.61830  0.45750  0.20950  1.0000 0.110236686
H   H69       1.0  0.45750  0.61830  0.79050  1.0000 0.110236686
H   H70       1.0  0.54250  0.38170  0.29050  1.0000 0.110236686
H   H71       1.0  0.11830  0.04250  0.54050  1.0000 0.110236686
H   H72       1.0  0.88170  0.95750  0.04050  1.0000 0.110236686
H   H73       1.0  0.06140  0.22800  0.52890  1.0000 0.110236686
H   H74       1.0  0.93860  0.77200  0.02890  1.0000 0.110236686
H   H75       1.0  0.27200  0.56140  0.77890  1.0000 0.110236686
H   H76       1.0  0.72800  0.43860  0.27890  1.0000 0.110236686
H   H77       1.0  0.43860  0.72800  0.72110  1.0000 0.110236686
H   H78       1.0  0.56140  0.27200  0.22110  1.0000 0.110236686
H   H79       1.0  0.22800  0.06140  0.47110  1.0000 0.110236686
H   H80       1.0  0.77200  0.93860  0.97110  1.0000 0.110236686
H   H81       1.0  0.96060  0.33170  0.53850  1.0000 0.110236686
H   H82       1.0  0.03940  0.66830  0.03850  1.0000 0.110236686
H   H83       1.0  0.16830  0.46060  0.78850  1.0000 0.110236686
H   H84       1.0  0.83170  0.53940  0.28850  1.0000 0.110236686
H   H85       1.0  0.53940  0.83170  0.71150  1.0000 0.110236686
H   H86       1.0  0.46060  0.16830  0.21150  1.0000 0.110236686
H   H87       1.0  0.33170  0.96060  0.46150  1.0000 0.110236686
H   H88       1.0  0.66830  0.03940  0.96150  1.0000 0.110236686
H   H89       1.0  0.82630  0.22380  0.40480  1.0000 0.110236686
H   H90       1.0  0.17370  0.77620  0.90480  1.0000 0.110236686
H   H91       1.0  0.27620  0.32630  0.65480  1.0000 0.110236686
H   H92       1.0  0.72380  0.67370  0.15480  1.0000 0.110236686
H   H93       1.0  0.67370  0.72380  0.84520  1.0000 0.110236686
H   H94       1.0  0.32630  0.27620  0.34520  1.0000 0.110236686
H   H95       1.0  0.22380  0.82630  0.59520  1.0000 0.110236686
H   H96       1.0  0.77620  0.17370  0.09520  1.0000 0.110236686
H   H97       1.0  0.84510  0.39600  0.56280  1.0000 0.1310364067
H   H98       1.0  0.15490  0.60400  0.06280  1.0000 0.1310364067
H   H99       1.0  0.10400  0.34510  0.81280  1.0000 0.1310364067
H   H100      1.0  0.89600  0.65490  0.31280  1.0000 0.1310364067
H   H101      1.0  0.65490  0.89600  0.68720  1.0000 0.1310364067
H   H102      1.0  0.34510  0.10400  0.18720  1.0000 0.1310364067
H   H103      1.0  0.39600  0.84510  0.43720  1.0000 0.1310364067
H   H104      1.0  0.60400  0.15490  0.93720  1.0000 0.1310364067
H   H105      1.0  0.73480  0.48880  0.57250  1.0000 0.0994061692
H   H106      1.0  0.26520  0.51120  0.07250  1.0000 0.0994061692
H   H107      1.0  0.01120  0.23480  0.82250  1.0000 0.0994061692
H   H108      1.0  0.98880  0.76520  0.32250  1.0000 0.0994061692
H   H109      1.0  0.76520  0.98880  0.67750  1.0000 0.0994061692
H   H110      1.0  0.23480  0.01120  0.17750  1.0000 0.0994061692
H   H111      1.0  0.48880  0.73480  0.42750  1.0000 0.0994061692
H   H112      1.0  0.51120  0.26520  0.92750  1.0000 0.0994061692
H   H113      1.0  0.66120  0.44270  0.40670  1.0000 0.0994061692
H   H114      1.0  0.33880  0.55730  0.90670  1.0000 0.0994061692
H   H115      1.0  0.05730  0.16120  0.65670  1.0000 0.0994061692
H   H116      1.0  0.94270  0.83880  0.15670  1.0000 0.0994061692
H   H117      1.0  0.83880  0.94270  0.84330  1.0000 0.0994061692
H   H118      1.0  0.16120  0.05730  0.34330  1.0000 0.0994061692
H   H119      1.0  0.44270  0.66120  0.59330  1.0000 0.0994061692
H   H120      1.0  0.55730  0.33880  0.09330  1.0000 0.0994061692
H   H121      1.0  0.76700  0.34910  0.39220  1.0000 0.1310364067
H   H122      1.0  0.23300  0.65090  0.89220  1.0000 0.1310364067
H   H123      1.0  0.15090  0.26700  0.64220  1.0000 0.1310364067
H   H124      1.0  0.84910  0.73300  0.14220  1.0000 0.1310364067
H   H125      1.0  0.73300  0.84910  0.85780  1.0000 0.1310364067
H   H126      1.0  0.26700  0.15090  0.35780  1.0000 0.1310364067
H   H127      1.0  0.34910  0.76700  0.60780  1.0000 0.1310364067
H   H128      1.0  0.65090  0.23300  0.10780  1.0000 0.1310364067
H   H129      1.0  0.74260  0.02440  0.39090  1.0000 0.2547767542
H   H130      1.0  0.25740  0.97560  0.89090  1.0000 0.2551070534
H   H131      1.0  0.47560  0.24260  0.64090  1.0000 0.2551070534
H   H132      1.0  0.52440  0.75740  0.14090  1.0000 0.2547767542
H   H133      1.0  0.75740  0.52440  0.85910  1.0000 0.2547767542
H   H134      1.0  0.24260  0.47560  0.35910  1.0000 0.2551070534
H   H135      1.0  0.02440  0.74260  0.60910  1.0000 0.2551070534
H   H136      1.0  0.97560  0.25740  0.10910  1.0000 0.2547767542
H   H137      1.0  0.73950  0.10070  0.35420  1.0000 0.244307109
H   H138      1.0  0.26050  0.89930  0.85420  1.0000 0.244307109
H   H139      1.0  0.39930  0.23950  0.60420  1.0000 0.244307109
H   H140      1.0  0.60070  0.76050  0.10420  1.0000 0.244307109
H   H141      1.0  0.76050  0.60070  0.89580  1.0000 0.244307109
H   H142      1.0  0.23950  0.39930  0.39580  1.0000 0.244307109
H   H143      1.0  0.10070  0.73950  0.64580  1.0000 0.244307109
H   H144      1.0  0.89930  0.26050  0.14580  1.0000 0.244307109
C   C1        1.0  0.58450  0.64070  0.36060  1.0000 0.0688312444
C   C2        1.0  0.41550  0.35930  0.86060  1.0000 0.0688312444
C   C3        1.0  0.85930  0.08450  0.61060  1.0000 0.0688312444
C   C4        1.0  0.14070  0.91550  0.11060  1.0000 0.0688312444
C   C5        1.0  0.91550  0.14070  0.88940  1.0000 0.0688312444
C   C6        1.0  0.08450  0.85930  0.38940  1.0000 0.0577427316
C   C7        1.0  0.64070  0.58450  0.63940  1.0000 0.0688312444
C   C8        1.0  0.35930  0.41550  0.13940  1.0000 0.0688312444
C   C9        1.0  0.61340  0.70170  0.32180  1.0000 -0.2012008435
C   C10       1.0  0.38660  0.29830  0.82180  1.0000 -0.2012008435
C   C11       1.0  0.79830  0.11340  0.57180  1.0000 -0.2012008435
C   C12       1.0  0.20170  0.88660  0.07180  1.0000 -0.2012008435
C   C13       1.0  0.88660  0.20170  0.92820  1.0000 -0.2012008435
C   C14       1.0  0.11340  0.79830  0.42820  1.0000 -0.2012008435
C   C15       1.0  0.70170  0.61340  0.67820  1.0000 -0.2012008435
C   C16       1.0  0.29830  0.38660  0.17820  1.0000 -0.2012008435
C   C17       1.0  0.68750  0.74570  0.33500  1.0000 0.110236686
C   C18       1.0  0.31250  0.25430  0.83500  1.0000 0.110236686
C   C19       1.0  0.75430  0.18750  0.58500  1.0000 0.110236686
C   C20       1.0  0.24570  0.81250  0.08500  1.0000 0.110236686
C   C21       1.0  0.81250  0.24570  0.91500  1.0000 0.110236686
C   C22       1.0  0.18750  0.75430  0.41500  1.0000 0.110236686
C   C23       1.0  0.74570  0.68750  0.66500  1.0000 0.110236686
C   C24       1.0  0.25430  0.31250  0.16500  1.0000 0.110236686
C   C25       1.0  0.73120  0.71760  0.38610  1.0000 -0.2012008435
C   C26       1.0  0.26880  0.28240  0.88610  1.0000 -0.2012008435
C   C27       1.0  0.78240  0.23120  0.63610  1.0000 -0.2012008435
C   C28       1.0  0.21760  0.76880  0.13610  1.0000 -0.2012008435
C   C29       1.0  0.76880  0.21760  0.86390  1.0000 -0.2012008435
C   C30       1.0  0.23120  0.78240  0.36390  1.0000 -0.2012008435
C   C31       1.0  0.71760  0.73120  0.61390  1.0000 -0.2012008435
C   C32       1.0  0.28240  0.26880  0.11390  1.0000 -0.2012008435
C   C33       1.0  0.69720  0.65630  0.42390  1.0000 0.0450542428
C   C34       1.0  0.30280  0.34370  0.92390  1.0000 0.0398744597
C   C35       1.0  0.84370  0.19720  0.67390  1.0000 0.0398744597
C   C36       1.0  0.15630  0.80280  0.17390  1.0000 0.0398744597
C   C37       1.0  0.80280  0.15630  0.82610  1.0000 0.0398744597
C   C38       1.0  0.19720  0.84370  0.32610  1.0000 0.0398744597
C   C39       1.0  0.65630  0.69720  0.57610  1.0000 0.0450542428
C   C40       1.0  0.34370  0.30280  0.07610  1.0000 0.0398744597
C   C41       1.0  0.71870  0.81780  0.29770  1.0000 0.0688312444
C   C42       1.0  0.28130  0.18220  0.79770  1.0000 0.0688312444
C   C43       1.0  0.68220  0.21870  0.54770  1.0000 0.0688312444
C   C44       1.0  0.31780  0.78130  0.04770  1.0000 0.0688312444
C   C45       1.0  0.78130  0.31780  0.95230  1.0000 0.0688312444
C   C46       1.0  0.21870  0.68220  0.45230  1.0000 0.0688312444
C   C47       1.0  0.81780  0.71870  0.70230  1.0000 0.0688312444
C   C48       1.0  0.18220  0.28130  0.20230  1.0000 0.0688312444
C   C49       1.0  0.69160  0.83210  0.23820  1.0000 -0.1580805689
C   C50       1.0  0.30840  0.16790  0.73820  1.0000 -0.1651692606
C   C51       1.0  0.66790  0.19160  0.48820  1.0000 -0.1651692606
C   C52       1.0  0.33210  0.80840  0.98820  1.0000 -0.1580805689
C   C53       1.0  0.80840  0.33210  0.01180  1.0000 -0.1580805689
C   C54       1.0  0.19160  0.66790  0.51180  1.0000 -0.1651692606
C   C55       1.0  0.83210  0.69160  0.76180  1.0000 -0.1580805689
C   C56       1.0  0.16790  0.30840  0.26180  1.0000 -0.1651692606
C   C57       1.0  0.72230  0.89930  0.20570  1.0000 -0.1026970811
C   C58       1.0  0.27770  0.10070  0.70570  1.0000 -0.1026970811
C   C59       1.0  0.60070  0.22230  0.45570  1.0000 -0.1026970811
C   C60       1.0  0.39930  0.77770  0.95570  1.0000 -0.1026970811
C   C61       1.0  0.77770  0.39930  0.04430  1.0000 -0.1026970811
C   C62       1.0  0.22230  0.60070  0.54430  1.0000 -0.1026970811
C   C63       1.0  0.89930  0.72230  0.79430  1.0000 -0.1026970811
C   C64       1.0  0.10070  0.27770  0.29430  1.0000 -0.1026970811
C   C65       1.0  0.78110  0.95400  0.23020  1.0000 -0.1580805689
C   C66       1.0  0.21890  0.04600  0.73020  1.0000 -0.1580805689
C   C67       1.0  0.54600  0.28110  0.48020  1.0000 -0.1580805689
C   C68       1.0  0.45400  0.71890  0.98020  1.0000 -0.1580805689
C   C69       1.0  0.71890  0.45400  0.01980  1.0000 -0.1580805689
C   C70       1.0  0.28110  0.54600  0.51980  1.0000 -0.1580805689
C   C71       1.0  0.95400  0.78110  0.76980  1.0000 -0.1580805689
C   C72       1.0  0.04600  0.21890  0.26980  1.0000 -0.1580805689
C   C73       1.0  0.81000  0.93990  0.28990  1.0000 0.0150935024
C   C74       1.0  0.19000  0.06010  0.78990  1.0000 0.0146420121
C   C75       1.0  0.56010  0.31000  0.53990  1.0000 0.0150935024
C   C76       1.0  0.43990  0.69000  0.03990  1.0000 0.0146420121
C   C77       1.0  0.69000  0.43990  0.96010  1.0000 0.0150935024
C   C78       1.0  0.31000  0.56010  0.46010  1.0000 0.0150935024
C   C79       1.0  0.93990  0.81000  0.71010  1.0000 0.0146420121
C   C80       1.0  0.06010  0.19000  0.21010  1.0000 0.0146420121
C   C81       1.0  0.77770  0.87280  0.32290  1.0000 -0.1899404928
C   C82       1.0  0.22230  0.12720  0.82290  1.0000 -0.1899404928
C   C83       1.0  0.62720  0.27770  0.57290  1.0000 -0.1899404928
C   C84       1.0  0.37280  0.72230  0.07290  1.0000 -0.1899404928
C   C85       1.0  0.72230  0.37280  0.92710  1.0000 -0.1899404928
C   C86       1.0  0.27770  0.62720  0.42710  1.0000 -0.1899404928
C   C87       1.0  0.87280  0.77770  0.67710  1.0000 -0.1899404928
C   C88       1.0  0.12720  0.22230  0.17710  1.0000 -0.1899404928
C   C89       1.0  0.87250  0.99590  0.31950  1.0000 0.1861623123
C   C90       1.0  0.12750  0.00410  0.81950  1.0000 0.1861623123
C   C91       1.0  0.50410  0.37250  0.56950  1.0000 0.1861623123
C   C92       1.0  0.49590  0.62750  0.06950  1.0000 0.1861623123
C   C93       1.0  0.62750  0.49590  0.93050  1.0000 0.1861623123
C   C94       1.0  0.37250  0.50410  0.43050  1.0000 0.1861623123
C   C95       1.0  0.99590  0.87250  0.68050  1.0000 0.1861623123
C   C96       1.0  0.00410  0.12750  0.18050  1.0000 0.1861623123
C   C97       1.0  0.92320  0.09100  0.38170  1.0000 0.1861623123
C   C98       1.0  0.07680  0.90900  0.88170  1.0000 0.1861623123
C   C99       1.0  0.40900  0.42320  0.63170  1.0000 0.1861623123
C   C100      1.0  0.59100  0.57680  0.13170  1.0000 0.1861623123
C   C101      1.0  0.57680  0.59100  0.86830  1.0000 0.1861623123
C   C102      1.0  0.42320  0.40900  0.36830  1.0000 0.1861623123
C   C103      1.0  0.09100  0.92320  0.61830  1.0000 0.1861623123
C   C104      1.0  0.90900  0.07680  0.11830  1.0000 0.1861623123
C   C105      1.0  0.93110  0.16060  0.42560  1.0000 0.0398744597
C   C106      1.0  0.06890  0.83940  0.92560  1.0000 0.0398744597
C   C107      1.0  0.33940  0.43110  0.67560  1.0000 0.0398744597
C   C108      1.0  0.66060  0.56890  0.17560  1.0000 0.0398744597
C   C109      1.0  0.56890  0.66060  0.82440  1.0000 0.0398744597
C   C110      1.0  0.43110  0.33940  0.32440  1.0000 0.0398744597
C   C111      1.0  0.16060  0.93110  0.57440  1.0000 0.0398744597
C   C112      1.0  0.83940  0.06890  0.07440  1.0000 0.0398744597
C   C113      1.0  0.00260  0.16110  0.46260  1.0000 -0.1485346324
C   C114      1.0  0.99740  0.83890  0.96260  1.0000 -0.1485346324
C   C115      1.0  0.33890  0.50260  0.71260  1.0000 -0.1485346324
C   C116      1.0  0.66110  0.49740  0.21260  1.0000 -0.1485346324
C   C117      1.0  0.49740  0.66110  0.78740  1.0000 -0.1485346324
C   C118      1.0  0.50260  0.33890  0.28740  1.0000 -0.1485346324
C   C119      1.0  0.16110  0.00260  0.53740  1.0000 -0.1485346324
C   C120      1.0  0.83890  0.99740  0.03740  1.0000 -0.1485346324
C   C121      1.0  0.01350  0.22670  0.50430  1.0000 -0.1101447094
C   C122      1.0  0.98650  0.77330  0.00430  1.0000 -0.1101447094
C   C123      1.0  0.27330  0.51350  0.75430  1.0000 -0.1101447094
C   C124      1.0  0.72670  0.48650  0.25430  1.0000 -0.1101447094
C   C125      1.0  0.48650  0.72670  0.74570  1.0000 -0.1101447094
C   C126      1.0  0.51350  0.27330  0.24570  1.0000 -0.1101447094
C   C127      1.0  0.22670  0.01350  0.49570  1.0000 -0.1101447094
C   C128      1.0  0.77330  0.98650  0.99570  1.0000 -0.1101447094
C   C129      1.0  0.95400  0.28930  0.50940  1.0000 -0.1580805689
C   C130      1.0  0.04600  0.71070  0.00940  1.0000 -0.1580805689
C   C131      1.0  0.21070  0.45400  0.75940  1.0000 -0.1580805689
C   C132      1.0  0.78930  0.54600  0.25940  1.0000 -0.1580805689
C   C133      1.0  0.54600  0.78930  0.74060  1.0000 -0.1580805689
C   C134      1.0  0.45400  0.21070  0.24060  1.0000 -0.1580805689
C   C135      1.0  0.28930  0.95400  0.49060  1.0000 -0.1580805689
C   C136      1.0  0.71070  0.04600  0.99060  1.0000 -0.1580805689
C   C137      1.0  0.88430  0.28950  0.47140  1.0000 0.0688312444
C   C138      1.0  0.11570  0.71050  0.97140  1.0000 0.0688312444
C   C139      1.0  0.21050  0.38430  0.72140  1.0000 0.0688312444
C   C140      1.0  0.78950  0.61570  0.22140  1.0000 0.0688312444
C   C141      1.0  0.61570  0.78950  0.77860  1.0000 0.0688312444
C   C142      1.0  0.38430  0.21050  0.27860  1.0000 0.0688312444
C   C143      1.0  0.28950  0.88430  0.52860  1.0000 0.0688312444
C   C144      1.0  0.71050  0.11570  0.02860  1.0000 0.0688312444
C   C145      1.0  0.87360  0.22420  0.43000  1.0000 -0.1899404928
C   C146      1.0  0.12640  0.77580  0.93000  1.0000 -0.1899404928
C   C147      1.0  0.27580  0.37360  0.68000  1.0000 -0.1899404928
C   C148      1.0  0.72420  0.62640  0.18000  1.0000 -0.1899404928
C   C149      1.0  0.62640  0.72420  0.82000  1.0000 -0.1899404928
C   C150      1.0  0.37360  0.27580  0.32000  1.0000 -0.1899404928
C   C151      1.0  0.22420  0.87360  0.57000  1.0000 -0.1899404928
C   C152      1.0  0.77580  0.12640  0.07000  1.0000 -0.1899404928
C   C153      1.0  0.81770  0.35750  0.47740  1.0000 0.110236686
C   C154      1.0  0.18230  0.64250  0.97740  1.0000 0.110236686
C   C155      1.0  0.14250  0.31770  0.72740  1.0000 0.1151438736
C   C156      1.0  0.85750  0.68230  0.22740  1.0000 0.110236686
C   C157      1.0  0.68230  0.85750  0.77260  1.0000 0.110236686
C   C158      1.0  0.31770  0.14250  0.27260  1.0000 0.1151438736
C   C159      1.0  0.35750  0.81770  0.52260  1.0000 0.110236686
C   C160      1.0  0.64250  0.18230  0.02260  1.0000 0.110236686
C   C161      1.0  0.80750  0.40320  0.53050  1.0000 -0.2012008435
C   C162      1.0  0.19250  0.59680  0.03050  1.0000 -0.2012008435
C   C163      1.0  0.09680  0.30750  0.78050  1.0000 -0.2012008435
C   C164      1.0  0.90320  0.69250  0.28050  1.0000 -0.2012008435
C   C165      1.0  0.69250  0.90320  0.71950  1.0000 -0.2012008435
C   C166      1.0  0.30750  0.09680  0.21950  1.0000 -0.2012008435
C   C167      1.0  0.40320  0.80750  0.46950  1.0000 -0.2012008435
C   C168      1.0  0.59680  0.19250  0.96950  1.0000 -0.2012008435
C   C169      1.0  0.74110  0.46000  0.53570  1.0000 0.0688312444
C   C170      1.0  0.25890  0.54000  0.03570  1.0000 0.0688312444
C   C171      1.0  0.04000  0.24110  0.78570  1.0000 0.0688312444
C   C172      1.0  0.96000  0.75890  0.28570  1.0000 0.0688312444
C   C173      1.0  0.75890  0.96000  0.71430  1.0000 0.0688312444
C   C174      1.0  0.24110  0.04000  0.21430  1.0000 0.0688312444
C   C175      1.0  0.46000  0.74110  0.46430  1.0000 0.0688312444
C   C176      1.0  0.54000  0.25890  0.96430  1.0000 0.0688312444
C   C177      1.0  0.69830  0.43280  0.43890  1.0000 0.0577427316
C   C178      1.0  0.30170  0.56720  0.93890  1.0000 0.0577427316
C   C179      1.0  0.06720  0.19830  0.68890  1.0000 0.0577427316
C   C180      1.0  0.93280  0.80170  0.18890  1.0000 0.0577427316
C   C181      1.0  0.80170  0.93280  0.81110  1.0000 0.0577427316
C   C182      1.0  0.19830  0.06720  0.31110  1.0000 0.0577427316
C   C183      1.0  0.43280  0.69830  0.56110  1.0000 0.0577427316
C   C184      1.0  0.56720  0.30170  0.06110  1.0000 0.0577427316
C   C185      1.0  0.76140  0.37580  0.42990  1.0000 -0.2012008435
C   C186      1.0  0.23860  0.62420  0.92990  1.0000 -0.2012008435
C   C187      1.0  0.12420  0.26140  0.67990  1.0000 -0.2012008435
C   C188      1.0  0.87580  0.73860  0.17990  1.0000 -0.2012008435
C   C189      1.0  0.73860  0.87580  0.82010  1.0000 -0.2012008435
C   C190      1.0  0.26140  0.12420  0.32010  1.0000 -0.2012008435
C   C191      1.0  0.37580  0.76140  0.57010  1.0000 -0.2012008435
C   C192      1.0  0.62420  0.23860  0.07010  1.0000 -0.2012008435
N   N1        1.0  0.62260  0.61990  0.41250  1.0000 -0.2323069351
N   N2        1.0  0.37740  0.38010  0.91250  1.0000 -0.2323069351
N   N3        1.0  0.88010  0.12260  0.66250  1.0000 -0.2323069351
N   N4        1.0  0.11990  0.87740  0.16250  1.0000 -0.2323069351
N   N5        1.0  0.87740  0.11990  0.83750  1.0000 -0.2323069351
N   N6        1.0  0.12260  0.88010  0.33750  1.0000 -0.2323069351
N   N7        1.0  0.61990  0.62260  0.58750  1.0000 -0.2323069351
N   N8        1.0  0.38010  0.37740  0.08750  1.0000 -0.2323069351
N   N9        1.0  0.95400  0.99390  0.31500  1.0000 -0.2323069351
N   N10       1.0  0.04600  0.00610  0.81500  1.0000 -0.2323069351
N   N11       1.0  0.50610  0.45400  0.56500  1.0000 -0.2323069351
N   N12       1.0  0.49390  0.54600  0.06500  1.0000 -0.2323069351
N   N13       1.0  0.54600  0.49390  0.93500  1.0000 -0.2323069351
N   N14       1.0  0.45400  0.50610  0.43500  1.0000 -0.2323069351
N   N15       1.0  0.99390  0.95400  0.68500  1.0000 -0.2323069351
N   N16       1.0  0.00610  0.04600  0.18500  1.0000 -0.2323069351
N   N17       1.0  0.98670  0.05490  0.35440  1.0000 -0.2785025641
N   N18       1.0  0.01330  0.94510  0.85440  1.0000 -0.2785025641
N   N19       1.0  0.44510  0.48670  0.60440  1.0000 -0.2785025641
N   N20       1.0  0.55490  0.51330  0.10440  1.0000 -0.2785025641
N   N21       1.0  0.51330  0.55490  0.89560  1.0000 -0.2785025641
N   N22       1.0  0.48670  0.44510  0.39560  1.0000 -0.2785025641
N   N23       1.0  0.05490  0.98670  0.64560  1.0000 -0.2785025641
N   N24       1.0  0.94510  0.01330  0.14560  1.0000 -0.2785025641
N   N25       1.0  0.84990  0.05580  0.36081  1.0000 0.0577427316
N   N26       1.0  0.15010  0.94420  0.86081  1.0000 0.0577427316
N   N27       1.0  0.44420  0.34990  0.61081  1.0000 0.0577427316
N   N28       1.0  0.55580  0.65010  0.11081  1.0000 0.0577427316
N   N29       1.0  0.65010  0.55580  0.88919  1.0000 0.0577427316
N   N30       1.0  0.34990  0.44420  0.38919  1.0000 0.0577427316
N   N31       1.0  0.05580  0.84990  0.63919  1.0000 0.0577427316
N   N32       1.0  0.94420  0.15010  0.13919  1.0000 0.0577427316
N   N33       1.0  0.76840  0.07300  0.38260  1.0000 -0.4878723502
N   N34       1.0  0.23160  0.92700  0.88260  1.0000 -0.4878723502
N   N35       1.0  0.42700  0.26840  0.63260  1.0000 -0.4878723502
N   N36       1.0  0.57300  0.73160  0.13260  1.0000 -0.4878723502
N   N37       1.0  0.73160  0.57300  0.86740  1.0000 -0.4878723502
N   N38       1.0  0.26840  0.42700  0.36740  1.0000 -0.4878723502
N   N39       1.0  0.07300  0.76840  0.61740  1.0000 -0.4878723502
N   N40       1.0  0.92700  0.23160  0.11740  1.0000 -0.4878723502
N   N41       1.0  0.68610  0.47580  0.49130  1.0000 -0.2372685291
N   N42       1.0  0.31390  0.52420  0.99130  1.0000 -0.2372685291
N   N43       1.0  0.02420  0.18610  0.74130  1.0000 -0.2372685291
N   N44       1.0  0.97580  0.81390  0.24130  1.0000 -0.2372685291
N   N45       1.0  0.81390  0.97580  0.75870  1.0000 -0.2372685291
N   N46       1.0  0.18610  0.02420  0.25870  1.0000 -0.2372685291
N   N47       1.0  0.47580  0.68610  0.50870  1.0000 -0.2372685291
N   N48       1.0  0.52420  0.31390  0.00870  1.0000 -0.2372685291
Cl  Cl1       1.0  0.62094  0.37906  0.75000  1.0000 1.0451862298
Cl  Cl2       1.0  0.37906  0.62094  0.25000  1.0000 1.043886928
Cl  Cl3       1.0  0.87906  0.87906  0.50000  1.0000 1.043886928
Cl  Cl4       1.0  0.12094  0.12094  0.00000  1.0000 1.043886928
O   O1        1.0  0.61400  0.32270  0.79370  1.0000 -0.3668286718
O   O2        1.0  0.67730  0.38600  0.70630  1.0000 -0.3668286718
O   O3        1.0  0.63560  0.44470  0.78220  1.0000 -0.3473778993
O   O4        1.0  0.55530  0.36440  0.71780  1.0000 -0.3473778993
O   O5        1.0  0.38600  0.67730  0.29370  1.0000 -0.3668286718
O   O6        1.0  0.32270  0.61400  0.20630  1.0000 -0.3668286718
O   O7        1.0  0.36440  0.55530  0.28220  1.0000 -0.3473778993
O   O8        1.0  0.44470  0.63560  0.21780  1.0000 -0.3473778993
O   O9        1.0  0.82270  0.88600  0.54370  1.0000 -0.3668286718
O   O10       1.0  0.88600  0.82270  0.45630  1.0000 -0.3668286718
O   O11       1.0  0.94470  0.86440  0.53220  1.0000 -0.3473778993
O   O12       1.0  0.86440  0.94470  0.46780  1.0000 -0.3473778993
O   O13       1.0  0.17730  0.11400  0.04370  1.0000 -0.3668286718
O   O14       1.0  0.11400  0.17730  0.95630  1.0000 -0.3668286718
O   O15       1.0  0.05530  0.13560  0.03220  1.0000 -0.3473778993
O   O16       1.0  0.13560  0.05530  0.96780  1.0000 -0.3473778993
