# DDEC6 charges by PACMAN v1.1 (https://github.com/mtap-research/PACMAN-charge/)
data_2010[Cd][nuc]3[ION]3
_chemical_formula_sum              "Cd4 H144 C192 N48 Cl4 O16"
_cell_length_a       15.8926
_cell_length_b       15.8926
_cell_length_c       21.972
_cell_angle_alpha    90
_cell_angle_beta     90
_cell_angle_gamma    90

_symmetry_space_group_name_H-M    "P 1"
_symmetry_Int_Tables_number       1

loop_
  _symmetry_equiv_pos_as_xyz
  'x, y, z'

loop_
  _atom_site_type_symbol
  _atom_site_label
  _atom_site_symmetry_multiplicity
  _atom_site_fract_x
  _atom_site_fract_y
  _atom_site_fract_z
  _atom_site_occupancy
  _atom_site_charge
Cd  Cd1       1.0  0.05630  0.94370  0.75000  1.0000 0.6474264619
Cd  Cd2       1.0  0.94370  0.05630  0.25000  1.0000 0.6474264619
Cd  Cd3       1.0  0.55630  0.55630  0.50000  1.0000 0.6474264619
Cd  Cd4       1.0  0.44370  0.44370  0.00000  1.0000 0.6474264619
H   H1        1.0  0.53560  0.60950  0.64900  1.0000 0.0986143541
H   H2        1.0  0.46440  0.39050  0.14900  1.0000 0.0986143541
H   H3        1.0  0.89050  0.03560  0.39900  1.0000 0.0986143541
H   H4        1.0  0.10950  0.96440  0.89900  1.0000 0.0986143541
H   H5        1.0  0.96440  0.10950  0.10100  1.0000 0.0986143541
H   H6        1.0  0.03560  0.89050  0.60100  1.0000 0.0986143541
H   H7        1.0  0.60950  0.53560  0.35100  1.0000 0.0986143541
H   H8        1.0  0.39050  0.46440  0.85100  1.0000 0.0986143541
H   H9        1.0  0.58190  0.71510  0.71270  1.0000 0.1299134606
H   H10       1.0  0.41810  0.28490  0.21270  1.0000 0.1299134606
H   H11       1.0  0.78490  0.08190  0.46270  1.0000 0.1299134606
H   H12       1.0  0.21510  0.91810  0.96270  1.0000 0.1299134606
H   H13       1.0  0.91810  0.21510  0.03730  1.0000 0.1299134606
H   H14       1.0  0.08190  0.78490  0.53730  1.0000 0.1299134606
H   H15       1.0  0.71510  0.58190  0.28730  1.0000 0.1299134606
H   H16       1.0  0.28490  0.41810  0.78730  1.0000 0.1299134606
H   H17       1.0  0.78220  0.74280  0.60300  1.0000 0.1299134606
H   H18       1.0  0.21780  0.25720  0.10300  1.0000 0.1299134606
H   H19       1.0  0.75720  0.28220  0.35300  1.0000 0.1299134606
H   H20       1.0  0.24280  0.71780  0.85300  1.0000 0.1299134606
H   H21       1.0  0.71780  0.24280  0.14700  1.0000 0.1299134606
H   H22       1.0  0.28220  0.75720  0.64700  1.0000 0.1299134606
H   H23       1.0  0.74280  0.78220  0.39700  1.0000 0.1299134606
H   H24       1.0  0.25720  0.21780  0.89700  1.0000 0.1299134606
H   H25       1.0  0.72480  0.64390  0.53890  1.0000 0.0986143541
H   H26       1.0  0.27520  0.35610  0.03890  1.0000 0.0986143541
H   H27       1.0  0.85610  0.22480  0.28890  1.0000 0.0986143541
H   H28       1.0  0.14390  0.77520  0.78890  1.0000 0.0986143541
H   H29       1.0  0.77520  0.14390  0.21110  1.0000 0.0986143541
H   H30       1.0  0.22480  0.85610  0.71110  1.0000 0.0986143541
H   H31       1.0  0.64390  0.72480  0.46110  1.0000 0.0986143541
H   H32       1.0  0.35610  0.27520  0.96110  1.0000 0.0986143541
H   H33       1.0  0.65110  0.79550  0.77810  1.0000 0.0986143541
H   H34       1.0  0.34890  0.20450  0.27810  1.0000 0.0986143541
H   H35       1.0  0.70450  0.15110  0.52810  1.0000 0.0986143541
H   H36       1.0  0.29550  0.84890  0.02810  1.0000 0.0986143541
H   H37       1.0  0.84890  0.29550  0.97190  1.0000 0.0986143541
H   H38       1.0  0.15110  0.70450  0.47190  1.0000 0.0986143541
H   H39       1.0  0.79550  0.65110  0.22190  1.0000 0.0986143541
H   H40       1.0  0.20450  0.34890  0.72190  1.0000 0.0986143541
H   H41       1.0  0.70410  0.90650  0.83420  1.0000 0.1109481442
H   H42       1.0  0.29590  0.09350  0.33420  1.0000 0.1109481442
H   H43       1.0  0.59350  0.20410  0.58420  1.0000 0.1109481442
H   H44       1.0  0.40650  0.79590  0.08420  1.0000 0.1109481442
H   H45       1.0  0.79590  0.40650  0.91580  1.0000 0.1109481442
H   H46       1.0  0.20410  0.59350  0.41580  1.0000 0.1109481442
H   H47       1.0  0.90650  0.70410  0.16580  1.0000 0.1109481442
H   H48       1.0  0.09350  0.29590  0.66580  1.0000 0.1109481442
H   H49       1.0  0.80120  0.99980  0.79160  1.0000 0.1109481442
H   H50       1.0  0.19880  0.00020  0.29160  1.0000 0.1109481442
H   H51       1.0  0.50020  0.30120  0.54160  1.0000 0.1109481442
H   H52       1.0  0.49980  0.69880  0.04160  1.0000 0.1109481442
H   H53       1.0  0.69880  0.49980  0.95840  1.0000 0.1109481442
H   H54       1.0  0.30120  0.50020  0.45840  1.0000 0.1109481442
H   H55       1.0  0.99980  0.80120  0.20840  1.0000 0.1109481442
H   H56       1.0  0.00020  0.19880  0.70840  1.0000 0.1109481442
H   H57       1.0  0.79450  0.86680  0.63480  1.0000 0.1109481442
H   H58       1.0  0.20550  0.13320  0.13480  1.0000 0.1109481442
H   H59       1.0  0.63320  0.29450  0.38480  1.0000 0.1109481442
H   H60       1.0  0.36680  0.70550  0.88480  1.0000 0.1109481442
H   H61       1.0  0.70550  0.36680  0.11520  1.0000 0.1109481442
H   H62       1.0  0.29450  0.63320  0.61520  1.0000 0.1109481442
H   H63       1.0  0.86680  0.79450  0.36520  1.0000 0.1109481442
H   H64       1.0  0.13320  0.20550  0.86520  1.0000 0.1109481442
H   H65       1.0  0.04370  0.11950  0.54210  1.0000 0.1109481442
H   H66       1.0  0.95630  0.88050  0.04210  1.0000 0.1109481442
H   H67       1.0  0.38050  0.54370  0.29210  1.0000 0.1109481442
H   H68       1.0  0.61950  0.45630  0.79210  1.0000 0.1109481442
H   H69       1.0  0.45630  0.61950  0.20790  1.0000 0.1109481442
H   H70       1.0  0.54370  0.38050  0.70790  1.0000 0.1109481442
H   H71       1.0  0.11950  0.04370  0.45790  1.0000 0.1109481442
H   H72       1.0  0.88050  0.95630  0.95790  1.0000 0.1109481442
H   H73       1.0  0.06030  0.22960  0.47170  1.0000 0.1109481442
H   H74       1.0  0.93970  0.77040  0.97170  1.0000 0.1109481442
H   H75       1.0  0.27040  0.56030  0.22170  1.0000 0.1109481442
H   H76       1.0  0.72960  0.43970  0.72170  1.0000 0.1109481442
H   H77       1.0  0.43970  0.72960  0.27830  1.0000 0.1109481442
H   H78       1.0  0.56030  0.27040  0.77830  1.0000 0.1109481442
H   H79       1.0  0.22960  0.06030  0.52830  1.0000 0.1109481442
H   H80       1.0  0.77040  0.93970  0.02830  1.0000 0.1109481442
H   H81       1.0  0.96200  0.33380  0.46300  1.0000 0.1109481442
H   H82       1.0  0.03800  0.66620  0.96300  1.0000 0.1109481442
H   H83       1.0  0.16620  0.46200  0.21300  1.0000 0.1109481442
H   H84       1.0  0.83380  0.53800  0.71300  1.0000 0.1109481442
H   H85       1.0  0.53800  0.83380  0.28700  1.0000 0.1109481442
H   H86       1.0  0.46200  0.16620  0.78700  1.0000 0.1109481442
H   H87       1.0  0.33380  0.96200  0.53700  1.0000 0.1109481442
H   H88       1.0  0.66620  0.03800  0.03700  1.0000 0.1109481442
H   H89       1.0  0.82350  0.22340  0.59620  1.0000 0.0986143541
H   H90       1.0  0.17650  0.77660  0.09620  1.0000 0.0986143541
H   H91       1.0  0.27660  0.32350  0.34620  1.0000 0.0986143541
H   H92       1.0  0.72340  0.67650  0.84620  1.0000 0.0986143541
H   H93       1.0  0.67650  0.72340  0.15380  1.0000 0.0986143541
H   H94       1.0  0.32350  0.27660  0.65380  1.0000 0.0986143541
H   H95       1.0  0.22340  0.82350  0.40380  1.0000 0.0986143541
H   H96       1.0  0.77660  0.17650  0.90380  1.0000 0.0986143541
H   H97       1.0  0.76700  0.34870  0.60890  1.0000 0.1299134606
H   H98       1.0  0.23300  0.65130  0.10890  1.0000 0.1299134606
H   H99       1.0  0.15130  0.26700  0.35890  1.0000 0.1299134606
H   H100      1.0  0.84870  0.73300  0.85890  1.0000 0.1299134606
H   H101      1.0  0.73300  0.84870  0.14110  1.0000 0.1299134606
H   H102      1.0  0.26700  0.15130  0.64110  1.0000 0.1299134606
H   H103      1.0  0.34870  0.76700  0.39110  1.0000 0.1299134606
H   H104      1.0  0.65130  0.23300  0.89110  1.0000 0.1299134606
H   H105      1.0  0.66100  0.44520  0.59570  1.0000 0.0986143541
H   H106      1.0  0.33900  0.55480  0.09570  1.0000 0.0986143541
H   H107      1.0  0.05480  0.16100  0.34570  1.0000 0.0986143541
H   H108      1.0  0.94520  0.83900  0.84570  1.0000 0.0986143541
H   H109      1.0  0.83900  0.94520  0.15430  1.0000 0.0986143541
H   H110      1.0  0.16100  0.05480  0.65430  1.0000 0.0986143541
H   H111      1.0  0.44520  0.66100  0.40430  1.0000 0.0986143541
H   H112      1.0  0.55480  0.33900  0.90430  1.0000 0.0986143541
H   H113      1.0  0.73390  0.48770  0.42820  1.0000 0.0986143541
H   H114      1.0  0.26610  0.51230  0.92820  1.0000 0.0986143541
H   H115      1.0  0.01230  0.23390  0.17820  1.0000 0.0986143541
H   H116      1.0  0.98770  0.76610  0.67820  1.0000 0.0986143541
H   H117      1.0  0.76610  0.98770  0.32180  1.0000 0.0986143541
H   H118      1.0  0.23390  0.01230  0.82180  1.0000 0.0986143541
H   H119      1.0  0.48770  0.73390  0.57180  1.0000 0.0986143541
H   H120      1.0  0.51230  0.26610  0.07180  1.0000 0.0986143541
H   H121      1.0  0.84270  0.39220  0.43820  1.0000 0.1299134606
H   H122      1.0  0.15730  0.60780  0.93820  1.0000 0.1299134606
H   H123      1.0  0.10780  0.34270  0.18820  1.0000 0.1299134606
H   H124      1.0  0.89220  0.65730  0.68820  1.0000 0.1299134606
H   H125      1.0  0.65730  0.89220  0.31180  1.0000 0.1299134606
H   H126      1.0  0.34270  0.10780  0.81180  1.0000 0.1299134606
H   H127      1.0  0.39220  0.84270  0.56180  1.0000 0.1299134606
H   H128      1.0  0.60780  0.15730  0.06180  1.0000 0.1299134606
H   H129      1.0  0.73940  0.02530  0.61090  1.0000 0.2677230482
H   H130      1.0  0.26060  0.97470  0.11090  1.0000 0.2677230482
H   H131      1.0  0.47470  0.23940  0.36090  1.0000 0.2677230482
H   H132      1.0  0.52530  0.76060  0.86090  1.0000 0.2677230482
H   H133      1.0  0.76060  0.52530  0.13910  1.0000 0.2677230482
H   H134      1.0  0.23940  0.47470  0.63910  1.0000 0.2677230482
H   H135      1.0  0.02530  0.73940  0.38910  1.0000 0.2677230482
H   H136      1.0  0.97470  0.26060  0.88910  1.0000 0.2677230482
H   H137      1.0  0.74060  0.10670  0.64400  1.0000 0.2518503872
H   H138      1.0  0.25940  0.89330  0.14400  1.0000 0.2518503872
H   H139      1.0  0.39330  0.24060  0.39400  1.0000 0.2518503872
H   H140      1.0  0.60670  0.75940  0.89400  1.0000 0.2518503872
H   H141      1.0  0.75940  0.60670  0.10600  1.0000 0.2518503872
H   H142      1.0  0.24060  0.39330  0.60600  1.0000 0.2518503872
H   H143      1.0  0.10670  0.74060  0.35600  1.0000 0.2518503872
H   H144      1.0  0.89330  0.25940  0.85600  1.0000 0.2518503872
C   C1        1.0  0.58460  0.63990  0.63780  1.0000 0.0848127437
C   C2        1.0  0.41540  0.36010  0.13780  1.0000 0.0848127437
C   C3        1.0  0.86010  0.08460  0.38780  1.0000 0.0851680842
C   C4        1.0  0.13990  0.91540  0.88780  1.0000 0.0848127437
C   C5        1.0  0.91540  0.13990  0.11220  1.0000 0.0848127437
C   C6        1.0  0.08460  0.86010  0.61220  1.0000 0.0851680842
C   C7        1.0  0.63990  0.58460  0.36220  1.0000 0.0848127437
C   C8        1.0  0.36010  0.41540  0.86220  1.0000 0.0848127437
C   C9        1.0  0.61270  0.70260  0.67680  1.0000 -0.2081907009
C   C10       1.0  0.38730  0.29740  0.17680  1.0000 -0.2081907009
C   C11       1.0  0.79740  0.11270  0.42680  1.0000 -0.2081907009
C   C12       1.0  0.20260  0.88730  0.92680  1.0000 -0.2081907009
C   C13       1.0  0.88730  0.20260  0.07320  1.0000 -0.2081907009
C   C14       1.0  0.11270  0.79740  0.57320  1.0000 -0.2081907009
C   C15       1.0  0.70260  0.61270  0.32320  1.0000 -0.2081907009
C   C16       1.0  0.29740  0.38730  0.82320  1.0000 -0.2081907009
C   C17       1.0  0.68650  0.74750  0.66350  1.0000 0.1109481442
C   C18       1.0  0.31350  0.25250  0.16350  1.0000 0.1109481442
C   C19       1.0  0.75250  0.18650  0.41350  1.0000 0.1109481442
C   C20       1.0  0.24750  0.81350  0.91350  1.0000 0.1109481442
C   C21       1.0  0.81350  0.24750  0.08650  1.0000 0.1109481442
C   C22       1.0  0.18650  0.75250  0.58650  1.0000 0.1109481442
C   C23       1.0  0.74750  0.68650  0.33650  1.0000 0.1109481442
C   C24       1.0  0.25250  0.31350  0.83650  1.0000 0.1109481442
C   C25       1.0  0.72870  0.71960  0.61240  1.0000 -0.1969995218
C   C26       1.0  0.27130  0.28040  0.11240  1.0000 -0.1969995218
C   C27       1.0  0.78040  0.22870  0.36240  1.0000 -0.1969995218
C   C28       1.0  0.21960  0.77130  0.86240  1.0000 -0.1969995218
C   C29       1.0  0.77130  0.21960  0.13760  1.0000 -0.1969995218
C   C30       1.0  0.22870  0.78040  0.63760  1.0000 -0.1969995218
C   C31       1.0  0.71960  0.72870  0.38760  1.0000 -0.1969995218
C   C32       1.0  0.28040  0.27130  0.88760  1.0000 -0.1969995218
C   C33       1.0  0.69500  0.65900  0.57480  1.0000 0.0221828123
C   C34       1.0  0.30500  0.34100  0.07480  1.0000 0.0221828123
C   C35       1.0  0.84100  0.19500  0.32480  1.0000 0.0221828123
C   C36       1.0  0.15900  0.80500  0.82480  1.0000 0.0221828123
C   C37       1.0  0.80500  0.15900  0.17520  1.0000 0.0221828123
C   C38       1.0  0.19500  0.84100  0.67520  1.0000 0.0221828123
C   C39       1.0  0.65900  0.69500  0.42520  1.0000 0.0221828123
C   C40       1.0  0.34100  0.30500  0.92520  1.0000 0.0221828123
C   C41       1.0  0.71680  0.81870  0.70070  1.0000 0.069960133
C   C42       1.0  0.28320  0.18130  0.20070  1.0000 0.069960133
C   C43       1.0  0.68130  0.21680  0.45070  1.0000 0.069960133
C   C44       1.0  0.31870  0.78320  0.95070  1.0000 0.069960133
C   C45       1.0  0.78320  0.31870  0.04930  1.0000 0.069960133
C   C46       1.0  0.21680  0.68130  0.54930  1.0000 0.069960133
C   C47       1.0  0.81870  0.71680  0.29930  1.0000 0.069960133
C   C48       1.0  0.18130  0.28320  0.79930  1.0000 0.069960133
C   C49       1.0  0.69110  0.83240  0.76010  1.0000 -0.1588590939
C   C50       1.0  0.30890  0.16760  0.26010  1.0000 -0.1588590939
C   C51       1.0  0.66760  0.19110  0.51010  1.0000 -0.1588590939
C   C52       1.0  0.33240  0.80890  0.01010  1.0000 -0.1588590939
C   C53       1.0  0.80890  0.33240  0.98990  1.0000 -0.1588590939
C   C54       1.0  0.19110  0.66760  0.48990  1.0000 -0.1588590939
C   C55       1.0  0.83240  0.69110  0.23990  1.0000 -0.1588590939
C   C56       1.0  0.16760  0.30890  0.73990  1.0000 -0.1588590939
C   C57       1.0  0.72250  0.89850  0.79350  1.0000 -0.1048472318
C   C58       1.0  0.27750  0.10150  0.29350  1.0000 -0.1048472318
C   C59       1.0  0.60150  0.22250  0.54350  1.0000 -0.1048472318
C   C60       1.0  0.39850  0.77750  0.04350  1.0000 -0.1048472318
C   C61       1.0  0.77750  0.39850  0.95650  1.0000 -0.1048472318
C   C62       1.0  0.22250  0.60150  0.45650  1.0000 -0.1056857283
C   C63       1.0  0.89850  0.72250  0.20650  1.0000 -0.1048472318
C   C64       1.0  0.10150  0.27750  0.70650  1.0000 -0.1056857283
C   C65       1.0  0.78060  0.95350  0.76860  1.0000 -0.1588590939
C   C66       1.0  0.21940  0.04650  0.26860  1.0000 -0.1588590939
C   C67       1.0  0.54650  0.28060  0.51860  1.0000 -0.1588590939
C   C68       1.0  0.45350  0.71940  0.01860  1.0000 -0.1588590939
C   C69       1.0  0.71940  0.45350  0.98140  1.0000 -0.1588590939
C   C70       1.0  0.28060  0.54650  0.48140  1.0000 -0.1588590939
C   C71       1.0  0.95350  0.78060  0.23140  1.0000 -0.1588590939
C   C72       1.0  0.04650  0.21940  0.73140  1.0000 -0.1588590939
C   C73       1.0  0.80850  0.93980  0.70860  1.0000 0.0221828123
C   C74       1.0  0.19150  0.06020  0.20860  1.0000 0.0221828123
C   C75       1.0  0.56020  0.30850  0.45860  1.0000 0.0221828123
C   C76       1.0  0.43980  0.69150  0.95860  1.0000 0.0221828123
C   C77       1.0  0.69150  0.43980  0.04140  1.0000 0.0221828123
C   C78       1.0  0.30850  0.56020  0.54140  1.0000 0.0221828123
C   C79       1.0  0.93980  0.80850  0.29140  1.0000 0.0221828123
C   C80       1.0  0.06020  0.19150  0.79140  1.0000 0.0221828123
C   C81       1.0  0.77640  0.87470  0.67560  1.0000 -0.1893266066
C   C82       1.0  0.22360  0.12530  0.17560  1.0000 -0.1893266066
C   C83       1.0  0.62530  0.27640  0.42560  1.0000 -0.1893266066
C   C84       1.0  0.37470  0.72360  0.92560  1.0000 -0.1893266066
C   C85       1.0  0.72360  0.37470  0.07440  1.0000 -0.1893266066
C   C86       1.0  0.27640  0.62530  0.57440  1.0000 -0.1893266066
C   C87       1.0  0.87470  0.77640  0.32440  1.0000 -0.1893266066
C   C88       1.0  0.12530  0.22360  0.82440  1.0000 -0.1893266066
C   C89       1.0  0.87160  0.99590  0.67950  1.0000 0.1842806694
C   C90       1.0  0.12840  0.00410  0.17950  1.0000 0.1842806694
C   C91       1.0  0.50410  0.37160  0.42950  1.0000 0.1842806694
C   C92       1.0  0.49590  0.62840  0.92950  1.0000 0.1842806694
C   C93       1.0  0.62840  0.49590  0.07050  1.0000 0.1842806694
C   C94       1.0  0.37160  0.50410  0.57050  1.0000 0.1842806694
C   C95       1.0  0.99590  0.87160  0.32050  1.0000 0.1842806694
C   C96       1.0  0.00410  0.12840  0.82050  1.0000 0.1842806694
C   C97       1.0  0.92260  0.09130  0.61880  1.0000 0.1892727856
C   C98       1.0  0.07740  0.90870  0.11880  1.0000 0.1892727856
C   C99       1.0  0.40870  0.42260  0.36880  1.0000 0.1892727856
C   C100      1.0  0.59130  0.57740  0.86880  1.0000 0.1892727856
C   C101      1.0  0.57740  0.59130  0.13120  1.0000 0.1892727856
C   C102      1.0  0.42260  0.40870  0.63120  1.0000 0.1892727856
C   C103      1.0  0.09130  0.92260  0.38120  1.0000 0.1892727856
C   C104      1.0  0.90870  0.07740  0.88120  1.0000 0.1892727856
C   C105      1.0  0.93140  0.15980  0.57470  1.0000 0.0344125238
C   C106      1.0  0.06860  0.84020  0.07470  1.0000 0.0344125238
C   C107      1.0  0.34020  0.43140  0.32470  1.0000 0.0344125238
C   C108      1.0  0.65980  0.56860  0.82470  1.0000 0.0344125238
C   C109      1.0  0.56860  0.65980  0.17530  1.0000 0.0344125238
C   C110      1.0  0.43140  0.34020  0.67530  1.0000 0.0344125238
C   C111      1.0  0.15980  0.93140  0.42530  1.0000 0.0344125238
C   C112      1.0  0.84020  0.06860  0.92530  1.0000 0.0344125238
C   C113      1.0  0.00210  0.16210  0.53880  1.0000 -0.1527716498
C   C114      1.0  0.99790  0.83790  0.03880  1.0000 -0.1527716498
C   C115      1.0  0.33790  0.50210  0.28880  1.0000 -0.1527716498
C   C116      1.0  0.66210  0.49790  0.78880  1.0000 -0.1527716498
C   C117      1.0  0.49790  0.66210  0.21120  1.0000 -0.1527716498
C   C118      1.0  0.50210  0.33790  0.71120  1.0000 -0.1527716498
C   C119      1.0  0.16210  0.00210  0.46120  1.0000 -0.1527716498
C   C120      1.0  0.83790  0.99790  0.96120  1.0000 -0.1527716498
C   C121      1.0  0.01180  0.22830  0.49700  1.0000 -0.1056857283
C   C122      1.0  0.98820  0.77170  0.99700  1.0000 -0.1056857283
C   C123      1.0  0.27170  0.51180  0.24700  1.0000 -0.1056857283
C   C124      1.0  0.72830  0.48820  0.74700  1.0000 -0.1056857283
C   C125      1.0  0.48820  0.72830  0.25300  1.0000 -0.1056857283
C   C126      1.0  0.51180  0.27170  0.75300  1.0000 -0.1056857283
C   C127      1.0  0.22830  0.01180  0.50300  1.0000 -0.1056857283
C   C128      1.0  0.77170  0.98820  0.00300  1.0000 -0.1056857283
C   C129      1.0  0.95410  0.29000  0.49190  1.0000 -0.1588590939
C   C130      1.0  0.04590  0.71000  0.99190  1.0000 -0.1588590939
C   C131      1.0  0.21000  0.45410  0.24190  1.0000 -0.1588590939
C   C132      1.0  0.79000  0.54590  0.74190  1.0000 -0.1588590939
C   C133      1.0  0.54590  0.79000  0.25810  1.0000 -0.1588590939
C   C134      1.0  0.45410  0.21000  0.75810  1.0000 -0.1588590939
C   C135      1.0  0.29000  0.95410  0.50810  1.0000 -0.1588590939
C   C136      1.0  0.71000  0.04590  0.00810  1.0000 -0.1588590939
C   C137      1.0  0.88140  0.29000  0.52960  1.0000 0.069960133
C   C138      1.0  0.11860  0.71000  0.02960  1.0000 0.069960133
C   C139      1.0  0.21000  0.38140  0.27960  1.0000 0.069960133
C   C140      1.0  0.79000  0.61860  0.77960  1.0000 0.069960133
C   C141      1.0  0.61860  0.79000  0.22040  1.0000 0.069960133
C   C142      1.0  0.38140  0.21000  0.72040  1.0000 0.069960133
C   C143      1.0  0.29000  0.88140  0.47040  1.0000 0.069960133
C   C144      1.0  0.71000  0.11860  0.97040  1.0000 0.069960133
C   C145      1.0  0.87150  0.22460  0.57050  1.0000 -0.1969995218
C   C146      1.0  0.12850  0.77540  0.07050  1.0000 -0.1969995218
C   C147      1.0  0.27540  0.37150  0.32050  1.0000 -0.1969995218
C   C148      1.0  0.72460  0.62850  0.82050  1.0000 -0.1969995218
C   C149      1.0  0.62850  0.72460  0.17950  1.0000 -0.1969995218
C   C150      1.0  0.37150  0.27540  0.67950  1.0000 -0.1969995218
C   C151      1.0  0.22460  0.87150  0.42950  1.0000 -0.1969995218
C   C152      1.0  0.77540  0.12850  0.92950  1.0000 -0.1969995218
C   C153      1.0  0.81650  0.35710  0.52330  1.0000 0.1109481442
C   C154      1.0  0.18350  0.64290  0.02330  1.0000 0.1109481442
C   C155      1.0  0.14290  0.31650  0.27330  1.0000 0.1109481442
C   C156      1.0  0.85710  0.68350  0.77330  1.0000 0.1109481442
C   C157      1.0  0.68350  0.85710  0.22670  1.0000 0.1109481442
C   C158      1.0  0.31650  0.14290  0.72670  1.0000 0.1109481442
C   C159      1.0  0.35710  0.81650  0.47670  1.0000 0.1109481442
C   C160      1.0  0.64290  0.18350  0.97670  1.0000 0.1109481442
C   C161      1.0  0.76090  0.37590  0.57070  1.0000 -0.2081907009
C   C162      1.0  0.23910  0.62410  0.07070  1.0000 -0.2081907009
C   C163      1.0  0.12410  0.26090  0.32070  1.0000 -0.2081907009
C   C164      1.0  0.87590  0.73910  0.82070  1.0000 -0.2081907009
C   C165      1.0  0.73910  0.87590  0.17930  1.0000 -0.2081907009
C   C166      1.0  0.26090  0.12410  0.67930  1.0000 -0.2081907009
C   C167      1.0  0.37590  0.76090  0.42930  1.0000 -0.2081907009
C   C168      1.0  0.62410  0.23910  0.92930  1.0000 -0.2081907009
C   C169      1.0  0.69750  0.43350  0.56250  1.0000 0.0621858929
C   C170      1.0  0.30250  0.56650  0.06250  1.0000 0.0621858929
C   C171      1.0  0.06650  0.19750  0.31250  1.0000 0.0621858929
C   C172      1.0  0.93350  0.80250  0.81250  1.0000 0.0621858929
C   C173      1.0  0.80250  0.93350  0.18750  1.0000 0.0621858929
C   C174      1.0  0.19750  0.06650  0.68750  1.0000 0.0621858929
C   C175      1.0  0.43350  0.69750  0.43750  1.0000 0.0621858929
C   C176      1.0  0.56650  0.30250  0.93750  1.0000 0.0621858929
C   C177      1.0  0.73980  0.45820  0.46560  1.0000 0.069960133
C   C178      1.0  0.26020  0.54180  0.96560  1.0000 0.069960133
C   C179      1.0  0.04180  0.23980  0.21560  1.0000 0.069960133
C   C180      1.0  0.95820  0.76020  0.71560  1.0000 0.069960133
C   C181      1.0  0.76020  0.95820  0.28440  1.0000 0.069960133
C   C182      1.0  0.23980  0.04180  0.78440  1.0000 0.069960133
C   C183      1.0  0.45820  0.73980  0.53440  1.0000 0.069960133
C   C184      1.0  0.54180  0.26020  0.03440  1.0000 0.069960133
C   C185      1.0  0.80530  0.40080  0.47130  1.0000 -0.1893266066
C   C186      1.0  0.19470  0.59920  0.97130  1.0000 -0.1893266066
C   C187      1.0  0.09920  0.30530  0.22130  1.0000 -0.1893266066
C   C188      1.0  0.90080  0.69470  0.72130  1.0000 -0.1893266066
C   C189      1.0  0.69470  0.90080  0.27870  1.0000 -0.1893266066
C   C190      1.0  0.30530  0.09920  0.77870  1.0000 -0.1893266066
C   C191      1.0  0.40080  0.80530  0.52870  1.0000 -0.1893266066
C   C192      1.0  0.59920  0.19470  0.02870  1.0000 -0.1893266066
N   N1        1.0  0.62120  0.62040  0.58700  1.0000 -0.2315670586
N   N2        1.0  0.37880  0.37960  0.08700  1.0000 -0.2315670586
N   N3        1.0  0.87960  0.12120  0.33700  1.0000 -0.2315670586
N   N4        1.0  0.12040  0.87880  0.83700  1.0000 -0.2315670586
N   N5        1.0  0.87880  0.12040  0.16300  1.0000 -0.2315670586
N   N6        1.0  0.12120  0.87960  0.66300  1.0000 -0.2315670586
N   N7        1.0  0.62040  0.62120  0.41300  1.0000 -0.2315670586
N   N8        1.0  0.37960  0.37880  0.91300  1.0000 -0.2315670586
N   N9        1.0  0.98510  0.05580  0.64600  1.0000 -0.2688324394
N   N10       1.0  0.01490  0.94420  0.14600  1.0000 -0.2688324394
N   N11       1.0  0.44420  0.48510  0.39600  1.0000 -0.2688324394
N   N12       1.0  0.55580  0.51490  0.89600  1.0000 -0.2688324394
N   N13       1.0  0.51490  0.55580  0.10400  1.0000 -0.2688324394
N   N14       1.0  0.48510  0.44420  0.60400  1.0000 -0.2688324394
N   N15       1.0  0.05580  0.98510  0.35400  1.0000 -0.2688324394
N   N16       1.0  0.94420  0.01490  0.85400  1.0000 -0.2688324394
N   N17       1.0  0.95250  0.99480  0.68370  1.0000 -0.2223930004
N   N18       1.0  0.04750  0.00520  0.18370  1.0000 -0.2223930004
N   N19       1.0  0.50520  0.45250  0.43370  1.0000 -0.2223930004
N   N20       1.0  0.49480  0.54750  0.93370  1.0000 -0.2223930004
N   N21       1.0  0.54750  0.49480  0.06630  1.0000 -0.2223930004
N   N22       1.0  0.45250  0.50520  0.56630  1.0000 -0.2223930004
N   N23       1.0  0.99480  0.95250  0.31630  1.0000 -0.2223930004
N   N24       1.0  0.00520  0.04750  0.81630  1.0000 -0.2223930004
N   N25       1.0  0.84970  0.05610  0.63840  1.0000 0.0621858929
N   N26       1.0  0.15030  0.94390  0.13840  1.0000 0.0621858929
N   N27       1.0  0.44390  0.34970  0.38840  1.0000 0.0621858929
N   N28       1.0  0.55610  0.65030  0.88840  1.0000 0.0621858929
N   N29       1.0  0.65030  0.55610  0.11160  1.0000 0.0621858929
N   N30       1.0  0.34970  0.44390  0.61160  1.0000 0.0621858929
N   N31       1.0  0.05610  0.84970  0.36160  1.0000 0.0621858929
N   N32       1.0  0.94390  0.15030  0.86160  1.0000 0.0621858929
N   N33       1.0  0.76820  0.07410  0.61650  1.0000 -0.5015913527
N   N34       1.0  0.23180  0.92590  0.11650  1.0000 -0.5015913527
N   N35       1.0  0.42590  0.26820  0.36650  1.0000 -0.5015913527
N   N36       1.0  0.57410  0.73180  0.86650  1.0000 -0.5015913527
N   N37       1.0  0.73180  0.57410  0.13350  1.0000 -0.5015913527
N   N38       1.0  0.26820  0.42590  0.63350  1.0000 -0.5015913527
N   N39       1.0  0.07410  0.76820  0.38350  1.0000 -0.5015913527
N   N40       1.0  0.92590  0.23180  0.88350  1.0000 -0.5015913527
N   N41       1.0  0.68500  0.47380  0.50990  1.0000 -0.2315670586
N   N42       1.0  0.31500  0.52620  0.00990  1.0000 -0.2315670586
N   N43       1.0  0.02620  0.18500  0.25990  1.0000 -0.2315670586
N   N44       1.0  0.97380  0.81500  0.75990  1.0000 -0.2315670586
N   N45       1.0  0.81500  0.97380  0.24010  1.0000 -0.2315670586
N   N46       1.0  0.18500  0.02620  0.74010  1.0000 -0.2315670586
N   N47       1.0  0.47380  0.68500  0.49010  1.0000 -0.2315670586
N   N48       1.0  0.52620  0.31500  0.99010  1.0000 -0.2315670586
Cl  Cl1       1.0  0.61959  0.38041  0.25000  1.0000 1.0770973918
Cl  Cl2       1.0  0.38041  0.61959  0.75000  1.0000 1.0770973918
Cl  Cl3       1.0  0.88041  0.88041  0.50000  1.0000 1.0770973918
Cl  Cl4       1.0  0.11959  0.11959  0.00000  1.0000 1.0770973918
O   O1        1.0  0.59840  0.32400  0.20030  1.0000 -0.4275140296
O   O2        1.0  0.67600  0.40160  0.29970  1.0000 -0.4275140296
O   O3        1.0  0.65170  0.43770  0.21560  1.0000 -0.3396557364
O   O4        1.0  0.56230  0.34830  0.28440  1.0000 -0.3396557364
O   O5        1.0  0.40160  0.67600  0.70030  1.0000 -0.4275140296
O   O6        1.0  0.32400  0.59840  0.79970  1.0000 -0.4275140296
O   O7        1.0  0.34830  0.56230  0.71560  1.0000 -0.3396557364
O   O8        1.0  0.43770  0.65170  0.78440  1.0000 -0.3396557364
O   O9        1.0  0.82400  0.90160  0.45030  1.0000 -0.4275140296
O   O10       1.0  0.90160  0.82400  0.54970  1.0000 -0.4275140296
O   O11       1.0  0.93770  0.84830  0.46560  1.0000 -0.3396557364
O   O12       1.0  0.84830  0.93770  0.53440  1.0000 -0.3396557364
O   O13       1.0  0.17600  0.09840  0.95030  1.0000 -0.4275140296
O   O14       1.0  0.09840  0.17600  0.04970  1.0000 -0.4275140296
O   O15       1.0  0.06230  0.15170  0.96560  1.0000 -0.3396557364
O   O16       1.0  0.15170  0.06230  0.03440  1.0000 -0.3396557364
