# DDEC6 charges by PACMAN v1.1 (https://github.com/mtap-research/PACMAN-charge/)
data_2010[Zn][rtl]3[ION]1
_chemical_formula_sum              "Zn12 P8 H64 C80 N4 O56"
_cell_length_a       17.4577
_cell_length_b       17.4577
_cell_length_c       17.4577
_cell_angle_alpha    116.203
_cell_angle_beta     116.203
_cell_angle_gamma    96.7135

_symmetry_space_group_name_H-M    "P 1"
_symmetry_Int_Tables_number       1

loop_
  _symmetry_equiv_pos_as_xyz
  'x, y, z'

loop_
  _atom_site_type_symbol
  _atom_site_label
  _atom_site_symmetry_multiplicity
  _atom_site_fract_x
  _atom_site_fract_y
  _atom_site_fract_z
  _atom_site_occupancy
  _atom_site_charge
Zn  Zn1       1.0  0.74795  0.62500  0.62295  1.0000 1.0011469206
Zn  Zn2       1.0  0.00205  0.12500  0.37705  1.0000 1.0011469206
Zn  Zn3       1.0  0.37500  0.99795  0.12295  1.0000 1.0011469206
Zn  Zn4       1.0  0.87500  0.25205  0.87705  1.0000 1.0011469206
Zn  Zn5       1.0  0.69795  0.70345  0.45514  1.0000 0.9861110008
Zn  Zn6       1.0  0.24831  0.24281  0.54486  1.0000 0.9861110008
Zn  Zn7       1.0  0.29655  0.75169  0.99450  1.0000 0.9861110008
Zn  Zn8       1.0  0.75719  0.30205  0.00550  1.0000 0.9861110008
Zn  Zn9       1.0  0.50169  0.54655  0.49450  1.0000 0.9861110008
Zn  Zn10      1.0  0.05205  0.00719  0.50550  1.0000 0.9861110008
Zn  Zn11      1.0  0.99281  0.49831  0.04486  1.0000 0.9861110008
Zn  Zn12      1.0  0.45345  0.94795  0.95514  1.0000 0.9861110008
P   P1        1.0  0.60103  0.49968  0.38403  1.0000 1.2762039682
P   P2        1.0  0.11565  0.21700  0.61597  1.0000 1.2762039682
P   P3        1.0  0.50032  0.88435  0.10135  1.0000 1.2762039682
P   P4        1.0  0.78300  0.39897  0.89865  1.0000 1.2762039682
P   P5        1.0  0.63435  0.75032  0.60135  1.0000 1.2762039682
P   P6        1.0  0.14897  0.03300  0.39865  1.0000 1.2762039682
P   P7        1.0  0.96700  0.36565  0.11597  1.0000 1.2762039682
P   P8        1.0  0.24968  0.85103  0.88403  1.0000 1.2762039682
H   H1        1.0  0.67190  0.46490  0.25820  1.0000 0.1385740818
H   H2        1.0  0.20670  0.41370  0.74180  1.0000 0.1385740818
H   H3        1.0  0.53510  0.79330  0.20700  1.0000 0.1385740818
H   H4        1.0  0.58630  0.32810  0.79300  1.0000 0.1385740818
H   H5        1.0  0.54330  0.78510  0.70700  1.0000 0.1385740818
H   H6        1.0  0.07810  0.83630  0.29300  1.0000 0.1385740818
H   H7        1.0  0.16370  0.45670  0.24180  1.0000 0.1385740818
H   H8        1.0  0.21490  0.92190  0.75820  1.0000 0.1385740818
H   H9        1.0  0.56810  0.19100  0.06570  1.0000 0.1385740818
H   H10       1.0  0.12530  0.50240  0.93430  1.0000 0.1385740818
H   H11       1.0  0.80900  0.87470  0.37710  1.0000 0.1385740818
H   H12       1.0  0.49760  0.43190  0.62290  1.0000 0.1385740818
H   H13       1.0  0.62470  0.05900  0.87710  1.0000 0.1385740818
H   H14       1.0  0.18190  0.74760  0.12290  1.0000 0.1385740818
H   H15       1.0  0.25240  0.37530  0.43430  1.0000 0.1385740818
H   H16       1.0  0.94100  0.81810  0.56570  1.0000 0.1385740818
H   H17       1.0  0.50200  0.30210  0.27090  1.0000 0.1385740818
H   H18       1.0  0.03120  0.23110  0.72910  1.0000 0.1385740818
H   H19       1.0  0.69790  0.96880  0.19990  1.0000 0.1385740818
H   H20       1.0  0.76890  0.49800  0.80010  1.0000 0.1385740818
H   H21       1.0  0.71880  0.94790  0.69990  1.0000 0.1385740818
H   H22       1.0  0.24800  0.01890  0.30010  1.0000 0.1385740818
H   H23       1.0  0.98110  0.28120  0.22910  1.0000 0.1385740818
H   H24       1.0  0.05210  0.75200  0.77090  1.0000 0.1385740818
H   H25       1.0  0.49180  0.13060  0.77760  1.0000 0.122572784
H   H26       1.0  0.39700  0.11940  0.86120  1.0000 0.122572784
H   H27       1.0  0.43860  0.04250  0.76550  1.0000 0.122572784
H   H28       1.0  0.47300  0.20750  0.89610  1.0000 0.122572784
H   H29       1.0  0.31860  0.00390  0.62530  1.0000 0.122572784
H   H30       1.0  0.37140  0.24610  0.81470  1.0000 0.122572784
H   H31       1.0  0.38050  0.07830  0.62620  1.0000 0.122572784
H   H32       1.0  0.29790  0.17170  0.80220  1.0000 0.122572784
H   H33       1.0  0.30000  0.16800  0.66400  1.0000 0.2514058656
H   H34       1.0  0.24600  0.08200  0.63200  1.0000 0.2514058656
H   H35       1.0  0.35300  0.71420  0.22240  1.0000 0.122572784
H   H36       1.0  0.25820  0.53580  0.13880  1.0000 0.122572784
H   H37       1.0  0.27700  0.67310  0.23450  1.0000 0.122572784
H   H38       1.0  0.31140  0.57690  0.10390  1.0000 0.122572784
H   H39       1.0  0.37860  0.69330  0.37470  1.0000 0.122572784
H   H40       1.0  0.43140  0.55670  0.18530  1.0000 0.122572784
H   H41       1.0  0.45210  0.75430  0.37380  1.0000 0.122572784
H   H42       1.0  0.36950  0.49570  0.19780  1.0000 0.122572784
H   H43       1.0  0.50400  0.63600  0.33600  1.0000 0.2514058656
H   H44       1.0  0.45000  0.61400  0.36800  1.0000 0.2514058656
H   H45       1.0  0.28580  0.50820  0.63880  1.0000 0.122572784
H   H46       1.0  0.46420  0.60300  0.72240  1.0000 0.122572784
H   H47       1.0  0.32690  0.56140  0.60390  1.0000 0.122572784
H   H48       1.0  0.42310  0.52700  0.73450  1.0000 0.122572784
H   H49       1.0  0.30670  0.68140  0.68530  1.0000 0.122572784
H   H50       1.0  0.44330  0.62860  0.87470  1.0000 0.122572784
H   H51       1.0  0.24570  0.61950  0.69780  1.0000 0.122572784
H   H52       1.0  0.50430  0.70210  0.87380  1.0000 0.122572784
H   H53       1.0  0.36400  0.70000  0.86800  1.0000 0.2514058656
H   H54       1.0  0.38600  0.75400  0.83600  1.0000 0.2514058656
H   H55       1.0  0.86940  0.64700  0.36120  1.0000 0.122572784
H   H56       1.0  0.88060  0.74180  0.27760  1.0000 0.122572784
H   H57       1.0  0.95750  0.72300  0.39610  1.0000 0.122572784
H   H58       1.0  0.79250  0.68860  0.26550  1.0000 0.122572784
H   H59       1.0  0.99610  0.62140  0.31470  1.0000 0.122572784
H   H60       1.0  0.75390  0.56860  0.12530  1.0000 0.122572784
H   H61       1.0  0.92170  0.54790  0.30220  1.0000 0.122572784
H   H62       1.0  0.82830  0.63050  0.12620  1.0000 0.122572784
H   H63       1.0  0.83200  0.49600  0.13200  1.0000 0.2514058656
H   H64       1.0  0.91800  0.55000  0.16400  1.0000 0.2514058656
C   C1        1.0  0.58780  0.39810  0.28030  1.0000 -0.1714657726
C   C2        1.0  0.11780  0.30750  0.71970  1.0000 -0.1714657726
C   C3        1.0  0.60190  0.88220  0.18970  1.0000 -0.1714657726
C   C4        1.0  0.69250  0.41220  0.81030  1.0000 -0.1714657726
C   C5        1.0  0.63220  0.85190  0.68970  1.0000 -0.1714657726
C   C6        1.0  0.16220  0.94250  0.31030  1.0000 -0.1714657726
C   C7        1.0  0.05750  0.36780  0.21970  1.0000 -0.1714657726
C   C8        1.0  0.14810  0.83780  0.78030  1.0000 -0.1714657726
C   C9        1.0  0.63460  0.40640  0.23400  1.0000 -0.0687802288
C   C10       1.0  0.17240  0.40060  0.76600  1.0000 -0.0687802288
C   C11       1.0  0.59360  0.82760  0.22820  1.0000 -0.0687802288
C   C12       1.0  0.59940  0.36540  0.77180  1.0000 -0.0687802288
C   C13       1.0  0.57760  0.84360  0.72820  1.0000 -0.0687802288
C   C14       1.0  0.11540  0.84940  0.27180  1.0000 -0.0687802288
C   C15       1.0  0.15060  0.42240  0.26600  1.0000 -0.0687802288
C   C16       1.0  0.15640  0.88460  0.73400  1.0000 -0.0687802288
C   C17       1.0  0.62590  0.32920  0.15350  1.0000 -0.0123540094
C   C18       1.0  0.17570  0.47240  0.84650  1.0000 -0.0123540094
C   C19       1.0  0.67080  0.82430  0.29670  1.0000 -0.0123540094
C   C20       1.0  0.52760  0.37410  0.70330  1.0000 -0.0123540094
C   C21       1.0  0.57430  0.92080  0.79670  1.0000 -0.0123540094
C   C22       1.0  0.12410  0.77760  0.20330  1.0000 -0.0123540094
C   C23       1.0  0.22240  0.42570  0.34650  1.0000 -0.0123540094
C   C24       1.0  0.07920  0.87590  0.65350  1.0000 -0.0123540094
C   C25       1.0  0.57310  0.24300  0.11930  1.0000 -0.0921070346
C   C26       1.0  0.12370  0.45380  0.88070  1.0000 -0.0921070346
C   C27       1.0  0.75700  0.87630  0.33010  1.0000 -0.0921070346
C   C28       1.0  0.54620  0.42690  0.66990  1.0000 -0.0921070346
C   C29       1.0  0.62630  0.00700  0.83010  1.0000 -0.0921070346
C   C30       1.0  0.17690  0.79620  0.16990  1.0000 -0.0921070346
C   C31       1.0  0.20380  0.37370  0.38070  1.0000 -0.0921070346
C   C32       1.0  0.99300  0.82310  0.61930  1.0000 -0.0921070346
C   C33       1.0  0.52660  0.23180  0.16320  1.0000 -0.0275835873
C   C34       1.0  0.06860  0.36340  0.83680  1.0000 -0.0275835873
C   C35       1.0  0.76820  0.93140  0.29480  1.0000 -0.0275835873
C   C36       1.0  0.63660  0.47340  0.70520  1.0000 -0.0275835873
C   C37       1.0  0.68140  0.01820  0.79480  1.0000 -0.0275835873
C   C38       1.0  0.22340  0.88660  0.20520  1.0000 -0.0275835873
C   C39       1.0  0.11340  0.31860  0.33680  1.0000 -0.0275835873
C   C40       1.0  0.98180  0.77660  0.66320  1.0000 -0.0275835873
C   C41       1.0  0.53400  0.30960  0.24240  1.0000 -0.0605910489
C   C42       1.0  0.06720  0.29160  0.75760  1.0000 -0.0605910489
C   C43       1.0  0.69040  0.93280  0.22440  1.0000 -0.0605910489
C   C44       1.0  0.70840  0.46600  0.77560  1.0000 -0.0605910489
C   C45       1.0  0.68280  0.94040  0.72440  1.0000 -0.0605910489
C   C46       1.0  0.21600  0.95840  0.27560  1.0000 -0.0605910489
C   C47       1.0  0.04160  0.31720  0.25760  1.0000 -0.0605910489
C   C48       1.0  0.05960  0.78400  0.74240  1.0000 -0.0605910489
C   C49       1.0  0.67920  0.34280  0.10960  1.0000 0.5531184009
C   C50       1.0  0.23320  0.56960  0.89040  1.0000 0.5531184009
C   C51       1.0  0.65720  0.76680  0.33640  1.0000 0.5531184009
C   C52       1.0  0.43040  0.32080  0.66360  1.0000 0.5531184009
C   C53       1.0  0.51680  0.90720  0.83640  1.0000 0.5531184009
C   C54       1.0  0.07080  0.68040  0.16360  1.0000 0.5531184009
C   C55       1.0  0.31960  0.48320  0.39040  1.0000 0.5531184009
C   C56       1.0  0.09280  0.92920  0.60960  1.0000 0.5531184009
C   C57       1.0  0.46930  0.13580  0.12310  1.0000 0.6056223592
C   C58       1.0  0.01270  0.34620  0.87690  1.0000 0.6056223592
C   C59       1.0  0.86420  0.98730  0.33350  1.0000 0.6056223592
C   C60       1.0  0.65380  0.53070  0.66650  1.0000 0.6056223592
C   C61       1.0  0.73730  0.11420  0.83350  1.0000 0.6056223592
C   C62       1.0  0.28070  0.90380  0.16650  1.0000 0.6056223592
C   C63       1.0  0.09620  0.26270  0.37690  1.0000 0.6056223592
C   C64       1.0  0.88580  0.71930  0.62310  1.0000 0.6045844039
C   C65       1.0  0.43460  0.09700  0.76360  1.0000 -0.1807139187
C   C66       1.0  0.41660  0.15300  0.83760  1.0000 -0.1807139187
C   C67       1.0  0.35820  0.06870  0.66450  1.0000 -0.0434673422
C   C68       1.0  0.34580  0.18130  0.78950  1.0000 -0.0434673422
C   C69       1.0  0.33340  0.67100  0.23640  1.0000 -0.1807139187
C   C70       1.0  0.31540  0.57900  0.16240  1.0000 -0.1807139187
C   C71       1.0  0.40420  0.69370  0.33550  1.0000 -0.0434673422
C   C72       1.0  0.39180  0.55630  0.21050  1.0000 -0.0434673422
C   C73       1.0  0.32900  0.56540  0.66240  1.0000 -0.1807139187
C   C74       1.0  0.42100  0.58340  0.73640  1.0000 -0.1807139187
C   C75       1.0  0.30630  0.64180  0.71050  1.0000 -0.0434673422
C   C76       1.0  0.44370  0.65420  0.83550  1.0000 -0.0434673422
C   C77       1.0  0.90300  0.66667  0.33760  1.0000 -0.1807139187
C   C78       1.0  0.84700  0.68460  0.26360  1.0000 -0.1807139187
C   C79       1.0  0.93130  0.59580  0.28950  1.0000 -0.0434673422
C   C80       1.0  0.81870  0.60820  0.16450  1.0000 -0.0434673422
N   N1        1.0  0.31100  0.12500  0.68600  1.0000 -0.1807139187
N   N2        1.0  0.43900  0.62500  0.31400  1.0000 -0.1807139187
N   N3        1.0  0.37500  0.68900  0.81400  1.0000 -0.1807139187
N   N4        1.0  0.87500  0.56100  0.18600  1.0000 -0.1807139187
O   O1        1.0  0.68410  0.52060  0.48090  1.0000 -0.7601348081
O   O2        1.0  0.03970  0.20320  0.51910  1.0000 -0.7601348081
O   O3        1.0  0.47940  0.96030  0.16350  1.0000 -0.7601348081
O   O4        1.0  0.79680  0.31590  0.83650  1.0000 -0.7601348081
O   O5        1.0  0.71030  0.72940  0.66350  1.0000 -0.7601348081
O   O6        1.0  0.06590  0.04680  0.33650  1.0000 -0.7601348081
O   O7        1.0  0.95320  0.28970  0.01910  1.0000 -0.7601348081
O   O8        1.0  0.27060  0.93410  0.98090  1.0000 -0.7601348081
O   O9        1.0  0.61590  0.57710  0.36600  1.0000 -0.7684720078
O   O10       1.0  0.21110  0.24990  0.63400  1.0000 -0.7684720078
O   O11       1.0  0.42290  0.78890  0.03880  1.0000 -0.7684720078
O   O12       1.0  0.75010  0.38410  0.96120  1.0000 -0.7684720078
O   O13       1.0  0.53890  0.67290  0.53880  1.0000 -0.7684720078
O   O14       1.0  0.13410  0.00010  0.46120  1.0000 -0.7684720078
O   O15       1.0  0.99990  0.46110  0.13400  1.0000 -0.7684720078
O   O16       1.0  0.32710  0.86590  0.86600  1.0000 -0.7684720078
O   O17       1.0  0.51180  0.47740  0.37980  1.0000 -0.7396892378
O   O18       1.0  0.09760  0.13200  0.62020  1.0000 -0.7396892378
O   O19       1.0  0.52260  0.90240  0.03440  1.0000 -0.7396892378
O   O20       1.0  0.86800  0.48820  0.96560  1.0000 -0.7396892378
O   O21       1.0  0.65240  0.77260  0.53440  1.0000 -0.7396892378
O   O22       1.0  0.23820  0.11800  0.46560  1.0000 -0.7396892378
O   O23       1.0  0.88200  0.34760  0.12020  1.0000 -0.7396892378
O   O24       1.0  0.22740  0.76180  0.87980  1.0000 -0.7396892378
O   O25       1.0  0.67230  0.26860  0.03910  1.0000 -0.5236130276
O   O26       1.0  0.22950  0.63320  0.96090  1.0000 -0.5236130276
O   O27       1.0  0.73140  0.77050  0.40370  1.0000 -0.5236130276
O   O28       1.0  0.36680  0.32770  0.59630  1.0000 -0.5236130276
O   O29       1.0  0.52050  0.98140  0.90370  1.0000 -0.5236130276
O   O30       1.0  0.07770  0.61680  0.09630  1.0000 -0.5236130276
O   O31       1.0  0.38320  0.47950  0.46090  1.0000 -0.5236130276
O   O32       1.0  0.01860  0.92230  0.53910  1.0000 -0.5236130276
O   O33       1.0  0.72950  0.41940  0.14470  1.0000 -0.5053949872
O   O34       1.0  0.27470  0.58480  0.85530  1.0000 -0.5053949872
O   O35       1.0  0.58060  0.72530  0.31010  1.0000 -0.5053949872
O   O36       1.0  0.41520  0.27050  0.68990  1.0000 -0.5053949872
O   O37       1.0  0.47530  0.83060  0.81010  1.0000 -0.5053949872
O   O38       1.0  0.02050  0.66520  0.18990  1.0000 -0.5040923575
O   O39       1.0  0.33480  0.52470  0.35530  1.0000 -0.5053949872
O   O40       1.0  0.16940  0.97950  0.64470  1.0000 -0.5053949872
O   O41       1.0  0.46270  0.07160  0.04950  1.0000 -0.5301023642
O   O42       1.0  0.02210  0.41320  0.95050  1.0000 -0.5301023642
O   O43       1.0  0.92840  0.97790  0.39110  1.0000 -0.5301023642
O   O44       1.0  0.58680  0.53730  0.60890  1.0000 -0.5301023642
O   O45       1.0  0.72790  0.17840  0.89110  1.0000 -0.5301023642
O   O46       1.0  0.28730  0.83680  0.10890  1.0000 -0.5301023642
O   O47       1.0  0.16320  0.27210  0.45050  1.0000 -0.5301023642
O   O48       1.0  0.82160  0.71270  0.54950  1.0000 -0.5301023642
O   O49       1.0  0.43530  0.12790  0.17180  1.0000 -0.5040923575
O   O50       1.0  0.95610  0.26350  0.82820  1.0000 -0.5040923575
O   O51       1.0  0.87210  0.04390  0.30740  1.0000 -0.5040923575
O   O52       1.0  0.73650  0.56470  0.69260  1.0000 -0.5040923575
O   O53       1.0  0.79390  0.12210  0.80740  1.0000 -0.5040923575
O   O54       1.0  0.31470  0.98650  0.19260  1.0000 -0.5040923575
O   O55       1.0  0.01350  0.20610  0.32820  1.0000 -0.5040923575
O   O56       1.0  0.87790  0.68530  0.67180  1.0000 -0.5053949872
