# DDEC6 charges by PACMAN v1.1 (https://github.com/mtap-research/PACMAN-charge/)
data_2010[Cd][pcu]3[ION]1
_chemical_formula_sum              "Cd2 H84 C120 N24 Cl4 O16"
_cell_length_a       13.0315
_cell_length_b       13.0315
_cell_length_c       26.213
_cell_angle_alpha    70.574
_cell_angle_beta     109.426
_cell_angle_gamma    113.884

_symmetry_space_group_name_H-M    "P 1"
_symmetry_Int_Tables_number       1

loop_
  _symmetry_equiv_pos_as_xyz
  'x, y, z'

loop_
  _atom_site_type_symbol
  _atom_site_label
  _atom_site_symmetry_multiplicity
  _atom_site_fract_x
  _atom_site_fract_y
  _atom_site_fract_z
  _atom_site_occupancy
  _atom_site_charge
Cd  Cd1       1.0  0.17040  0.17040  0.25000  1.0000 0.711974325
Cd  Cd2       1.0  0.82960  0.82960  0.75000  1.0000 0.711974325
H   H1        1.0  0.32560  0.66020  0.16790  1.0000 0.1205283173
H   H2        1.0  0.66020  0.32560  0.33210  1.0000 0.1205283173
H   H3        1.0  0.67440  0.33980  0.83210  1.0000 0.1205283173
H   H4        1.0  0.33980  0.67440  0.66790  1.0000 0.1205283173
H   H5        1.0  0.38170  0.18830  0.19490  1.0000 0.1205283173
H   H6        1.0  0.18830  0.38170  0.30510  1.0000 0.1205283173
H   H7        1.0  0.61830  0.81170  0.80510  1.0000 0.1205283173
H   H8        1.0  0.81170  0.61830  0.69490  1.0000 0.1205283173
H   H9        1.0  0.87750  0.03090  0.23430  1.0000 0.1205283173
H   H10       1.0  0.03090  0.87750  0.26570  1.0000 0.1205283173
H   H11       1.0  0.12250  0.96910  0.76570  1.0000 0.1205283173
H   H12       1.0  0.96910  0.12250  0.73430  1.0000 0.1205283173
H   H13       1.0  0.22030  0.46650  0.18560  1.0000 0.1205283173
H   H14       1.0  0.46650  0.22030  0.31440  1.0000 0.1205283173
H   H15       1.0  0.77970  0.53350  0.81440  1.0000 0.1205283173
H   H16       1.0  0.53350  0.77970  0.68560  1.0000 0.1205283173
H   H17       1.0  0.10660  0.92380  0.08370  1.0000 0.1381957804
H   H18       1.0  0.92380  0.10660  0.41630  1.0000 0.1381957804
H   H19       1.0  0.89340  0.07620  0.91630  1.0000 0.1381957804
H   H20       1.0  0.07620  0.89340  0.58370  1.0000 0.1381957804
H   H21       1.0  0.68370  0.98190  0.19100  1.0000 0.1205283173
H   H22       1.0  0.98190  0.68370  0.30900  1.0000 0.1205283173
H   H23       1.0  0.31630  0.01810  0.80900  1.0000 0.1205283173
H   H24       1.0  0.01810  0.31630  0.69100  1.0000 0.1205283173
H   H25       1.0  0.14120  0.29720  0.10750  1.0000 0.1205283173
H   H26       1.0  0.29720  0.14120  0.39250  1.0000 0.1205283173
H   H27       1.0  0.85880  0.70280  0.89250  1.0000 0.1205283173
H   H28       1.0  0.70280  0.85880  0.60750  1.0000 0.1205283173
H   H29       1.0  0.61890  0.94490  0.10350  1.0000 0.1205283173
H   H30       1.0  0.94490  0.61890  0.39650  1.0000 0.1205283173
H   H31       1.0  0.38110  0.05510  0.89650  1.0000 0.1205283173
H   H32       1.0  0.05510  0.38110  0.60350  1.0000 0.1205283173
H   H33       1.0  0.05210  0.33690  0.01430  1.0000 0.1205283173
H   H34       1.0  0.33690  0.05210  0.48570  1.0000 0.1205283173
H   H35       1.0  0.94790  0.66310  0.98570  1.0000 0.1205283173
H   H36       1.0  0.66310  0.94790  0.51430  1.0000 0.1205283173
H   H37       1.0  0.50080  0.24440  0.12070  1.0000 0.1381957804
H   H38       1.0  0.24440  0.50080  0.37930  1.0000 0.1381957804
H   H39       1.0  0.49920  0.75560  0.87930  1.0000 0.1381957804
H   H40       1.0  0.75560  0.49920  0.62070  1.0000 0.1381957804
H   H41       1.0  0.69470  0.45070  0.22670  1.0000 0.1381957804
H   H42       1.0  0.45070  0.69470  0.27330  1.0000 0.1381957804
H   H43       1.0  0.30530  0.54930  0.77330  1.0000 0.1381957804
H   H44       1.0  0.54930  0.30530  0.72670  1.0000 0.1381957804
H   H45       1.0  0.96270  0.27710  0.24480  1.0000 0.1205283173
H   H46       1.0  0.27710  0.96270  0.25520  1.0000 0.1205283173
H   H47       1.0  0.03730  0.72290  0.75520  1.0000 0.1205283173
H   H48       1.0  0.72290  0.03730  0.74480  1.0000 0.1205283173
H   H49       1.0  0.87970  0.09290  0.99930  1.0000 0.1381957804
H   H50       1.0  0.09290  0.87970  0.50070  1.0000 0.1381957804
H   H51       1.0  0.12030  0.90710  0.00070  1.0000 0.1381957804
H   H52       1.0  0.90710  0.12030  0.49930  1.0000 0.1381957804
H   H53       1.0  0.78680  0.36440  0.04930  1.0000 0.1381957804
H   H54       1.0  0.36440  0.78680  0.45070  1.0000 0.1381957804
H   H55       1.0  0.21320  0.63560  0.95070  1.0000 0.1381957804
H   H56       1.0  0.63560  0.21320  0.54930  1.0000 0.1381957804
H   H57       1.0  0.15380  0.06520  0.14180  1.0000 0.1205283173
H   H58       1.0  0.06520  0.15380  0.35820  1.0000 0.1205283173
H   H59       1.0  0.84620  0.93480  0.85820  1.0000 0.1205283173
H   H60       1.0  0.93480  0.84620  0.64180  1.0000 0.1205283173
H   H61       1.0  0.86040  0.43480  0.21920  1.0000 0.1381957804
H   H62       1.0  0.43480  0.86040  0.28080  1.0000 0.1381957804
H   H63       1.0  0.13960  0.56520  0.78080  1.0000 0.1381957804
H   H64       1.0  0.56520  0.13960  0.71920  1.0000 0.1381957804
H   H65       1.0  0.74610  0.95710  0.05540  1.0000 0.1381957804
H   H66       1.0  0.95710  0.74610  0.44460  1.0000 0.1381957804
H   H67       1.0  0.25390  0.04290  0.94460  1.0000 0.1381957804
H   H68       1.0  0.04290  0.25390  0.55540  1.0000 0.1381957804
H   H69       1.0  0.59800  0.59600  0.16060  1.0000 0.129486675
H   H70       1.0  0.59600  0.59800  0.33940  1.0000 0.1381957804
H   H71       1.0  0.40200  0.40400  0.83940  1.0000 0.1381957804
H   H72       1.0  0.40400  0.40200  0.66060  1.0000 0.1381957804
H   H73       1.0  0.87880  0.37200  0.98510  1.0000 0.1205283173
H   H74       1.0  0.37200  0.87880  0.51490  1.0000 0.1205283173
H   H75       1.0  0.12120  0.62800  0.01490  1.0000 0.1205283173
H   H76       1.0  0.62800  0.12120  0.48510  1.0000 0.1205283173
H   H77       1.0  0.51160  0.72420  0.15710  1.0000 0.1205283173
H   H78       1.0  0.72420  0.51160  0.34290  1.0000 0.1205283173
H   H79       1.0  0.48840  0.27580  0.84290  1.0000 0.1205283173
H   H80       1.0  0.27580  0.48840  0.65710  1.0000 0.1205283173
H   H81       1.0  0.66430  0.22010  0.11630  1.0000 0.1381957804
H   H82       1.0  0.22010  0.66430  0.38370  1.0000 0.1381957804
H   H83       1.0  0.33570  0.77990  0.88370  1.0000 0.1381957804
H   H84       1.0  0.77990  0.33570  0.61630  1.0000 0.1381957804
C   C1        1.0  0.58350  0.34910  0.17431  1.0000 0.1511330924
C   C2        1.0  0.34910  0.58350  0.32569  1.0000 0.1511330924
C   C3        1.0  0.41650  0.65090  0.82569  1.0000 0.1511330924
C   C4        1.0  0.65090  0.41650  0.67431  1.0000 0.1511330924
C   C5        1.0  0.35831  0.60669  0.17044  1.0000 -0.1011755399
C   C6        1.0  0.60669  0.35831  0.32956  1.0000 -0.1011755399
C   C7        1.0  0.64169  0.39331  0.82956  1.0000 -0.1011755399
C   C8        1.0  0.39331  0.64169  0.67044  1.0000 -0.1011755399
C   C9        1.0  0.38693  0.26407  0.19043  1.0000 0.129486675
C   C10       1.0  0.26407  0.38693  0.30957  1.0000 0.129486675
C   C11       1.0  0.61307  0.73593  0.80957  1.0000 0.129486675
C   C12       1.0  0.73593  0.61307  0.69043  1.0000 0.129486675
C   C13       1.0  0.85187  0.01713  0.19876  1.0000 -0.1679573857
C   C14       1.0  0.01713  0.85187  0.30124  1.0000 -0.1679573857
C   C15       1.0  0.14813  0.98287  0.80124  1.0000 -0.1679573857
C   C16       1.0  0.98287  0.14813  0.69876  1.0000 -0.1679573857
C   C17       1.0  0.29507  0.49153  0.18091  1.0000 -0.1679573857
C   C18       1.0  0.49153  0.29507  0.31909  1.0000 -0.1679573857
C   C19       1.0  0.70493  0.50847  0.81909  1.0000 -0.1679573857
C   C20       1.0  0.50847  0.70493  0.68091  1.0000 -0.1679573857
C   C21       1.0  0.06409  0.95431  0.04995  1.0000 -0.1513366633
C   C22       1.0  0.95431  0.06409  0.45005  1.0000 -0.1513366633
C   C23       1.0  0.93591  0.04569  0.95005  1.0000 -0.1513366633
C   C24       1.0  0.04569  0.93591  0.54995  1.0000 -0.1513366633
C   C25       1.0  0.34638  0.41302  0.18436  1.0000 0.129486675
C   C26       1.0  0.41302  0.34638  0.31564  1.0000 0.129486675
C   C27       1.0  0.65362  0.58698  0.81564  1.0000 0.129486675
C   C28       1.0  0.58698  0.65362  0.68436  1.0000 0.129486675
C   C29       1.0  0.73677  0.98743  0.17284  1.0000 -0.1077231669
C   C30       1.0  0.98743  0.73677  0.32716  1.0000 -0.1077231669
C   C31       1.0  0.26323  0.01257  0.82716  1.0000 -0.1077231669
C   C32       1.0  0.01257  0.26323  0.67284  1.0000 -0.1077231669
C   C33       1.0  0.07044  0.30896  0.09626  1.0000 -0.1679573857
C   C34       1.0  0.30896  0.07044  0.40374  1.0000 -0.1679573857
C   C35       1.0  0.92956  0.69104  0.90374  1.0000 -0.1679573857
C   C36       1.0  0.69104  0.92956  0.59626  1.0000 -0.1679573857
C   C37       1.0  0.69755  0.96525  0.11967  1.0000 -0.0804105826
C   C38       1.0  0.96525  0.69755  0.38033  1.0000 -0.0804105826
C   C39       1.0  0.30245  0.03475  0.88033  1.0000 -0.0804105826
C   C40       1.0  0.03475  0.30245  0.61967  1.0000 -0.0804105826
C   C41       1.0  0.92916  0.02604  0.16983  1.0000 0.129486675
C   C42       1.0  0.02604  0.92916  0.33017  1.0000 0.129486675
C   C43       1.0  0.07084  0.97396  0.83017  1.0000 0.129486675
C   C44       1.0  0.97396  0.07084  0.66983  1.0000 0.129486675
C   C45       1.0  0.45859  0.45381  0.17641  1.0000 0.0875822277
C   C46       1.0  0.45381  0.45859  0.32359  1.0000 0.0875822277
C   C47       1.0  0.54141  0.54619  0.82359  1.0000 0.0875822277
C   C48       1.0  0.54619  0.54141  0.67641  1.0000 0.0875822277
C   C49       1.0  0.88860  0.00480  0.11659  1.0000 0.0875822277
C   C50       1.0  0.00480  0.88860  0.38341  1.0000 0.0875822277
C   C51       1.0  0.11140  0.99520  0.88341  1.0000 0.0875822277
C   C52       1.0  0.99520  0.11140  0.61659  1.0000 0.0875822277
C   C53       1.0  0.01717  0.33383  0.04075  1.0000 -0.1195154243
C   C54       1.0  0.33383  0.01717  0.45925  1.0000 -0.1195154243
C   C55       1.0  0.98283  0.66617  0.95925  1.0000 -0.1195154243
C   C56       1.0  0.66617  0.98283  0.54075  1.0000 -0.1195154243
C   C57       1.0  0.57296  0.28084  0.14089  1.0000 -0.1513366633
C   C58       1.0  0.28084  0.57296  0.35911  1.0000 -0.1513366633
C   C59       1.0  0.42704  0.71916  0.85911  1.0000 -0.1513366633
C   C60       1.0  0.71916  0.42704  0.64089  1.0000 -0.1513366633
C   C61       1.0  0.68949  0.40591  0.20413  1.0000 -0.1513366633
C   C62       1.0  0.40591  0.68949  0.29587  1.0000 -0.1513366633
C   C63       1.0  0.31051  0.59409  0.79587  1.0000 -0.1513366633
C   C64       1.0  0.59409  0.31051  0.70413  1.0000 -0.1513366633
C   C65       1.0  0.96331  0.28769  0.20798  1.0000 0.129486675
C   C66       1.0  0.28769  0.96331  0.29202  1.0000 0.129486675
C   C67       1.0  0.03669  0.71231  0.79202  1.0000 0.129486675
C   C68       1.0  0.71231  0.03669  0.70798  1.0000 0.129486675
C   C69       1.0  0.01441  0.30219  0.13499  1.0000 0.129486675
C   C70       1.0  0.30219  0.01441  0.36501  1.0000 0.129486675
C   C71       1.0  0.98559  0.69781  0.86501  1.0000 0.129486675
C   C72       1.0  0.69781  0.98559  0.63499  1.0000 0.129486675
C   C73       1.0  0.92772  0.05588  0.99942  1.0000 -0.1513366633
C   C74       1.0  0.05588  0.92772  0.50058  1.0000 -0.1513366633
C   C75       1.0  0.07228  0.94412  0.00058  1.0000 -0.1513366633
C   C76       1.0  0.94412  0.07228  0.49942  1.0000 -0.1513366633
C   C77       1.0  0.99226  0.00974  0.04907  1.0000 0.1580101571
C   C78       1.0  0.00974  0.99226  0.45093  1.0000 0.1580101571
C   C79       1.0  0.00774  0.99026  0.95093  1.0000 0.1580101571
C   C80       1.0  0.99026  0.00774  0.54907  1.0000 0.1580101571
C   C81       1.0  0.77762  0.32558  0.16742  1.0000 0.1580101571
C   C82       1.0  0.32558  0.77762  0.33258  1.0000 0.1580101571
C   C83       1.0  0.22238  0.67442  0.83258  1.0000 0.1580101571
C   C84       1.0  0.67442  0.22238  0.66742  1.0000 0.1580101571
C   C85       1.0  0.85617  0.34983  0.06074  1.0000 -0.1816215419
C   C86       1.0  0.34983  0.85617  0.43926  1.0000 -0.1816215419
C   C87       1.0  0.14383  0.65017  0.93926  1.0000 -0.1816215419
C   C88       1.0  0.65017  0.14383  0.56074  1.0000 -0.1816215419
C   C89       1.0  0.90920  0.32200  0.11667  1.0000 0.0875822277
C   C90       1.0  0.32200  0.90920  0.38333  1.0000 0.0875822277
C   C91       1.0  0.09080  0.67800  0.88333  1.0000 0.0875822277
C   C92       1.0  0.67800  0.09080  0.61667  1.0000 0.0875822277
C   C93       1.0  0.07821  0.04999  0.14274  1.0000 0.129486675
C   C94       1.0  0.04999  0.07821  0.35726  1.0000 0.129486675
C   C95       1.0  0.92179  0.95001  0.85726  1.0000 0.129486675
C   C96       1.0  0.95001  0.92179  0.64274  1.0000 0.129486675
C   C97       1.0  0.78810  0.39550  0.20019  1.0000 -0.1513366633
C   C98       1.0  0.39550  0.78810  0.29981  1.0000 -0.1513366633
C   C99       1.0  0.21190  0.60450  0.79981  1.0000 -0.1513366633
C   C100      1.0  0.60450  0.21190  0.70019  1.0000 -0.1513366633
C   C101      1.0  0.77227  0.97273  0.09050  1.0000 -0.1900072039
C   C102      1.0  0.97273  0.77227  0.40950  1.0000 -0.1900072039
C   C103      1.0  0.22773  0.02727  0.90950  1.0000 -0.1900072039
C   C104      1.0  0.02727  0.22773  0.59050  1.0000 -0.1900072039
C   C105      1.0  0.52359  0.57021  0.16584  1.0000 -0.1816215419
C   C106      1.0  0.57021  0.52359  0.33416  1.0000 -0.1816215419
C   C107      1.0  0.47641  0.42979  0.83416  1.0000 -0.1816215419
C   C108      1.0  0.42979  0.47641  0.66584  1.0000 -0.1816215419
C   C109      1.0  0.91178  0.35462  0.02295  1.0000 -0.1011755399
C   C110      1.0  0.35462  0.91178  0.47705  1.0000 -0.1011755399
C   C111      1.0  0.08822  0.64538  0.97705  1.0000 -0.1011755399
C   C112      1.0  0.64538  0.08822  0.52295  1.0000 -0.1011755399
C   C113      1.0  0.47105  0.64555  0.16349  1.0000 -0.086631132
C   C114      1.0  0.64555  0.47105  0.33651  1.0000 -0.086631132
C   C115      1.0  0.52895  0.35445  0.83651  1.0000 -0.086631132
C   C116      1.0  0.35445  0.52895  0.66349  1.0000 -0.086631132
C   C117      1.0  0.67024  0.26736  0.13783  1.0000 -0.1574344055
C   C118      1.0  0.26736  0.67024  0.36217  1.0000 -0.1574344055
C   C119      1.0  0.32976  0.73264  0.86217  1.0000 -0.1574344055
C   C120      1.0  0.73264  0.32976  0.63783  1.0000 -0.1574344055
N   N1        1.0  0.04691  0.28011  0.19320  1.0000 -0.35731169
N   N2        1.0  0.28011  0.04691  0.30680  1.0000 -0.35731169
N   N3        1.0  0.95309  0.71989  0.80680  1.0000 -0.35731169
N   N4        1.0  0.71989  0.95309  0.69320  1.0000 -0.35731169
N   N5        1.0  0.04991  0.05487  0.18532  1.0000 -0.3542356991
N   N6        1.0  0.05487  0.04991  0.31468  1.0000 -0.3542356991
N   N7        1.0  0.95009  0.94513  0.81468  1.0000 -0.3542356991
N   N8        1.0  0.94513  0.95009  0.68532  1.0000 -0.3542356991
N   N9        1.0  0.30335  0.29201  0.19376  1.0000 -0.35731169
N   N10       1.0  0.29201  0.30335  0.30624  1.0000 -0.35731169
N   N11       1.0  0.69665  0.70799  0.80624  1.0000 -0.35731169
N   N12       1.0  0.70799  0.69665  0.69376  1.0000 -0.35731169
N   N13       1.0  0.48092  0.35544  0.17989  1.0000 -0.0479880184
N   N14       1.0  0.35544  0.48092  0.32011  1.0000 -0.0479880184
N   N15       1.0  0.51908  0.64456  0.82011  1.0000 -0.0479880184
N   N16       1.0  0.64456  0.51908  0.67989  1.0000 -0.0479880184
N   N17       1.0  0.98704  0.02090  0.10039  1.0000 -0.0479880184
N   N18       1.0  0.02090  0.98704  0.39961  1.0000 -0.0479880184
N   N19       1.0  0.01296  0.97910  0.89961  1.0000 -0.0479880184
N   N20       1.0  0.97910  0.01296  0.60039  1.0000 -0.0479880184
N   N21       1.0  0.87858  0.31242  0.16449  1.0000 -0.0479880184
N   N22       1.0  0.31242  0.87858  0.33551  1.0000 -0.0479880184
N   N23       1.0  0.12142  0.68758  0.83551  1.0000 -0.0479880184
N   N24       1.0  0.68758  0.12142  0.66449  1.0000 -0.0479880184
Cl  Cl1       1.0  0.94842  0.37126  0.36155  1.0000 1.2692721508
Cl  Cl2       1.0  0.37126  0.94842  0.13845  1.0000 1.2692721508
Cl  Cl3       1.0  0.05158  0.62874  0.63845  1.0000 1.2692721508
Cl  Cl4       1.0  0.62874  0.05158  0.86155  1.0000 1.2692721508
O   O1        1.0  0.90282  0.45738  0.32207  1.0000 -0.5002508142
O   O2        1.0  0.00106  0.33014  0.33585  1.0000 -0.5487656125
O   O3        1.0  0.85830  0.27910  0.38414  1.0000 -0.5002508142
O   O4        1.0  0.03380  0.42320  0.40450  1.0000 -0.4900420808
O   O5        1.0  0.45738  0.90282  0.17793  1.0000 -0.5002508142
O   O6        1.0  0.33014  0.00106  0.16415  1.0000 -0.5487656125
O   O7        1.0  0.27910  0.85830  0.11586  1.0000 -0.5002508142
O   O8        1.0  0.42320  0.03380  0.09550  1.0000 -0.4900420808
O   O9        1.0  0.09718  0.54262  0.67793  1.0000 -0.5002508142
O   O10       1.0  0.99894  0.66986  0.66415  1.0000 -0.5487656125
O   O11       1.0  0.14170  0.72090  0.61586  1.0000 -0.5002508142
O   O12       1.0  0.96620  0.57680  0.59550  1.0000 -0.4900420808
O   O13       1.0  0.54262  0.09718  0.82207  1.0000 -0.5002508142
O   O14       1.0  0.66986  0.99894  0.83585  1.0000 -0.5487656125
O   O15       1.0  0.72090  0.14170  0.88414  1.0000 -0.5002508142
O   O16       1.0  0.57680  0.96620  0.90450  1.0000 -0.4900420808
