# DDEC6 charges by PACMAN v1.1 (https://github.com/mtap-research/PACMAN-charge/)
data_2010[Eu][nan]3[ION]1
_chemical_formula_sum              "Eu10 H128 C32 S24 N16 O96"
_cell_length_a       20.4951
_cell_length_b       20.4951
_cell_length_c       10.1333
_cell_angle_alpha    77.7689
_cell_angle_beta     102.231
_cell_angle_gamma    60.2259

_symmetry_space_group_name_H-M    "P 1"
_symmetry_Int_Tables_number       1

loop_
  _symmetry_equiv_pos_as_xyz
  'x, y, z'

loop_
  _atom_site_type_symbol
  _atom_site_label
  _atom_site_symmetry_multiplicity
  _atom_site_fract_x
  _atom_site_fract_y
  _atom_site_fract_z
  _atom_site_occupancy
  _atom_site_charge
Eu  Eu1       1.0  0.77968  0.77968  0.75000  1.0000 2.2230114586
Eu  Eu2       1.0  0.22032  0.22032  0.25000  1.0000 2.2230114586
Eu  Eu3       1.0  0.04978  0.56542  0.99088  1.0000 2.1311556943
Eu  Eu4       1.0  0.56542  0.04978  0.50912  1.0000 2.1311556943
Eu  Eu5       1.0  0.95022  0.43458  0.00912  1.0000 2.1311556943
Eu  Eu6       1.0  0.43458  0.95022  0.49088  1.0000 2.1311556943
Eu  Eu7       1.0  0.33228  0.60538  0.02139  1.0000 2.143288935
Eu  Eu8       1.0  0.60538  0.33228  0.47861  1.0000 2.143288935
Eu  Eu9       1.0  0.66772  0.39462  0.97861  1.0000 2.143288935
Eu  Eu10      1.0  0.39462  0.66772  0.52139  1.0000 2.143288935
H   H1        1.0  0.65160  0.57860  0.80590  1.0000 0.2535035111
H   H2        1.0  0.57860  0.65160  0.69410  1.0000 0.2535035111
H   H3        1.0  0.67290  0.59790  0.59860  1.0000 0.1410871762
H   H4        1.0  0.59790  0.67290  0.90140  1.0000 0.1410871762
H   H5        1.0  0.73130  0.60370  0.71580  1.0000 0.1579629181
H   H6        1.0  0.60370  0.73130  0.78420  1.0000 0.1579629181
H   H7        1.0  0.65300  0.68300  0.59400  1.0000 0.149189298
H   H8        1.0  0.68300  0.65300  0.90600  1.0000 0.149189298
H   H9        1.0  0.34840  0.42140  0.19410  1.0000 0.2535035111
H   H10       1.0  0.42140  0.34840  0.30590  1.0000 0.2535035111
H   H11       1.0  0.32710  0.40210  0.40140  1.0000 0.1410871762
H   H12       1.0  0.40210  0.32710  0.09860  1.0000 0.1410871762
H   H13       1.0  0.26870  0.39630  0.28420  1.0000 0.1579629181
H   H14       1.0  0.39630  0.26870  0.21580  1.0000 0.1579629181
H   H15       1.0  0.34700  0.31700  0.40600  1.0000 0.149189298
H   H16       1.0  0.31700  0.34700  0.09400  1.0000 0.149189298
H   H17       1.0  0.72770  0.11890  0.37760  1.0000 0.2715621528
H   H18       1.0  0.73460  0.17800  0.28470  1.0000 0.2715621528
H   H19       1.0  0.85170  0.04910  0.35420  1.0000 0.1410871762
H   H20       1.0  0.80700  0.08680  0.18460  1.0000 0.1410871762
H   H21       1.0  0.79790  0.02330  0.28040  1.0000 0.1410871762
H   H22       1.0  0.61280  0.20780  0.19950  1.0000 0.1579629181
H   H23       1.0  0.64950  0.12210  0.18940  1.0000 0.1410871762
H   H24       1.0  0.65630  0.18650  0.08990  1.0000 0.149189298
H   H25       1.0  0.11890  0.72770  0.12240  1.0000 0.2715621528
H   H26       1.0  0.17800  0.73460  0.21530  1.0000 0.2715621528
H   H27       1.0  0.04910  0.85170  0.14580  1.0000 0.1410871762
H   H28       1.0  0.08680  0.80700  0.31540  1.0000 0.1410871762
H   H29       1.0  0.02330  0.79790  0.21960  1.0000 0.1410871762
H   H30       1.0  0.20780  0.61280  0.30050  1.0000 0.1579629181
H   H31       1.0  0.12210  0.64950  0.31060  1.0000 0.1410871762
H   H32       1.0  0.18650  0.65630  0.41010  1.0000 0.149189298
H   H33       1.0  0.27230  0.88110  0.62240  1.0000 0.2715621528
H   H34       1.0  0.26540  0.82200  0.71530  1.0000 0.2715621528
H   H35       1.0  0.14830  0.95090  0.64580  1.0000 0.1410871762
H   H36       1.0  0.19300  0.91320  0.81540  1.0000 0.1410871762
H   H37       1.0  0.20210  0.97670  0.71960  1.0000 0.1410871762
H   H38       1.0  0.38720  0.79220  0.80050  1.0000 0.1579629181
H   H39       1.0  0.35050  0.87790  0.81060  1.0000 0.1410871762
H   H40       1.0  0.34370  0.81350  0.91010  1.0000 0.149189298
H   H41       1.0  0.88110  0.27230  0.87760  1.0000 0.2715621528
H   H42       1.0  0.82200  0.26540  0.78470  1.0000 0.2715621528
H   H43       1.0  0.95090  0.14830  0.85420  1.0000 0.1410871762
H   H44       1.0  0.91320  0.19300  0.68460  1.0000 0.1410871762
H   H45       1.0  0.97670  0.20210  0.78040  1.0000 0.1410871762
H   H46       1.0  0.79220  0.38720  0.69950  1.0000 0.1579629181
H   H47       1.0  0.87790  0.35050  0.68940  1.0000 0.1410871762
H   H48       1.0  0.81350  0.34370  0.58990  1.0000 0.149189298
H   H49       1.0  0.00350  0.21770  0.25200  1.0000 0.2715621528
H   H50       1.0  0.93210  0.25110  0.28810  1.0000 0.2715621528
H   H51       1.0  0.02990  0.23810  0.44870  1.0000 0.149189298
H   H52       1.0  0.08180  0.14480  0.48160  1.0000 0.1410871762
H   H53       1.0  0.00380  0.18360  0.51920  1.0000 0.1321541168
H   H54       1.0  0.93740  0.16820  0.18280  1.0000 0.149189298
H   H55       1.0  0.94300  0.13620  0.34250  1.0000 0.1410871762
H   H56       1.0  0.02160  0.09880  0.30630  1.0000 0.1321541168
H   H57       1.0  0.21770  0.00350  0.24800  1.0000 0.2715621528
H   H58       1.0  0.25110  0.93210  0.21190  1.0000 0.2715621528
H   H59       1.0  0.23810  0.02990  0.05130  1.0000 0.149189298
H   H60       1.0  0.14480  0.08180  0.01840  1.0000 0.1410871762
H   H61       1.0  0.18360  0.00380  0.98080  1.0000 0.1321541168
H   H62       1.0  0.16820  0.93740  0.31720  1.0000 0.149189298
H   H63       1.0  0.13620  0.94300  0.15750  1.0000 0.1410871762
H   H64       1.0  0.09880  0.02160  0.19370  1.0000 0.1321541168
H   H65       1.0  0.99650  0.78230  0.74800  1.0000 0.2715621528
H   H66       1.0  0.06790  0.74890  0.71190  1.0000 0.2715621528
H   H67       1.0  0.97010  0.76190  0.55130  1.0000 0.149189298
H   H68       1.0  0.91820  0.85520  0.51840  1.0000 0.1410871762
H   H69       1.0  0.99620  0.81640  0.48080  1.0000 0.1321541168
H   H70       1.0  0.06260  0.83180  0.81720  1.0000 0.149189298
H   H71       1.0  0.05700  0.86380  0.65750  1.0000 0.1410871762
H   H72       1.0  0.97840  0.90120  0.69370  1.0000 0.1321541168
H   H73       1.0  0.78230  0.99650  0.75200  1.0000 0.2715621528
H   H74       1.0  0.74890  0.06790  0.78810  1.0000 0.2715621528
H   H75       1.0  0.76190  0.97010  0.94870  1.0000 0.149189298
H   H76       1.0  0.85520  0.91820  0.98160  1.0000 0.1410871762
H   H77       1.0  0.81640  0.99620  0.01920  1.0000 0.1321541168
H   H78       1.0  0.83180  0.06260  0.68280  1.0000 0.149189298
H   H79       1.0  0.86380  0.05700  0.84250  1.0000 0.1410871762
H   H80       1.0  0.90120  0.97840  0.80630  1.0000 0.1321541168
H   H81       1.0  0.05230  0.54870  0.62900  1.0000 0.2715621528
H   H82       1.0  0.08320  0.49280  0.55550  1.0000 0.2715621528
H   H83       1.0  0.18810  0.47790  0.71740  1.0000 0.149189298
H   H84       1.0  0.15100  0.57000  0.63820  1.0000 0.149189298
H   H85       1.0  0.18460  0.50940  0.55930  1.0000 0.1321541168
H   H86       1.0  0.97270  0.61330  0.38820  1.0000 0.1579629181
H   H87       1.0  0.04940  0.59520  0.35270  1.0000 0.1410871762
H   H88       1.0  0.01540  0.65540  0.43200  1.0000 0.1321541168
H   H89       1.0  0.54870  0.05230  0.87100  1.0000 0.2715621528
H   H90       1.0  0.49280  0.08320  0.94450  1.0000 0.2715621528
H   H91       1.0  0.47790  0.18810  0.78260  1.0000 0.149189298
H   H92       1.0  0.57000  0.15100  0.86180  1.0000 0.149189298
H   H93       1.0  0.50940  0.18460  0.94070  1.0000 0.1321541168
H   H94       1.0  0.61330  0.97270  0.11180  1.0000 0.1579629181
H   H95       1.0  0.59520  0.04940  0.14730  1.0000 0.1410871762
H   H96       1.0  0.65540  0.01540  0.06800  1.0000 0.1321541168
H   H97       1.0  0.94770  0.45130  0.37100  1.0000 0.2715621528
H   H98       1.0  0.91680  0.50720  0.44450  1.0000 0.2715621528
H   H99       1.0  0.81190  0.52210  0.28260  1.0000 0.149189298
H   H100      1.0  0.84900  0.43000  0.36180  1.0000 0.149189298
H   H101      1.0  0.81540  0.49060  0.44070  1.0000 0.1321541168
H   H102      1.0  0.02730  0.38670  0.61180  1.0000 0.1579629181
H   H103      1.0  0.95060  0.40480  0.64730  1.0000 0.1410871762
H   H104      1.0  0.98460  0.34460  0.56800  1.0000 0.1321541168
H   H105      1.0  0.45130  0.94770  0.12900  1.0000 0.2715621528
H   H106      1.0  0.50720  0.91680  0.05550  1.0000 0.2715621528
H   H107      1.0  0.52210  0.81190  0.21740  1.0000 0.149189298
H   H108      1.0  0.43000  0.84900  0.13820  1.0000 0.149189298
H   H109      1.0  0.49060  0.81540  0.05930  1.0000 0.1321541168
H   H110      1.0  0.38670  0.02730  0.88820  1.0000 0.1579629181
H   H111      1.0  0.40480  0.95060  0.85270  1.0000 0.1410871762
H   H112      1.0  0.34460  0.98460  0.93200  1.0000 0.1321541168
H   H113      1.0  0.45800  0.44040  0.82740  1.0000 0.2715621528
H   H114      1.0  0.44040  0.45800  0.67260  1.0000 0.2715621528
H   H115      1.0  0.32570  0.53270  0.70480  1.0000 0.149189298
H   H116      1.0  0.53270  0.32570  0.79520  1.0000 0.149189298
H   H117      1.0  0.34020  0.45300  0.80340  1.0000 0.149189298
H   H118      1.0  0.45300  0.34020  0.69660  1.0000 0.149189298
H   H119      1.0  0.32190  0.47230  0.63640  1.0000 0.1410871762
H   H120      1.0  0.47230  0.32190  0.86360  1.0000 0.1410871762
H   H121      1.0  0.54200  0.55960  0.17260  1.0000 0.2715621528
H   H122      1.0  0.55960  0.54200  0.32740  1.0000 0.2715621528
H   H123      1.0  0.67430  0.46730  0.29520  1.0000 0.149189298
H   H124      1.0  0.46730  0.67430  0.20480  1.0000 0.149189298
H   H125      1.0  0.65980  0.54700  0.19660  1.0000 0.149189298
H   H126      1.0  0.54700  0.65980  0.30340  1.0000 0.149189298
H   H127      1.0  0.67810  0.52770  0.36360  1.0000 0.1410871762
H   H128      1.0  0.52770  0.67810  0.13640  1.0000 0.1410871762
C   C1        1.0  0.67570  0.62850  0.65700  1.0000 -0.2526388295
C   C2        1.0  0.62850  0.67570  0.84300  1.0000 -0.2526388295
C   C3        1.0  0.32430  0.37150  0.34300  1.0000 -0.2526388295
C   C4        1.0  0.37150  0.32430  0.15700  1.0000 -0.2526388295
C   C5        1.0  0.80340  0.06740  0.27600  1.0000 -0.2883545734
C   C6        1.0  0.65640  0.16540  0.18410  1.0000 -0.2702499159
C   C7        1.0  0.06740  0.80340  0.22400  1.0000 -0.2883545734
C   C8        1.0  0.16540  0.65640  0.31590  1.0000 -0.2702499159
C   C9        1.0  0.19660  0.93260  0.72400  1.0000 -0.2883545734
C   C10       1.0  0.34360  0.83460  0.81590  1.0000 -0.2702499159
C   C11       1.0  0.93260  0.19660  0.77600  1.0000 -0.2883545734
C   C12       1.0  0.83460  0.34360  0.68410  1.0000 -0.2702499159
C   C13       1.0  0.02790  0.19210  0.45100  1.0000 -0.2634775393
C   C14       1.0  0.97000  0.14760  0.28400  1.0000 -0.2816639719
C   C15       1.0  0.19210  0.02790  0.04900  1.0000 -0.2634775393
C   C16       1.0  0.14760  0.97000  0.21600  1.0000 -0.2816639719
C   C17       1.0  0.97210  0.80790  0.54900  1.0000 -0.2634775393
C   C18       1.0  0.03000  0.85240  0.71600  1.0000 -0.2816639719
C   C19       1.0  0.80790  0.97210  0.95100  1.0000 -0.2634775393
C   C20       1.0  0.85240  0.03000  0.78400  1.0000 -0.2816639719
C   C21       1.0  0.15710  0.52250  0.62520  1.0000 -0.2816639719
C   C22       1.0  0.02390  0.60650  0.42180  1.0000 -0.2816639719
C   C23       1.0  0.52250  0.15710  0.87480  1.0000 -0.2816639719
C   C24       1.0  0.60650  0.02390  0.07820  1.0000 -0.2816639719
C   C25       1.0  0.84290  0.47750  0.37480  1.0000 -0.2816639719
C   C26       1.0  0.97610  0.39350  0.57820  1.0000 -0.2816639719
C   C27       1.0  0.47750  0.84290  0.12520  1.0000 -0.2816639719
C   C28       1.0  0.39350  0.97610  0.92180  1.0000 -0.2816639719
C   C29       1.0  0.34820  0.47660  0.72120  1.0000 -0.2965782784
C   C30       1.0  0.47660  0.34820  0.77880  1.0000 -0.2965782784
C   C31       1.0  0.65180  0.52340  0.27880  1.0000 -0.2965782784
C   C32       1.0  0.52340  0.65180  0.22120  1.0000 -0.2965782784
S   S1        1.0  0.86453  0.59947  0.05470  1.0000 1.4908837028
S   S2        1.0  0.59947  0.86453  0.44530  1.0000 1.4908837028
S   S3        1.0  0.13547  0.40053  0.94530  1.0000 1.4908837028
S   S4        1.0  0.40053  0.13547  0.55470  1.0000 1.4908837028
S   S5        1.0  0.18185  0.59717  0.98360  1.0000 1.3480744906
S   S6        1.0  0.59717  0.18185  0.51640  1.0000 1.3480744906
S   S7        1.0  0.81815  0.40283  0.01640  1.0000 1.3480744906
S   S8        1.0  0.40283  0.81815  0.48360  1.0000 1.3480744906
S   S9        1.0  0.90310  0.59132  0.68000  1.0000 1.5191503115
S   S10       1.0  0.59132  0.90310  0.82000  1.0000 1.5191503115
S   S11       1.0  0.09690  0.40868  0.32000  1.0000 1.5191503115
S   S12       1.0  0.40868  0.09690  0.18000  1.0000 1.5191503115
S   S13       1.0  0.40645  0.52259  0.36100  1.0000 1.4512881286
S   S14       1.0  0.52259  0.40645  0.13900  1.0000 1.4512881286
S   S15       1.0  0.59355  0.47741  0.63900  1.0000 1.4512881286
S   S16       1.0  0.47741  0.59355  0.86100  1.0000 1.4512881286
S   S17       1.0  0.93651  0.74807  0.96090  1.0000 1.3708024867
S   S18       1.0  0.74807  0.93651  0.53910  1.0000 1.3708024867
S   S19       1.0  0.06349  0.25193  0.03910  1.0000 1.3708024867
S   S20       1.0  0.25193  0.06349  0.46090  1.0000 1.3708024867
S   S21       1.0  0.22067  0.72551  0.62860  1.0000 1.4563200124
S   S22       1.0  0.72551  0.22067  0.87140  1.0000 1.4563200124
S   S23       1.0  0.77933  0.27449  0.37140  1.0000 1.4563200124
S   S24       1.0  0.27449  0.77933  0.12860  1.0000 1.4563200124
N   N1        1.0  0.63010  0.63010  0.75000  1.0000 -0.0690588705
N   N2        1.0  0.36990  0.36990  0.25000  1.0000 -0.0690588705
N   N3        1.0  0.72900  0.13680  0.29000  1.0000 -0.0646946985
N   N4        1.0  0.13680  0.72900  0.21000  1.0000 -0.0646946985
N   N5        1.0  0.27100  0.86320  0.71000  1.0000 -0.0646946985
N   N6        1.0  0.86320  0.27100  0.79000  1.0000 -0.0646946985
N   N7        1.0  0.98170  0.20590  0.31340  1.0000 -0.0690588705
N   N8        1.0  0.20590  0.98170  0.18660  1.0000 -0.0690588705
N   N9        1.0  0.01830  0.79410  0.68660  1.0000 -0.0690588705
N   N10       1.0  0.79410  0.01830  0.81340  1.0000 -0.0690588705
N   N11       1.0  0.07700  0.53800  0.56540  1.0000 -0.0930863951
N   N12       1.0  0.53800  0.07700  0.93460  1.0000 -0.0930863951
N   N13       1.0  0.92300  0.46200  0.43460  1.0000 -0.0930863951
N   N14       1.0  0.46200  0.92300  0.06540  1.0000 -0.0930863951
N   N15       1.0  0.43420  0.43420  0.75000  1.0000 -0.0690588705
N   N16       1.0  0.56580  0.56580  0.25000  1.0000 -0.0690588705
O   O1        1.0  0.96220  0.80240  0.93660  1.0000 -0.6027933262
O   O2        1.0  0.80240  0.96220  0.56340  1.0000 -0.6027933262
O   O3        1.0  0.03780  0.19760  0.06340  1.0000 -0.6027933262
O   O4        1.0  0.19760  0.03780  0.43660  1.0000 -0.6027933262
O   O5        1.0  0.16430  0.70410  0.60040  1.0000 -0.6290088348
O   O6        1.0  0.70410  0.16430  0.89960  1.0000 -0.6290088348
O   O7        1.0  0.83570  0.29590  0.39960  1.0000 -0.6290088348
O   O8        1.0  0.29590  0.83570  0.10040  1.0000 -0.6290088348
O   O9        1.0  0.27010  0.68790  0.78120  1.0000 -0.7983327858
O   O10       1.0  0.68790  0.27010  0.71880  1.0000 -0.7983327858
O   O11       1.0  0.72990  0.31210  0.21880  1.0000 -0.7983327858
O   O12       1.0  0.31210  0.72990  0.28120  1.0000 -0.7983327858
O   O13       1.0  0.27420  0.69900  0.54600  1.0000 -0.792757415
O   O14       1.0  0.69900  0.27420  0.95400  1.0000 -0.792757415
O   O15       1.0  0.72580  0.30100  0.45400  1.0000 -0.792757415
O   O16       1.0  0.30100  0.72580  0.04600  1.0000 -0.792757415
O   O17       1.0  0.17660  0.81300  0.58460  1.0000 -0.6290088348
O   O18       1.0  0.81300  0.17660  0.91540  1.0000 -0.6290088348
O   O19       1.0  0.82340  0.18700  0.41540  1.0000 -0.6290088348
O   O20       1.0  0.18700  0.82340  0.08460  1.0000 -0.6290088348
O   O21       1.0  0.85480  0.78760  0.96580  1.0000 -0.6900246047
O   O22       1.0  0.78760  0.85480  0.53420  1.0000 -0.6900246047
O   O23       1.0  0.14520  0.21240  0.03420  1.0000 -0.6900246047
O   O24       1.0  0.21240  0.14520  0.46580  1.0000 -0.6900246047
O   O25       1.0  0.98283  0.57943  0.75270  1.0000 -0.7839141838
O   O26       1.0  0.57943  0.98283  0.74730  1.0000 -0.7839141838
O   O27       1.0  0.01717  0.42057  0.24730  1.0000 -0.7839141838
O   O28       1.0  0.42057  0.01717  0.25270  1.0000 -0.792757415
O   O29       1.0  0.93758  0.56758  0.01220  1.0000 -0.8914106242
O   O30       1.0  0.56758  0.93758  0.48780  1.0000 -0.8914106242
O   O31       1.0  0.06242  0.43242  0.98780  1.0000 -0.8914106242
O   O32       1.0  0.43242  0.06242  0.51220  1.0000 -0.8914106242
O   O33       1.0  0.84342  0.54102  0.05330  1.0000 -0.7153353048
O   O34       1.0  0.54102  0.84342  0.44670  1.0000 -0.7153353048
O   O35       1.0  0.15658  0.45898  0.94670  1.0000 -0.7153353048
O   O36       1.0  0.45898  0.15658  0.55330  1.0000 -0.7101550214
O   O37       1.0  0.33443  0.53583  0.25720  1.0000 -0.7319896273
O   O38       1.0  0.53583  0.33443  0.24280  1.0000 -0.7319896273
O   O39       1.0  0.66557  0.46417  0.74280  1.0000 -0.7319896273
O   O40       1.0  0.46417  0.66557  0.75720  1.0000 -0.7319896273
O   O41       1.0  0.79797  0.67937  0.94290  1.0000 -0.7319896273
O   O42       1.0  0.67937  0.79797  0.55710  1.0000 -0.7319896273
O   O43       1.0  0.20203  0.32063  0.05710  1.0000 -0.7319896273
O   O44       1.0  0.32063  0.20203  0.44290  1.0000 -0.7319896273
O   O45       1.0  0.99920  0.67280  0.08940  1.0000 -0.7101550214
O   O46       1.0  0.67280  0.99920  0.41060  1.0000 -0.7101550214
O   O47       1.0  0.00080  0.32720  0.91060  1.0000 -0.7101550214
O   O48       1.0  0.32720  0.00080  0.58940  1.0000 -0.7101550214
O   O49       1.0  0.83652  0.66992  0.66990  1.0000 -0.7408526493
O   O50       1.0  0.66992  0.83652  0.83010  1.0000 -0.7408526493
O   O51       1.0  0.16348  0.33008  0.33010  1.0000 -0.7408526493
O   O52       1.0  0.33008  0.16348  0.16990  1.0000 -0.7408526493
O   O53       1.0  0.92950  0.71850  0.83670  1.0000 -0.8382041655
O   O54       1.0  0.71850  0.92950  0.66330  1.0000 -0.8382041655
O   O55       1.0  0.07050  0.28150  0.16330  1.0000 -0.8382041655
O   O56       1.0  0.28150  0.07050  0.33670  1.0000 -0.8382041655
O   O57       1.0  0.90037  0.52557  0.76570  1.0000 -0.7568734937
O   O58       1.0  0.52557  0.90037  0.73430  1.0000 -0.7568734937
O   O59       1.0  0.09963  0.47443  0.23430  1.0000 -0.7568734937
O   O60       1.0  0.47443  0.09963  0.26570  1.0000 -0.7568734937
O   O61       1.0  0.88280  0.60500  0.19680  1.0000 -0.5464176588
O   O62       1.0  0.60500  0.88280  0.30320  1.0000 -0.5464176588
O   O63       1.0  0.11720  0.39500  0.80320  1.0000 -0.5464176588
O   O64       1.0  0.39500  0.11720  0.69680  1.0000 -0.5464176588
O   O65       1.0  0.89588  0.59068  0.53530  1.0000 -0.6056123875
O   O66       1.0  0.59068  0.89588  0.96470  1.0000 -0.6056123875
O   O67       1.0  0.10412  0.40932  0.46470  1.0000 -0.6056123875
O   O68       1.0  0.40932  0.10412  0.03530  1.0000 -0.6056123875
O   O69       1.0  0.46750  0.43450  0.44000  1.0000 -0.7408526493
O   O70       1.0  0.43450  0.46750  0.06000  1.0000 -0.7408526493
O   O71       1.0  0.53250  0.56550  0.56000  1.0000 -0.7408526493
O   O72       1.0  0.56550  0.53250  0.94000  1.0000 -0.7408526493
O   O73       1.0  0.38780  0.55840  0.46970  1.0000 -0.7029592223
O   O74       1.0  0.55840  0.38780  0.03030  1.0000 -0.7029592223
O   O75       1.0  0.61220  0.44160  0.53030  1.0000 -0.7029592223
O   O76       1.0  0.44160  0.61220  0.96970  1.0000 -0.7029592223
O   O77       1.0  0.18650  0.66490  0.99880  1.0000 -0.7029592223
O   O78       1.0  0.66490  0.18650  0.50120  1.0000 -0.7029592223
O   O79       1.0  0.81350  0.33510  0.00120  1.0000 -0.7029592223
O   O80       1.0  0.33510  0.81350  0.49880  1.0000 -0.7029592223
O   O81       1.0  0.10870  0.62690  0.85840  1.0000 -0.6900246047
O   O82       1.0  0.62690  0.10870  0.64160  1.0000 -0.6900246047
O   O83       1.0  0.89130  0.37310  0.14160  1.0000 -0.6900246047
O   O84       1.0  0.37310  0.89130  0.35840  1.0000 -0.6900246047
O   O85       1.0  0.17329  0.55669  0.11010  1.0000 -0.6786388732
O   O86       1.0  0.55669  0.17329  0.38990  1.0000 -0.6786388732
O   O87       1.0  0.82671  0.44331  0.88990  1.0000 -0.6786388732
O   O88       1.0  0.44331  0.82671  0.61010  1.0000 -0.6786388732
O   O89       1.0  0.25793  0.54193  0.96930  1.0000 -0.6786388732
O   O90       1.0  0.54193  0.25793  0.53070  1.0000 -0.6786388732
O   O91       1.0  0.74207  0.45807  0.03070  1.0000 -0.6786388732
O   O92       1.0  0.45807  0.74207  0.46930  1.0000 -0.6786388732
O   O93       1.0  0.43353  0.56113  0.26910  1.0000 -0.7408526493
O   O94       1.0  0.56113  0.43353  0.23090  1.0000 -0.7408526493
O   O95       1.0  0.56647  0.43887  0.73090  1.0000 -0.7408526493
O   O96       1.0  0.43887  0.56647  0.76910  1.0000 -0.7408526493
