# DDEC6 charges by PACMAN v1.1 (https://github.com/mtap-research/PACMAN-charge/)
data_2011[Zn][gis]3[ION]1
_chemical_formula_sum              "Zn4 P4 H32 C32 N2 O20"
_cell_length_a       13.1436
_cell_length_b       13.1436
_cell_length_c       10.242
_cell_angle_alpha    70.5117
_cell_angle_beta     109.488
_cell_angle_gamma    85.264

_symmetry_space_group_name_H-M    "P 1"
_symmetry_Int_Tables_number       1

loop_
  _symmetry_equiv_pos_as_xyz
  'x, y, z'

loop_
  _atom_site_type_symbol
  _atom_site_label
  _atom_site_symmetry_multiplicity
  _atom_site_fract_x
  _atom_site_fract_y
  _atom_site_fract_z
  _atom_site_occupancy
  _atom_site_charge
Zn  Zn1       1.0  0.83841  0.05977  0.52228  1.0000 1.0487413597
Zn  Zn2       1.0  0.05977  0.83841  0.97772  1.0000 1.0487413597
Zn  Zn3       1.0  0.16159  0.94023  0.47772  1.0000 1.0487413597
Zn  Zn4       1.0  0.94023  0.16159  0.02228  1.0000 1.0487413597
P   P1        1.0  0.02211  0.83545  0.65448  1.0000 1.2724006962
P   P2        1.0  0.83545  0.02211  0.84552  1.0000 1.2724006962
P   P3        1.0  0.97789  0.16455  0.34552  1.0000 1.2724006962
P   P4        1.0  0.16455  0.97789  0.15448  1.0000 1.2724006962
H   H1        1.0  0.81730  0.76730  0.63630  1.0000 0.1319257919
H   H2        1.0  0.76730  0.81730  0.86370  1.0000 0.1319257919
H   H3        1.0  0.18270  0.23270  0.36370  1.0000 0.1319257919
H   H4        1.0  0.23270  0.18270  0.13630  1.0000 0.1319257919
H   H5        1.0  0.76590  0.59930  0.72820  1.0000 0.1319257919
H   H6        1.0  0.59930  0.76590  0.77180  1.0000 0.1319257919
H   H7        1.0  0.23410  0.40070  0.27180  1.0000 0.1319257919
H   H8        1.0  0.40070  0.23410  0.22820  1.0000 0.1319257919
H   H9        1.0  0.07570  0.43910  0.87580  1.0000 0.1319257919
H   H10       1.0  0.43910  0.07570  0.62420  1.0000 0.1319257919
H   H11       1.0  0.92430  0.56090  0.12420  1.0000 0.1319257919
H   H12       1.0  0.56090  0.92430  0.37580  1.0000 0.1319257919
H   H13       1.0  0.13110  0.60650  0.79810  1.0000 0.1379416198
H   H14       1.0  0.60650  0.13110  0.70190  1.0000 0.1379416198
H   H15       1.0  0.86890  0.39350  0.20190  1.0000 0.1379416198
H   H16       1.0  0.39350  0.86890  0.29810  1.0000 0.1379416198
H   H17       1.0  0.24670  0.99090  0.82520  1.0000 0.1507882257
H   H18       1.0  0.99090  0.24670  0.67480  1.0000 0.1507882257
H   H19       1.0  0.27820  0.08360  0.88580  1.0000 0.1319257919
H   H20       1.0  0.08360  0.27820  0.61420  1.0000 0.1319257919
H   H21       1.0  0.26110  0.10190  0.71990  1.0000 0.1379416198
H   H22       1.0  0.10190  0.26110  0.78010  1.0000 0.1379416198
H   H23       1.0  0.08180  0.09780  0.67390  1.0000 0.2520839316
H   H24       1.0  0.09780  0.08180  0.82610  1.0000 0.2520839316
H   H25       1.0  0.75330  0.00910  0.17480  1.0000 0.1507882257
H   H26       1.0  0.00910  0.75330  0.32520  1.0000 0.1507882257
H   H27       1.0  0.72180  0.91640  0.11420  1.0000 0.1319257919
H   H28       1.0  0.91640  0.72180  0.38580  1.0000 0.1319257919
H   H29       1.0  0.73890  0.89810  0.28010  1.0000 0.1379416198
H   H30       1.0  0.89810  0.73890  0.21990  1.0000 0.1379416198
H   H31       1.0  0.91820  0.90220  0.32610  1.0000 0.2520839316
H   H32       1.0  0.90220  0.91820  0.17390  1.0000 0.2520839316
C   C1        1.0  0.97980  0.70500  0.71080  1.0000 -0.1605894189
C   C2        1.0  0.70500  0.97980  0.78920  1.0000 -0.1605894189
C   C3        1.0  0.02020  0.29500  0.28920  1.0000 -0.1605894189
C   C4        1.0  0.29500  0.02020  0.21080  1.0000 -0.1605894189
C   C5        1.0  0.87100  0.70180  0.68740  1.0000 -0.0800151751
C   C6        1.0  0.70180  0.87100  0.81260  1.0000 -0.0800151751
C   C7        1.0  0.12900  0.29820  0.31260  1.0000 -0.0800151751
C   C8        1.0  0.29820  0.12900  0.18740  1.0000 -0.0724434722
C   C9        1.0  0.83920  0.60000  0.74030  1.0000 -0.0800151751
C   C10       1.0  0.60000  0.83920  0.75970  1.0000 -0.0800151751
C   C11       1.0  0.16080  0.40000  0.25970  1.0000 -0.0800151751
C   C12       1.0  0.40000  0.16080  0.24030  1.0000 -0.0800151751
C   C13       1.0  0.91600  0.50400  0.80840  1.0000 -0.0075289705
C   C14       1.0  0.50400  0.91600  0.69160  1.0000 -0.0075289705
C   C15       1.0  0.08400  0.49600  0.19160  1.0000 -0.0075289705
C   C16       1.0  0.49600  0.08400  0.30840  1.0000 -0.0075289705
C   C17       1.0  0.02350  0.50550  0.82940  1.0000 -0.0724434722
C   C18       1.0  0.50550  0.02350  0.67060  1.0000 -0.0724434722
C   C19       1.0  0.97650  0.49450  0.17060  1.0000 -0.0724434722
C   C20       1.0  0.49450  0.97650  0.32940  1.0000 -0.0724434722
C   C21       1.0  0.05700  0.60660  0.78160  1.0000 -0.0645126584
C   C22       1.0  0.60660  0.05700  0.71840  1.0000 -0.0645126584
C   C23       1.0  0.94300  0.39340  0.21840  1.0000 -0.0645126584
C   C24       1.0  0.39340  0.94300  0.28160  1.0000 -0.0645126584
C   C25       1.0  0.88210  0.39470  0.86480  1.0000 0.5736410064
C   C26       1.0  0.39470  0.88210  0.63520  1.0000 0.5736410064
C   C27       1.0  0.11790  0.60530  0.13520  1.0000 0.5736410064
C   C28       1.0  0.60530  0.11790  0.36480  1.0000 0.5736410064
C   C29       1.0  0.23630  0.06930  0.79960  1.0000 -0.2819467071
C   C30       1.0  0.06930  0.23630  0.70040  1.0000 -0.2819467071
C   C31       1.0  0.76370  0.93070  0.20040  1.0000 -0.2819467071
C   C32       1.0  0.93070  0.76370  0.29960  1.0000 -0.2819467071
N   N1        1.0  0.11770  0.11770  0.75000  1.0000 -0.1013280559
N   N2        1.0  0.88230  0.88230  0.25000  1.0000 -0.1013280559
O   O1        1.0  0.91801  0.91921  0.54270  1.0000 -0.7689155745
O   O2        1.0  0.91921  0.91801  0.95730  1.0000 -0.7689155745
O   O3        1.0  0.08199  0.08079  0.45730  1.0000 -0.7689155745
O   O4        1.0  0.08079  0.08199  0.04270  1.0000 -0.7689155745
O   O5        1.0  0.07812  0.86112  0.79190  1.0000 -0.7486695009
O   O6        1.0  0.86112  0.07812  0.70810  1.0000 -0.7486695009
O   O7        1.0  0.92188  0.13888  0.20810  1.0000 -0.7486695009
O   O8        1.0  0.13888  0.92188  0.29190  1.0000 -0.7486695009
O   O9        1.0  0.10369  0.82049  0.58250  1.0000 -0.7292719591
O   O10       1.0  0.82049  0.10369  0.91750  1.0000 -0.7292719591
O   O11       1.0  0.89631  0.17951  0.41750  1.0000 -0.7292719591
O   O12       1.0  0.17951  0.89631  0.08250  1.0000 -0.7292719591
O   O13       1.0  0.78770  0.39390  0.86440  1.0000 -0.5151550877
O   O14       1.0  0.39390  0.78770  0.63560  1.0000 -0.5131672728
O   O15       1.0  0.21230  0.60610  0.13560  1.0000 -0.5131672728
O   O16       1.0  0.60610  0.21230  0.36440  1.0000 -0.5131672728
O   O17       1.0  0.95690  0.30870  0.91460  1.0000 -0.5456862557
O   O18       1.0  0.30870  0.95690  0.58540  1.0000 -0.5441091168
O   O19       1.0  0.04310  0.69130  0.08540  1.0000 -0.5456862557
O   O20       1.0  0.69130  0.04310  0.41460  1.0000 -0.5441091168
