# DDEC6 charges by PACMAN v1.1 (https://github.com/mtap-research/PACMAN-charge/)
data_2011[CoGd][nan]3[ION]1
_chemical_formula_sum              "Gd4 Co2 H60 C72 N18 O54"
_cell_length_a       11.145
_cell_length_b       12.424
_cell_length_c       22.18
_cell_angle_alpha    102.016
_cell_angle_beta     103.475
_cell_angle_gamma    95.419

_symmetry_space_group_name_H-M    "P 1"
_symmetry_Int_Tables_number       1

loop_
  _symmetry_equiv_pos_as_xyz
  'x, y, z'

loop_
  _atom_site_type_symbol
  _atom_site_label
  _atom_site_symmetry_multiplicity
  _atom_site_fract_x
  _atom_site_fract_y
  _atom_site_fract_z
  _atom_site_occupancy
  _atom_site_charge
Gd  Gd1       1.0  0.30126  0.44649  0.45135  1.0000 2.0783479968
Gd  Gd2       1.0  0.69874  0.55351  0.54865  1.0000 2.0783479968
Gd  Gd3       1.0  0.95940  0.63148  0.94931  1.0000 2.0522512952
Gd  Gd4       1.0  0.04060  0.36852  0.05069  1.0000 2.0522512952
Co  Co1       1.0  0.32239  0.08629  0.74301  1.0000 0.4757241765
Co  Co2       1.0  0.67761  0.91371  0.25699  1.0000 0.4746818105
H   H1        1.0  0.22430  0.12660  0.61170  1.0000 0.1283056168
H   H2        1.0  0.77570  0.87340  0.38830  1.0000 0.1283056168
H   H3        1.0  0.30480  0.23510  0.54960  1.0000 0.14879192
H   H4        1.0  0.69520  0.76490  0.45040  1.0000 0.14879192
H   H5        1.0  0.59770  0.35730  0.70230  1.0000 0.1395742493
H   H6        1.0  0.40230  0.64270  0.29770  1.0000 0.1395742493
H   H7        1.0  0.67360  0.36580  0.80660  1.0000 0.1395742493
H   H8        1.0  0.32640  0.63420  0.19340  1.0000 0.1395742493
H   H9        1.0  0.68060  0.18490  0.93450  1.0000 0.1602377491
H   H10       1.0  0.31940  0.81510  0.06550  1.0000 0.1602377491
H   H11       1.0  0.50280  0.07370  0.87010  1.0000 0.1181793098
H   H12       1.0  0.49720  0.92630  0.12990  1.0000 0.1181793098
H   H13       1.0  0.32050  0.84900  0.77510  1.0000 0.1181793098
H   H14       1.0  0.67950  0.15100  0.22490  1.0000 0.1181793098
H   H15       1.0  0.23910  0.77060  0.84100  1.0000 0.1395742493
H   H16       1.0  0.76090  0.22940  0.15900  1.0000 0.1395742493
H   H17       1.0  0.14890  0.06400  0.92000  1.0000 0.1395742493
H   H18       1.0  0.85110  0.93600  0.08000  1.0000 0.1395742493
H   H19       1.0  0.15730  0.24200  0.91850  1.0000 0.1283056168
H   H20       1.0  0.84270  0.75800  0.08150  1.0000 0.1283056168
H   H21       1.0  0.19560  0.45790  0.81310  1.0000 0.14879192
H   H22       1.0  0.80440  0.54210  0.18690  1.0000 0.14879192
H   H23       1.0  0.26770  0.32420  0.74920  1.0000 0.1181793098
H   H24       1.0  0.73230  0.67580  0.25080  1.0000 0.1181793098
H   H25       1.0  0.05240  0.13010  0.71930  1.0000 0.1124854079
H   H26       1.0  0.94760  0.86990  0.28070  1.0000 0.1124854079
H   H27       1.0  0.86060  0.03880  0.65140  1.0000 0.1395742493
H   H28       1.0  0.13940  0.96120  0.34860  1.0000 0.1395742493
H   H29       1.0  0.04120  0.78500  0.58770  1.0000 0.1395742493
H   H30       1.0  0.95880  0.21500  0.41230  1.0000 0.1395742493
H   H31       1.0  0.23060  0.74780  0.58240  1.0000 0.14879192
H   H32       1.0  0.76940  0.25220  0.41760  1.0000 0.14879192
H   H33       1.0  0.59850  0.83470  0.66530  1.0000 0.1395742493
H   H34       1.0  0.40150  0.16530  0.33470  1.0000 0.1395742493
H   H35       1.0  0.56020  0.98430  0.73220  1.0000 0.1124854079
H   H36       1.0  0.43980  0.01570  0.26780  1.0000 0.1124854079
H   H37       1.0  0.25730  0.32550  0.31840  1.0000 0.4283187349
H   H38       1.0  0.74270  0.67450  0.68160  1.0000 0.4283187349
H   H39       1.0  0.12620  0.31770  0.33310  1.0000 0.4041748801
H   H40       1.0  0.87380  0.68230  0.66690  1.0000 0.4041748801
H   H41       1.0  0.16180  0.60120  0.39900  1.0000 0.4041748801
H   H42       1.0  0.83820  0.39880  0.60100  1.0000 0.4041748801
H   H43       1.0  0.06970  0.48940  0.38210  1.0000 0.3933394709
H   H44       1.0  0.93030  0.51060  0.61790  1.0000 0.3933394709
H   H45       1.0  0.11860  0.38580  0.51610  1.0000 0.4283187349
H   H46       1.0  0.88140  0.61420  0.48390  1.0000 0.4283187349
H   H47       1.0  0.22680  0.46700  0.56870  1.0000 0.4198074449
H   H48       1.0  0.77320  0.53300  0.43130  1.0000 0.4198074449
H   H49       1.0  0.94910  0.64400  0.81940  1.0000 0.4283187349
H   H50       1.0  0.05090  0.35600  0.18060  1.0000 0.4283187349
H   H51       1.0  0.83440  0.55650  0.81480  1.0000 0.4119829694
H   H52       1.0  0.16560  0.44350  0.18520  1.0000 0.4119829694
H   H53       1.0  0.74280  0.72320  0.96790  1.0000 0.4198074449
H   H54       1.0  0.25720  0.27680  0.03210  1.0000 0.4198074449
H   H55       1.0  0.69360  0.60980  0.91710  1.0000 0.4198074449
H   H56       1.0  0.30640  0.39020  0.08290  1.0000 0.4198074449
H   H57       1.0  0.01830  0.80060  0.06520  1.0000 0.3197758058
H   H58       1.0  0.98170  0.19940  0.93480  1.0000 0.3197758058
H   H59       1.0  0.01740  0.86190  0.02260  1.0000 0.3375837216
H   H60       1.0  0.98260  0.13810  0.97740  1.0000 0.3375837216
C   C1        1.0  0.30080  0.17240  0.62920  1.0000 0.0599260265
C   C2        1.0  0.69920  0.82760  0.37080  1.0000 0.0599260265
C   C3        1.0  0.34750  0.24090  0.59180  1.0000 -0.1099537602
C   C4        1.0  0.65250  0.75910  0.40820  1.0000 -0.1099537602
C   C5        1.0  0.45350  0.31300  0.61910  1.0000 0.0295313783
C   C6        1.0  0.54650  0.68700  0.38090  1.0000 0.0295313783
C   C7        1.0  0.52220  0.31060  0.68300  1.0000 -0.1705408137
C   C8        1.0  0.47780  0.68940  0.31700  1.0000 -0.1705408137
C   C9        1.0  0.47750  0.24160  0.71410  1.0000 0.1395742493
C   C10       1.0  0.52250  0.75840  0.28590  1.0000 0.1395742493
C   C11       1.0  0.53370  0.23120  0.77850  1.0000 0.1602377491
C   C12       1.0  0.46630  0.76880  0.22150  1.0000 0.1602377491
C   C13       1.0  0.63960  0.30650  0.81990  1.0000 -0.1845192999
C   C14       1.0  0.36040  0.69350  0.18010  1.0000 -0.1845192999
C   C15       1.0  0.69370  0.28980  0.88270  1.0000 0.0196395147
C   C16       1.0  0.30630  0.71020  0.11730  1.0000 0.0196395147
C   C17       1.0  0.64360  0.20180  0.89620  1.0000 -0.1227740729
C   C18       1.0  0.35640  0.79820  0.10380  1.0000 -0.1227740729
C   C19       1.0  0.53810  0.13210  0.85640  1.0000 0.0599260265
C   C20       1.0  0.46190  0.86790  0.14360  1.0000 0.0599260265
C   C21       1.0  0.50650  0.39200  0.58470  1.0000 0.650943459
C   C22       1.0  0.49350  0.60800  0.41530  1.0000 0.650943459
C   C23       1.0  0.80680  0.36960  0.92620  1.0000 0.6008965084
C   C24       1.0  0.19320  0.63040  0.07380  1.0000 0.6008965084
C   C25       1.0  0.28410  0.89200  0.80340  1.0000 0.0196395147
C   C26       1.0  0.71590  0.10800  0.19660  1.0000 0.0196395147
C   C27       1.0  0.23830  0.84600  0.84300  1.0000 -0.1227740729
C   C28       1.0  0.76170  0.15400  0.15700  1.0000 -0.1227740729
C   C29       1.0  0.18710  0.91110  0.88890  1.0000 0.0196395147
C   C30       1.0  0.81290  0.08890  0.11110  1.0000 0.0196395147
C   C31       1.0  0.18140  0.02000  0.89020  1.0000 -0.1639047107
C   C32       1.0  0.81860  0.98000  0.10980  1.0000 -0.1639047107
C   C33       1.0  0.22600  0.06330  0.84520  1.0000 0.1602377491
C   C34       1.0  0.77400  0.93670  0.15480  1.0000 0.1602377491
C   C35       1.0  0.22990  0.18260  0.84380  1.0000 0.1283056168
C   C36       1.0  0.77010  0.81740  0.15620  1.0000 0.1283056168
C   C37       1.0  0.18370  0.26080  0.88470  1.0000 -0.1705408137
C   C38       1.0  0.81630  0.73920  0.11530  1.0000 -0.1705408137
C   C39       1.0  0.17810  0.36490  0.87400  1.0000 0.0077690803
C   C40       1.0  0.82190  0.63510  0.12600  1.0000 0.0077690803
C   C41       1.0  0.20490  0.38940  0.82290  1.0000 -0.1301957856
C   C42       1.0  0.79510  0.61060  0.17710  1.0000 -0.1301957856
C   C43       1.0  0.24820  0.30550  0.78460  1.0000 0.0955805713
C   C44       1.0  0.75180  0.69450  0.21540  1.0000 0.0940851131
C   C45       1.0  0.13490  0.85750  0.93230  1.0000 0.6008965084
C   C46       1.0  0.86510  0.14250  0.06770  1.0000 0.6008965084
C   C47       1.0  0.12070  0.43910  0.91620  1.0000 0.6366051594
C   C48       1.0  0.87930  0.56090  0.08380  1.0000 0.6366051594
C   C49       1.0  0.04880  0.06200  0.69140  1.0000 0.0787654826
C   C50       1.0  0.95120  0.93800  0.30860  1.0000 0.0787654826
C   C51       1.0  0.93250  0.00590  0.65280  1.0000 -0.1301957856
C   C52       1.0  0.06750  0.99410  0.34720  1.0000 -0.1301957856
C   C53       1.0  0.92870  0.90270  0.61810  1.0000 0.0295313783
C   C54       1.0  0.07130  0.09730  0.38190  1.0000 0.0295313783
C   C55       1.0  0.04340  0.85440  0.61410  1.0000 -0.1705408137
C   C56       1.0  0.95660  0.14560  0.38590  1.0000 -0.1705408137
C   C57       1.0  0.15330  0.91740  0.65150  1.0000 0.1602377491
C   C58       1.0  0.84670  0.08260  0.34850  1.0000 0.1602377491
C   C59       1.0  0.27600  0.88520  0.65030  1.0000 0.1283056168
C   C60       1.0  0.72400  0.11480  0.34970  1.0000 0.1283056168
C   C61       1.0  0.29750  0.79620  0.61160  1.0000 -0.1384148663
C   C62       1.0  0.70250  0.20380  0.38840  1.0000 -0.1384148663
C   C63       1.0  0.42160  0.77380  0.61420  1.0000 0.0372755239
C   C64       1.0  0.57840  0.22620  0.38580  1.0000 0.0372755239
C   C65       1.0  0.51660  0.84780  0.66120  1.0000 -0.1301957856
C   C66       1.0  0.48340  0.15220  0.33880  1.0000 -0.1301957856
C   C67       1.0  0.49460  0.93770  0.70110  1.0000 0.0599260265
C   C68       1.0  0.50540  0.06230  0.29890  1.0000 0.0599260265
C   C69       1.0  0.80690  0.82960  0.58300  1.0000 0.5807558456
C   C70       1.0  0.19310  0.17040  0.41700  1.0000 0.5807558456
C   C71       1.0  0.45650  0.67780  0.57210  1.0000 0.6366051594
C   C72       1.0  0.54350  0.32220  0.42790  1.0000 0.6366051594
N   N1        1.0  0.36760  0.17340  0.69080  1.0000 -0.2191673694
N   N2        1.0  0.63240  0.82660  0.30920  1.0000 -0.214342176
N   N3        1.0  0.48540  0.14750  0.79790  1.0000 -0.1859283885
N   N4        1.0  0.51460  0.85250  0.20210  1.0000 -0.1845192999
N   N5        1.0  0.27970  0.00710  0.80240  1.0000 -0.2427693596
N   N6        1.0  0.72030  0.99290  0.19760  1.0000 -0.2427693596
N   N7        1.0  0.26520  0.20780  0.79030  1.0000 -0.2284125379
N   N8        1.0  0.73480  0.79220  0.20970  1.0000 -0.2191673694
N   N9        1.0  0.15600  0.02080  0.68930  1.0000 -0.2191673694
N   N10       1.0  0.84400  0.97920  0.31070  1.0000 -0.2191673694
N   N11       1.0  0.37650  0.95890  0.69520  1.0000 -0.2284125379
N   N12       1.0  0.62350  0.04110  0.30480  1.0000 -0.2284125379
N   N13       1.0  0.21160  0.84870  0.46160  1.0000 0.650943459
N   N14       1.0  0.78840  0.15130  0.53840  1.0000 0.650943459
N   N15       1.0  0.12340  0.60470  0.70890  1.0000 0.650943459
N   N16       1.0  0.87660  0.39530  0.29110  1.0000 0.650943459
N   N17       1.0  0.86180  0.03590  0.79940  1.0000 0.650943459
N   N18       1.0  0.13820  0.96410  0.20060  1.0000 0.650943459
O   O1        1.0  0.42990  0.40980  0.53790  1.0000 -0.7015930852
O   O2        1.0  0.57010  0.59020  0.46210  1.0000 -0.7015930852
O   O3        1.0  0.62180  0.43310  0.60027  1.0000 -0.6580385706
O   O4        1.0  0.37820  0.56690  0.39973  1.0000 -0.6580385706
O   O5        1.0  0.83990  0.45110  0.90970  1.0000 -0.6023994526
O   O6        1.0  0.16010  0.54890  0.09030  1.0000 -0.6023994526
O   O7        1.0  0.85570  0.34040  0.97190  1.0000 -0.5435675821
O   O8        1.0  0.14430  0.65960  0.02810  1.0000 -0.5435675821
O   O9        1.0  0.09100  0.75510  0.91830  1.0000 -0.6580385706
O   O10       1.0  0.90900  0.24490  0.08170  1.0000 -0.6580385706
O   O11       1.0  0.12880  0.92400  0.98360  1.0000 -0.5521666249
O   O12       1.0  0.87120  0.07600  0.01640  1.0000 -0.5521666249
O   O13       1.0  0.09540  0.41570  0.96330  1.0000 -0.6820458909
O   O14       1.0  0.90460  0.58430  0.03670  1.0000 -0.6820458909
O   O15       1.0  0.09170  0.52790  0.89670  1.0000 -0.6580385706
O   O16       1.0  0.90830  0.47210  0.10330  1.0000 -0.6580385706
O   O17       1.0  0.71310  0.87480  0.57170  1.0000 -0.4812622955
O   O18       1.0  0.28690  0.12520  0.42830  1.0000 -0.4812622955
O   O19       1.0  0.80480  0.72680  0.56140  1.0000 -0.7201268813
O   O20       1.0  0.19520  0.27320  0.43860  1.0000 -0.7201268813
O   O21       1.0  0.36340  0.62230  0.52900  1.0000 -0.6284521064
O   O22       1.0  0.63660  0.37770  0.47100  1.0000 -0.6284521064
O   O23       1.0  0.55620  0.64690  0.58700  1.0000 -0.6284521064
O   O24       1.0  0.44380  0.35310  0.41300  1.0000 -0.6284521064
O   O25       1.0  0.20140  0.36660  0.33760  1.0000 -0.8110771617
O   O26       1.0  0.79860  0.63340  0.66240  1.0000 -0.8110771617
O   O27       1.0  0.13270  0.54080  0.41530  1.0000 -0.8110771617
O   O28       1.0  0.86730  0.45920  0.58470  1.0000 -0.8110771617
O   O29       1.0  0.17400  0.45480  0.52620  1.0000 -0.7934956094
O   O30       1.0  0.82600  0.54520  0.47380  1.0000 -0.7934956094
O   O31       1.0  0.88060  0.62850  0.83720  1.0000 -0.7992068967
O   O32       1.0  0.11940  0.37150  0.16280  1.0000 -0.7992068967
O   O33       1.0  0.75320  0.67670  0.92960  1.0000 -0.8110771617
O   O34       1.0  0.24680  0.32330  0.07040  1.0000 -0.8110771617
O   O35       1.0  0.97920  0.81000  0.02530  1.0000 -0.7403932651
O   O36       1.0  0.02080  0.19000  0.97470  1.0000 -0.7403932651
O   O37       1.0  0.31650  0.89710  0.47760  1.0000 -0.3545288285
O   O38       1.0  0.18970  0.74790  0.43760  1.0000 -0.4003640255
O   O39       1.0  0.12380  0.89870  0.46850  1.0000 -0.4003640255
O   O40       1.0  0.68350  0.10290  0.52240  1.0000 -0.3545288285
O   O41       1.0  0.81030  0.25210  0.56240  1.0000 -0.4003640255
O   O42       1.0  0.87620  0.10130  0.53150  1.0000 -0.4003640255
O   O43       1.0  0.03860  0.62360  0.73490  1.0000 -0.4158013901
O   O44       1.0  0.21170  0.57090  0.73830  1.0000 -0.3887589565
O   O45       1.0  0.12500  0.62890  0.65840  1.0000 -0.4003640255
O   O46       1.0  0.96140  0.37640  0.26510  1.0000 -0.4149232647
O   O47       1.0  0.78830  0.42910  0.26170  1.0000 -0.3887589565
O   O48       1.0  0.87500  0.37110  0.34160  1.0000 -0.4003640255
O   O49       1.0  0.90210  0.94780  0.79720  1.0000 -0.3887589565
O   O50       1.0  0.90920  0.11680  0.84440  1.0000 -0.4149232647
O   O51       1.0  0.77510  0.04590  0.75810  1.0000 -0.3887589565
O   O52       1.0  0.09790  0.05220  0.20280  1.0000 -0.3887589565
O   O53       1.0  0.09080  0.88320  0.15560  1.0000 -0.4158013901
O   O54       1.0  0.22490  0.95410  0.24190  1.0000 -0.3887589565
