# DDEC6 charges by PACMAN v1.1 (https://github.com/mtap-research/PACMAN-charge/)
data_2011[FeAg][nan]3[ION]2
_chemical_formula_sum              "Fe4 Ag4 H44 C54 N20 Cl4 O40"
_cell_length_a       18.8259
_cell_length_b       18.8259
_cell_length_c       18.6868
_cell_angle_alpha    60.8222
_cell_angle_beta     119.178
_cell_angle_gamma    155.308

_symmetry_space_group_name_H-M    "P 1"
_symmetry_Int_Tables_number       1

loop_
  _symmetry_equiv_pos_as_xyz
  'x, y, z'

loop_
  _atom_site_type_symbol
  _atom_site_label
  _atom_site_symmetry_multiplicity
  _atom_site_fract_x
  _atom_site_fract_y
  _atom_site_fract_z
  _atom_site_occupancy
  _atom_site_charge
Fe  Fe1       1.0  0.83470  0.04790  0.18820  1.0000 0.9214704726
Fe  Fe2       1.0  0.95210  0.16530  0.68820  1.0000 0.9214704726
Fe  Fe3       1.0  0.44590  0.43430  0.37930  1.0000 0.8619929347
Fe  Fe4       1.0  0.56570  0.55410  0.87930  1.0000 0.8619929347
Ag  Ag1       1.0  0.96440  0.79580  0.16940  1.0000 0.3690710757
Ag  Ag2       1.0  0.20420  0.03560  0.66940  1.0000 0.3690710757
Ag  Ag3       1.0  0.19320  0.56280  0.39450  1.0000 0.3250213061
Ag  Ag4       1.0  0.43720  0.80680  0.89450  1.0000 0.3250213061
H   H1        1.0  0.30300  0.82440  0.38190  1.0000 0.1294672219
H   H2        1.0  0.17560  0.69700  0.88190  1.0000 0.1294672219
H   H3        1.0  0.89490  0.42630  0.26240  1.0000 0.138755979
H   H4        1.0  0.57370  0.10510  0.76240  1.0000 0.138755979
H   H5        1.0  0.82750  0.50170  0.20000  1.0000 0.138755979
H   H6        1.0  0.49830  0.17250  0.70000  1.0000 0.138755979
H   H7        1.0  0.39620  0.68520  0.29500  1.0000 0.1294672219
H   H8        1.0  0.31480  0.60380  0.79500  1.0000 0.1294672219
H   H9        1.0  0.07190  0.27630  0.45400  1.0000 0.1222727735
H   H10       1.0  0.72370  0.92810  0.95400  1.0000 0.1222727735
H   H11       1.0  0.16010  0.23670  0.46630  1.0000 0.1222727735
H   H12       1.0  0.76330  0.83990  0.96630  1.0000 0.1222727735
H   H13       1.0  0.02210  0.40750  0.91570  1.0000 0.138755979
H   H14       1.0  0.59250  0.97790  0.41570  1.0000 0.138755979
H   H15       1.0  0.41550  0.69890  0.08650  1.0000 0.1294672219
H   H16       1.0  0.30110  0.58450  0.58650  1.0000 0.1294672219
H   H17       1.0  0.25030  0.46910  0.18500  1.0000 0.1222727735
H   H18       1.0  0.53090  0.74970  0.68500  1.0000 0.1222727735
H   H19       1.0  0.09000  0.00740  0.26300  1.0000 0.138755979
H   H20       1.0  0.99260  0.91000  0.76300  1.0000 0.138755979
H   H21       1.0  0.66720  0.67580  0.11010  1.0000 0.1222727735
H   H22       1.0  0.32420  0.33280  0.61010  1.0000 0.1222727735
H   H23       1.0  0.62810  0.76190  0.10710  1.0000 0.1294672219
H   H24       1.0  0.23810  0.37190  0.60710  1.0000 0.1294672219
H   H25       1.0  0.81860  0.62940  0.65190  1.0000 0.1456015278
H   H26       1.0  0.37060  0.18140  0.15190  1.0000 0.1456015278
H   H27       1.0  0.08710  0.01830  0.47410  1.0000 0.1294672219
H   H28       1.0  0.98170  0.91290  0.97410  1.0000 0.1294672219
H   H29       1.0  0.84550  0.83990  0.38180  1.0000 0.1222727735
H   H30       1.0  0.16010  0.15450  0.88180  1.0000 0.1222727735
H   H31       1.0  0.42340  0.36700  0.22370  1.0000 0.1294672219
H   H32       1.0  0.63300  0.57660  0.72370  1.0000 0.1294672219
H   H33       1.0  0.59180  0.46160  0.24650  1.0000 0.1137801726
H   H34       1.0  0.53840  0.40820  0.74650  1.0000 0.1137801726
H   H35       1.0  0.42750  0.27710  0.29380  1.0000 0.1294672219
H   H36       1.0  0.72290  0.57250  0.79380  1.0000 0.1294672219
H   H37       1.0  0.76790  0.02050  0.32980  1.0000 0.0994293932
H   H38       1.0  0.97950  0.23210  0.82980  1.0000 0.0994293932
H   H39       1.0  0.86210  0.18690  0.31400  1.0000 0.1137801726
H   H40       1.0  0.81310  0.13790  0.81400  1.0000 0.1137801726
H   H41       1.0  0.67060  0.01980  0.27150  1.0000 0.1294672219
H   H42       1.0  0.98020  0.32940  0.77150  1.0000 0.1294672219
H   H43       1.0  0.62660  0.48740  0.36690  1.0000 0.3467746172
H   H44       1.0  0.51260  0.37340  0.86690  1.0000 0.3467746172
C   C1        1.0  0.15410  0.79350  0.31170  1.0000 0.0994293932
C   C2        1.0  0.20650  0.84590  0.81170  1.0000 0.0994293932
C   C3        1.0  0.20150  0.75370  0.34410  1.0000 0.041778982
C   C4        1.0  0.24630  0.79850  0.84410  1.0000 0.041778982
C   C5        1.0  0.97010  0.52790  0.27460  1.0000 0.0468524117
C   C6        1.0  0.47210  0.02990  0.77460  1.0000 0.0468524117
C   C7        1.0  0.92640  0.56960  0.23990  1.0000 0.041778982
C   C8        1.0  0.43040  0.07360  0.73990  1.0000 0.041778982
C   C9        1.0  0.25880  0.94520  0.33070  1.0000 0.5404174719
C   C10       1.0  0.05480  0.74120  0.83070  1.0000 0.5404174719
C   C11       1.0  0.40080  0.56720  0.33830  1.0000 0.0599764381
C   C12       1.0  0.43280  0.59920  0.83830  1.0000 0.0599764381
C   C13       1.0  0.34520  0.59080  0.33120  1.0000 0.0079148886
C   C14       1.0  0.40920  0.65480  0.83120  1.0000 0.0079148886
C   C15       1.0  0.15870  0.35530  0.42250  1.0000 -0.0122727006
C   C16       1.0  0.64470  0.84130  0.92250  1.0000 -0.0122727006
C   C17       1.0  0.21210  0.33190  0.43000  1.0000 0.041778982
C   C18       1.0  0.66810  0.78790  0.93000  1.0000 0.041778982
C   C19       1.0  0.53950  0.68850  0.29080  1.0000 0.5340982471
C   C20       1.0  0.31150  0.46050  0.79080  1.0000 0.5340982471
C   C21       1.0  0.97010  0.28190  0.03110  1.0000 0.0599764381
C   C22       1.0  0.71810  0.02990  0.53110  1.0000 0.0599764381
C   C23       1.0  0.07260  0.42340  0.97160  1.0000 0.041778982
C   C24       1.0  0.57660  0.92740  0.47160  1.0000 0.041778982
C   C25       1.0  0.29800  0.59000  0.07020  1.0000 0.0079148886
C   C26       1.0  0.41000  0.70200  0.57020  1.0000 0.0079148886
C   C27       1.0  0.19940  0.45260  0.12920  1.0000 0.0599764381
C   C28       1.0  0.54740  0.80060  0.62920  1.0000 0.0599764381
C   C29       1.0  0.77780  0.10820  0.01450  1.0000 0.5404174719
C   C30       1.0  0.89180  0.22220  0.51450  1.0000 0.5404174719
C   C31       1.0  0.97130  0.00870  0.22920  1.0000 0.0796251912
C   C32       1.0  0.99130  0.02870  0.72920  1.0000 0.0796251912
C   C33       1.0  0.99320  0.95480  0.23020  1.0000 0.041778982
C   C34       1.0  0.04520  0.00680  0.73020  1.0000 0.041778982
C   C35       1.0  0.74860  0.76340  0.14190  1.0000 0.0165147092
C   C36       1.0  0.23660  0.25140  0.64190  1.0000 0.0165147092
C   C37       1.0  0.72530  0.81470  0.13990  1.0000 0.0468524117
C   C38       1.0  0.18530  0.27470  0.63990  1.0000 0.0468524117
C   C39       1.0  0.08330  0.13470  0.28390  1.0000 0.5340982471
C   C40       1.0  0.86530  0.91670  0.78390  1.0000 0.5340982471
C   C41       1.0  0.67710  0.56490  0.53910  1.0000 0.0927786622
C   C42       1.0  0.43510  0.32290  0.03910  1.0000 0.0927786622
C   C43       1.0  0.82550  0.67450  0.59570  1.0000 0.0599764381
C   C44       1.0  0.32550  0.17450  0.09570  1.0000 0.0599764381
C   C45       1.0  0.98160  0.90040  0.49260  1.0000 0.041778982
C   C46       1.0  0.09960  0.01840  0.99260  1.0000 0.041778982
C   C47       1.0  0.83780  0.79420  0.43780  1.0000 0.0165147092
C   C48       1.0  0.20580  0.16220  0.93780  1.0000 0.0165147092
C   C49       1.0  0.50140  0.37860  0.56160  1.0000 0.5340982471
C   C50       1.0  0.62140  0.49860  0.06160  1.0000 0.5340982471
C   C51       1.0  0.49540  0.38660  0.26900  1.0000 -0.2077689922
C   C52       1.0  0.61340  0.50460  0.76900  1.0000 -0.2077689922
C   C53       1.0  0.78190  0.09010  0.28910  1.0000 -0.2077689922
C   C54       1.0  0.90990  0.21810  0.78910  1.0000 -0.2077689922
N   N1        1.0  0.01710  0.70350  0.25950  1.0000 -0.1828368362
N   N2        1.0  0.29650  0.98290  0.75950  1.0000 -0.1828368362
N   N3        1.0  0.11480  0.62520  0.32550  1.0000 -0.1561835613
N   N4        1.0  0.37480  0.88520  0.82550  1.0000 -0.1561835613
N   N5        1.0  0.33510  0.43690  0.38780  1.0000 -0.2176386546
N   N6        1.0  0.56310  0.66490  0.88780  1.0000 -0.2176386546
N   N7        1.0  0.22260  0.48540  0.37290  1.0000 -0.1318435576
N   N8        1.0  0.51460  0.77740  0.87290  1.0000 -0.1318435576
N   N9        1.0  0.03099  0.29301  0.11140  1.0000 -0.2077689922
N   N10       1.0  0.70699  0.96901  0.61140  1.0000 -0.2077689922
N   N11       1.0  0.23710  0.57890  0.98970  1.0000 -0.1714584957
N   N12       1.0  0.42110  0.76290  0.48970  1.0000 -0.1714584957
N   N13       1.0  0.83830  0.93970  0.18440  1.0000 -0.2176386546
N   N14       1.0  0.06030  0.16170  0.68440  1.0000 -0.2176386546
N   N15       1.0  0.88340  0.83260  0.18700  1.0000 -0.1489047911
N   N16       1.0  0.16740  0.11660  0.68700  1.0000 -0.1489047911
N   N17       1.0  0.68107  0.62293  0.45950  1.0000 -0.2387870159
N   N18       1.0  0.37707  0.31893  0.95950  1.0000 -0.2387870159
N   N19       1.0  0.97780  0.84220  0.57250  1.0000 -0.1406394448
N   N20       1.0  0.15780  0.02220  0.07250  1.0000 -0.1406394448
Cl  Cl1       1.0  0.49430  0.09430  0.18930  1.0000 1.2316031251
Cl  Cl2       1.0  0.90570  0.50570  0.68930  1.0000 1.2316031251
Cl  Cl3       1.0  0.19670  0.30130  0.03390  1.0000 1.2111207042
Cl  Cl4       1.0  0.69870  0.80330  0.53390  1.0000 1.2111207042
O   O1        1.0  0.35410  0.97990  0.40330  1.0000 -0.4968532082
O   O2        1.0  0.02010  0.64590  0.90330  1.0000 -0.4968532082
O   O3        1.0  0.22340  0.98460  0.29460  1.0000 -0.4810004588
O   O4        1.0  0.01540  0.77660  0.79460  1.0000 -0.4810004588
O   O5        1.0  0.56580  0.64220  0.29250  1.0000 -0.5385849382
O   O6        1.0  0.35780  0.43420  0.79250  1.0000 -0.5385849382
O   O7        1.0  0.59510  0.80890  0.23800  1.0000 -0.5288280454
O   O8        1.0  0.19110  0.40490  0.73800  1.0000 -0.5288280454
O   O9        1.0  0.72610  0.08790  0.93660  1.0000 -0.524221858
O   O10       1.0  0.91210  0.27390  0.43660  1.0000 -0.524221858
O   O11       1.0  0.70720  0.99480  0.07500  1.0000 -0.5117243733
O   O12       1.0  0.00520  0.29280  0.57500  1.0000 -0.5117243733
O   O13       1.0  0.03870  0.15930  0.27700  1.0000 -0.4710639622
O   O14       1.0  0.84070  0.96130  0.77700  1.0000 -0.4710639622
O   O15       1.0  0.21730  0.21670  0.31740  1.0000 -0.4615342822
O   O16       1.0  0.78330  0.78270  0.81740  1.0000 -0.4615342822
O   O17       1.0  0.38290  0.29510  0.50150  1.0000 -0.5385849382
O   O18       1.0  0.70490  0.61710  0.00150  1.0000 -0.5385849382
O   O19       1.0  0.48820  0.31380  0.63250  1.0000 -0.4530650284
O   O20       1.0  0.68620  0.51180  0.13250  1.0000 -0.4530650284
O   O21       1.0  0.56140  0.46860  0.33110  1.0000 -0.3577822056
O   O22       1.0  0.53140  0.43860  0.83110  1.0000 -0.3577822056
O   O23       1.0  0.84930  0.15470  0.21750  1.0000 -0.3663340267
O   O24       1.0  0.84530  0.15070  0.71750  1.0000 -0.3663340267
O   O25       1.0  0.49430  0.13970  0.23820  1.0000 -0.4968532082
O   O26       1.0  0.56280  0.08320  0.23340  1.0000 -0.3853593971
O   O27       1.0  0.59900  0.22700  0.12800  1.0000 -0.3996433225
O   O28       1.0  0.30890  0.93710  0.15020  1.0000 -0.4810004588
O   O29       1.0  0.86030  0.50570  0.73820  1.0000 -0.4968532082
O   O30       1.0  0.91680  0.43720  0.73340  1.0000 -0.3853593971
O   O31       1.0  0.77300  0.40100  0.62800  1.0000 -0.3996433225
O   O32       1.0  0.06290  0.69110  0.65020  1.0000 -0.4810004588
O   O33       1.0  0.24560  0.33920  0.12620  1.0000 -0.5653149094
O   O34       1.0  0.07880  0.14120  0.04580  1.0000 -0.3853593971
O   O35       1.0  0.36220  0.41680  0.03020  1.0000 -0.4968532082
O   O36       1.0  0.17580  0.35820  0.98580  1.0000 -0.3484057393
O   O37       1.0  0.66080  0.75440  0.62620  1.0000 -0.5653149094
O   O38       1.0  0.85880  0.92120  0.54580  1.0000 -0.3853593971
O   O39       1.0  0.58320  0.63780  0.53020  1.0000 -0.4968532082
O   O40       1.0  0.64180  0.82420  0.48580  1.0000 -0.3484057393
