# DDEC6 charges by PACMAN v1.1 (https://github.com/mtap-research/PACMAN-charge/)
data_2011[SiCa][nan]3[ION]1
_chemical_formula_sum              "Ca6 Si4 H148 C144 O48"
_cell_length_a       13.6691
_cell_length_b       23.6874
_cell_length_c       14.569
_cell_angle_alpha    90
_cell_angle_beta     114.939
_cell_angle_gamma    90

_symmetry_space_group_name_H-M    "P 1"
_symmetry_Int_Tables_number       1

loop_
  _symmetry_equiv_pos_as_xyz
  'x, y, z'

loop_
  _atom_site_type_symbol
  _atom_site_label
  _atom_site_symmetry_multiplicity
  _atom_site_fract_x
  _atom_site_fract_y
  _atom_site_fract_z
  _atom_site_occupancy
  _atom_site_charge
Ca  Ca1       1.0  0.00000  0.50000  0.00000  1.0000 1.4083935643
Ca  Ca2       1.0  0.00000  0.00000  0.50000  1.0000 1.4083935643
Ca  Ca3       1.0  0.01577  0.65686  0.00132  1.0000 1.3016334498
Ca  Ca4       1.0  0.98423  0.15686  0.49868  1.0000 1.3016334498
Ca  Ca5       1.0  0.98423  0.34314  0.99868  1.0000 1.3016334498
Ca  Ca6       1.0  0.01577  0.84314  0.50132  1.0000 1.3016334498
Si  Si1       1.0  0.70684  0.50911  0.37959  1.0000 0.6681787098
Si  Si2       1.0  0.29316  0.00911  0.12041  1.0000 0.6681787098
Si  Si3       1.0  0.29316  0.49089  0.62041  1.0000 0.6681787098
Si  Si4       1.0  0.70684  0.99089  0.87959  1.0000 0.6681787098
H   H1        1.0  0.87400  0.59970  0.41740  1.0000 0.121242685
H   H2        1.0  0.12600  0.09970  0.08260  1.0000 0.121242685
H   H3        1.0  0.12600  0.40030  0.58260  1.0000 0.121242685
H   H4        1.0  0.87400  0.90030  0.91740  1.0000 0.121242685
H   H5        1.0  0.96760  0.63460  0.32760  1.0000 0.137646359
H   H6        1.0  0.03240  0.13460  0.17240  1.0000 0.137646359
H   H7        1.0  0.03240  0.36540  0.67240  1.0000 0.137646359
H   H8        1.0  0.96760  0.86540  0.82760  1.0000 0.137646359
H   H9        1.0  0.81910  0.51970  0.10630  1.0000 0.137646359
H   H10       1.0  0.18090  0.01970  0.39370  1.0000 0.137646359
H   H11       1.0  0.18090  0.48030  0.89370  1.0000 0.137646359
H   H12       1.0  0.81910  0.98030  0.60630  1.0000 0.137646359
H   H13       1.0  0.72610  0.48510  0.19600  1.0000 0.1301601468
H   H14       1.0  0.27390  0.98510  0.30400  1.0000 0.1301601468
H   H15       1.0  0.27390  0.51490  0.80400  1.0000 0.1301601468
H   H16       1.0  0.72610  0.01490  0.69600  1.0000 0.1301601468
H   H17       1.0  0.58910  0.58360  0.20750  1.0000 0.121242685
H   H18       1.0  0.41090  0.08360  0.29250  1.0000 0.121242685
H   H19       1.0  0.41090  0.41640  0.79250  1.0000 0.121242685
H   H20       1.0  0.58910  0.91640  0.70750  1.0000 0.121242685
H   H21       1.0  0.40990  0.61030  0.11400  1.0000 0.137646359
H   H22       1.0  0.59010  0.11030  0.38600  1.0000 0.137646359
H   H23       1.0  0.59010  0.38970  0.88600  1.0000 0.137646359
H   H24       1.0  0.40990  0.88970  0.61400  1.0000 0.137646359
H   H25       1.0  0.31930  0.50770  0.28710  1.0000 0.1301601468
H   H26       1.0  0.68070  0.00770  0.21290  1.0000 0.1301601468
H   H27       1.0  0.68070  0.49230  0.71290  1.0000 0.1301601468
H   H28       1.0  0.31930  0.99230  0.78710  1.0000 0.1301601468
H   H29       1.0  0.49940  0.48760  0.38850  1.0000 0.121242685
H   H30       1.0  0.50060  0.98760  0.11150  1.0000 0.121242685
H   H31       1.0  0.50060  0.51240  0.61150  1.0000 0.121242685
H   H32       1.0  0.49940  0.01240  0.88850  1.0000 0.121242685
H   H33       1.0  0.88790  0.48020  0.57130  1.0000 0.121242685
H   H34       1.0  0.11210  0.98020  0.92870  1.0000 0.121242685
H   H35       1.0  0.11210  0.51980  0.42870  1.0000 0.121242685
H   H36       1.0  0.88790  0.01980  0.07130  1.0000 0.121242685
H   H37       1.0  0.95980  0.51310  0.73670  1.0000 0.121242685
H   H38       1.0  0.04020  0.01310  0.76330  1.0000 0.121242685
H   H39       1.0  0.04020  0.48690  0.26330  1.0000 0.121242685
H   H40       1.0  0.95980  0.98690  0.23670  1.0000 0.121242685
H   H41       1.0  0.71820  0.62690  0.66040  1.0000 0.1301601468
H   H42       1.0  0.28180  0.12690  0.83960  1.0000 0.1301601468
H   H43       1.0  0.28180  0.37310  0.33960  1.0000 0.1301601468
H   H44       1.0  0.71820  0.87310  0.16040  1.0000 0.1301601468
H   H45       1.0  0.64590  0.59340  0.49430  1.0000 0.121242685
H   H46       1.0  0.35410  0.09340  0.00570  1.0000 0.121242685
H   H47       1.0  0.35410  0.40660  0.50570  1.0000 0.121242685
H   H48       1.0  0.64590  0.90660  0.99430  1.0000 0.121242685
H   H49       1.0  0.56420  0.40580  0.31990  1.0000 0.121242685
H   H50       1.0  0.43580  0.90580  0.18010  1.0000 0.121242685
H   H51       1.0  0.43580  0.59420  0.68010  1.0000 0.121242685
H   H52       1.0  0.56420  0.09420  0.81990  1.0000 0.121242685
H   H53       1.0  0.59530  0.30840  0.32690  1.0000 0.137646359
H   H54       1.0  0.40470  0.80840  0.17310  1.0000 0.137646359
H   H55       1.0  0.40470  0.69160  0.67310  1.0000 0.137646359
H   H56       1.0  0.59530  0.19160  0.82690  1.0000 0.137646359
H   H57       1.0  0.91670  0.33720  0.43700  1.0000 0.1301601468
H   H58       1.0  0.08330  0.83720  0.06300  1.0000 0.1301601468
H   H59       1.0  0.08330  0.66280  0.56300  1.0000 0.1301601468
H   H60       1.0  0.91670  0.16280  0.93700  1.0000 0.1301601468
H   H61       1.0  0.88530  0.43390  0.42610  1.0000 0.1125235275
H   H62       1.0  0.11470  0.93390  0.07390  1.0000 0.1125235275
H   H63       1.0  0.11470  0.56610  0.57390  1.0000 0.1125235275
H   H64       1.0  0.88530  0.06610  0.92610  1.0000 0.1125235275
H   H65       1.0  0.72900  0.18240  0.37700  1.0000 0.3714183146
H   H66       1.0  0.27100  0.68240  0.12300  1.0000 0.3714183146
H   H67       1.0  0.27100  0.81760  0.62300  1.0000 0.3714183146
H   H68       1.0  0.72900  0.31760  0.87700  1.0000 0.3714183146
H   H69       1.0  0.07670  0.62690  0.78820  1.0000 0.0789585312
H   H70       1.0  0.92330  0.12690  0.71180  1.0000 0.0789585312
H   H71       1.0  0.92330  0.37310  0.21180  1.0000 0.0789585312
H   H72       1.0  0.07670  0.87310  0.28820  1.0000 0.0789585312
H   H73       1.0  0.11590  0.68530  0.76030  1.0000 0.0877119555
H   H74       1.0  0.88410  0.18530  0.73970  1.0000 0.0877119555
H   H75       1.0  0.88410  0.31470  0.23970  1.0000 0.0877119555
H   H76       1.0  0.11590  0.81470  0.26030  1.0000 0.0877119555
H   H77       1.0  0.25650  0.62240  0.82200  1.0000 0.1125235275
H   H78       1.0  0.74350  0.12240  0.67800  1.0000 0.1125235275
H   H79       1.0  0.74350  0.37760  0.17800  1.0000 0.1125235275
H   H80       1.0  0.25650  0.87760  0.32200  1.0000 0.1125235275
H   H81       1.0  0.28130  0.67500  0.89740  1.0000 0.137646359
H   H82       1.0  0.71870  0.17500  0.60260  1.0000 0.137646359
H   H83       1.0  0.71870  0.32500  0.10260  1.0000 0.137646359
H   H84       1.0  0.28130  0.82500  0.39740  1.0000 0.137646359
H   H85       1.0  0.24200  0.61640  0.92490  1.0000 0.1301601468
H   H86       1.0  0.75800  0.11640  0.57510  1.0000 0.1301601468
H   H87       1.0  0.75800  0.38360  0.07510  1.0000 0.1301601468
H   H88       1.0  0.24200  0.88360  0.42490  1.0000 0.1301601468
H   H89       1.0  0.96830  0.76470  0.12850  1.0000 0.0995593971
H   H90       1.0  0.03170  0.26470  0.37150  1.0000 0.0995593971
H   H91       1.0  0.03170  0.23530  0.87150  1.0000 0.0995593971
H   H92       1.0  0.96830  0.73530  0.62850  1.0000 0.0995593971
H   H93       1.0  0.87510  0.80320  0.04900  1.0000 0.0789585312
H   H94       1.0  0.12490  0.30320  0.45100  1.0000 0.0789585312
H   H95       1.0  0.12490  0.19680  0.95100  1.0000 0.0789585312
H   H96       1.0  0.87510  0.69680  0.54900  1.0000 0.0789585312
H   H97       1.0  0.83310  0.77800  0.17990  1.0000 0.1301601468
H   H98       1.0  0.16690  0.27800  0.32010  1.0000 0.1301601468
H   H99       1.0  0.16690  0.22200  0.82010  1.0000 0.1301601468
H   H100      1.0  0.83310  0.72200  0.67990  1.0000 0.1301601468
H   H101      1.0  0.74700  0.75130  0.07640  1.0000 0.1301601468
H   H102      1.0  0.25300  0.25130  0.42360  1.0000 0.1301601468
H   H103      1.0  0.25300  0.24870  0.92360  1.0000 0.1301601468
H   H104      1.0  0.74700  0.74870  0.57640  1.0000 0.1301601468
H   H105      1.0  0.84020  0.71250  0.15590  1.0000 0.137646359
H   H106      1.0  0.15980  0.21250  0.34410  1.0000 0.137646359
H   H107      1.0  0.15980  0.28750  0.84410  1.0000 0.137646359
H   H108      1.0  0.84020  0.78750  0.65590  1.0000 0.137646359
H   H109      1.0  0.71200  0.88830  0.47540  1.0000 0.0995593971
H   H110      1.0  0.66590  0.94230  0.40450  1.0000 0.0877119555
H   H111      1.0  0.57320  0.92500  0.49560  1.0000 0.1125235275
H   H112      1.0  0.54320  0.86330  0.44720  1.0000 0.137646359
H   H113      1.0  0.49780  0.91790  0.37740  1.0000 0.121242685
H   H114      1.0  0.28800  0.38830  0.02460  1.0000 0.0995593971
H   H115      1.0  0.33410  0.44230  0.09550  1.0000 0.0877119555
H   H116      1.0  0.42680  0.42500  0.00440  1.0000 0.1125235275
H   H117      1.0  0.45680  0.36330  0.05280  1.0000 0.137646359
H   H118      1.0  0.50220  0.41790  0.12260  1.0000 0.121242685
H   H119      1.0  0.28800  0.11170  0.52460  1.0000 0.0995593971
H   H120      1.0  0.33410  0.05770  0.59550  1.0000 0.0877119555
H   H121      1.0  0.42680  0.07500  0.50440  1.0000 0.1125235275
H   H122      1.0  0.45680  0.13670  0.55280  1.0000 0.137646359
H   H123      1.0  0.50220  0.08210  0.62260  1.0000 0.121242685
H   H124      1.0  0.71200  0.61170  0.97540  1.0000 0.0995593971
H   H125      1.0  0.66590  0.55770  0.90450  1.0000 0.0877119555
H   H126      1.0  0.57320  0.57500  0.99560  1.0000 0.1125235275
H   H127      1.0  0.54320  0.63670  0.94720  1.0000 0.137646359
H   H128      1.0  0.49780  0.58210  0.87740  1.0000 0.121242685
H   H129      1.0  0.28910  0.71240  0.43040  1.0000 0.0877119555
H   H130      1.0  0.25620  0.70960  0.31140  1.0000 0.0877119555
H   H131      1.0  0.34250  0.62940  0.38850  1.0000 0.1125235275
H   H132      1.0  0.22060  0.61530  0.31210  1.0000 0.137646359
H   H133      1.0  0.25390  0.61820  0.43130  1.0000 0.121242685
H   H134      1.0  0.71090  0.21240  0.06960  1.0000 0.0877119555
H   H135      1.0  0.74380  0.20960  0.18860  1.0000 0.0877119555
H   H136      1.0  0.65750  0.12940  0.11150  1.0000 0.1125235275
H   H137      1.0  0.77940  0.11530  0.18790  1.0000 0.137646359
H   H138      1.0  0.74610  0.11820  0.06870  1.0000 0.121242685
H   H139      1.0  0.71090  0.28760  0.56960  1.0000 0.0877119555
H   H140      1.0  0.74380  0.29040  0.68860  1.0000 0.0877119555
H   H141      1.0  0.65750  0.37060  0.61150  1.0000 0.1125235275
H   H142      1.0  0.77940  0.38470  0.68790  1.0000 0.137646359
H   H143      1.0  0.74610  0.38180  0.56870  1.0000 0.121242685
H   H144      1.0  0.28910  0.78760  0.93040  1.0000 0.0877119555
H   H145      1.0  0.25620  0.79040  0.81140  1.0000 0.0877119555
H   H146      1.0  0.34250  0.87060  0.88850  1.0000 0.1125235275
H   H147      1.0  0.22060  0.88470  0.81210  1.0000 0.137646359
H   H148      1.0  0.25390  0.88180  0.93130  1.0000 0.121242685
C   C1        1.0  0.78938  0.53890  0.31632  1.0000 -0.2054755608
C   C2        1.0  0.21062  0.03890  0.18368  1.0000 -0.2054755608
C   C3        1.0  0.21062  0.46110  0.68368  1.0000 -0.2054755608
C   C4        1.0  0.78938  0.96110  0.81632  1.0000 -0.2054755608
C   C5        1.0  0.86220  0.58338  0.35405  1.0000 -0.0709866149
C   C6        1.0  0.13780  0.08338  0.14595  1.0000 -0.0709866149
C   C7        1.0  0.13780  0.41662  0.64595  1.0000 -0.0709866149
C   C8        1.0  0.86220  0.91662  0.85405  1.0000 -0.0709866149
C   C9        1.0  0.91800  0.60433  0.30055  1.0000 -0.0818800321
C   C10       1.0  0.08200  0.10433  0.19945  1.0000 -0.0818800321
C   C11       1.0  0.08200  0.39567  0.69945  1.0000 -0.0818800321
C   C12       1.0  0.91800  0.89567  0.80055  1.0000 -0.0818800321
C   C13       1.0  0.90125  0.58109  0.20763  1.0000 -0.0216123731
C   C14       1.0  0.09875  0.08109  0.29237  1.0000 -0.0216123731
C   C15       1.0  0.09875  0.41891  0.79237  1.0000 -0.0216123731
C   C16       1.0  0.90125  0.91891  0.70763  1.0000 -0.0216123731
C   C17       1.0  0.83000  0.53626  0.16930  1.0000 -0.0893128103
C   C18       1.0  0.17000  0.03626  0.33070  1.0000 -0.0893128103
C   C19       1.0  0.17000  0.46374  0.83070  1.0000 -0.0893128103
C   C20       1.0  0.83000  0.96374  0.66930  1.0000 -0.0893128103
C   C21       1.0  0.77488  0.51569  0.22299  1.0000 -0.0818800321
C   C22       1.0  0.22512  0.01569  0.27701  1.0000 -0.0818800321
C   C23       1.0  0.22512  0.48431  0.77701  1.0000 -0.0818800321
C   C24       1.0  0.77488  0.98431  0.72299  1.0000 -0.0818800321
C   C25       1.0  0.95848  0.60336  0.14699  1.0000 0.5631582165
C   C26       1.0  0.04152  0.10336  0.35301  1.0000 0.5631582165
C   C27       1.0  0.04152  0.39664  0.85301  1.0000 0.5631582165
C   C28       1.0  0.95848  0.89664  0.64699  1.0000 0.5631582165
C   C29       1.0  0.56374  0.53164  0.30735  1.0000 -0.2023587649
C   C30       1.0  0.43626  0.03164  0.19265  1.0000 -0.2023587649
C   C31       1.0  0.43626  0.46836  0.69265  1.0000 -0.2023587649
C   C32       1.0  0.56374  0.96836  0.80735  1.0000 -0.2023587649
C   C33       1.0  0.53458  0.56864  0.22471  1.0000 -0.0709866149
C   C34       1.0  0.46542  0.06864  0.27529  1.0000 -0.0709866149
C   C35       1.0  0.46542  0.43136  0.77529  1.0000 -0.0709866149
C   C36       1.0  0.53458  0.93136  0.72471  1.0000 -0.0709866149
C   C37       1.0  0.42751  0.58380  0.16756  1.0000 -0.1079659922
C   C38       1.0  0.57249  0.08380  0.33244  1.0000 -0.1079659922
C   C39       1.0  0.57249  0.41620  0.83244  1.0000 -0.1079659922
C   C40       1.0  0.42751  0.91620  0.66756  1.0000 -0.1079659922
C   C41       1.0  0.34662  0.56021  0.18880  1.0000 -0.0216123731
C   C42       1.0  0.65338  0.06021  0.31120  1.0000 -0.0216123731
C   C43       1.0  0.65338  0.43979  0.81120  1.0000 -0.0216123731
C   C44       1.0  0.34662  0.93979  0.68880  1.0000 -0.0216123731
C   C45       1.0  0.37420  0.52376  0.27147  1.0000 -0.0818800321
C   C46       1.0  0.62580  0.02376  0.22853  1.0000 -0.0818800321
C   C47       1.0  0.62580  0.47624  0.72853  1.0000 -0.0818800321
C   C48       1.0  0.37420  0.97624  0.77147  1.0000 -0.0818800321
C   C49       1.0  0.48148  0.51101  0.33065  1.0000 -0.0709866149
C   C50       1.0  0.51852  0.01101  0.16935  1.0000 -0.0709866149
C   C51       1.0  0.51852  0.48899  0.66935  1.0000 -0.0709866149
C   C52       1.0  0.48148  0.98899  0.83065  1.0000 -0.0709866149
C   C53       1.0  0.23049  0.57081  0.12182  1.0000 0.6066285992
C   C54       1.0  0.76951  0.07081  0.37818  1.0000 0.6066285992
C   C55       1.0  0.76951  0.42919  0.87818  1.0000 0.6066285992
C   C56       1.0  0.23049  0.92919  0.62182  1.0000 0.6066285992
C   C57       1.0  0.75982  0.53358  0.51416  1.0000 -0.2023587649
C   C58       1.0  0.24018  0.03358  0.98584  1.0000 -0.2023587649
C   C59       1.0  0.24018  0.46642  0.48584  1.0000 -0.2023587649
C   C60       1.0  0.75982  0.96642  0.01416  1.0000 -0.2023587649
C   C61       1.0  0.85299  0.51026  0.58866  1.0000 -0.0709866149
C   C62       1.0  0.14701  0.01026  0.91134  1.0000 -0.0709866149
C   C63       1.0  0.14701  0.48974  0.41134  1.0000 -0.0709866149
C   C64       1.0  0.85299  0.98974  0.08866  1.0000 -0.0709866149
C   C65       1.0  0.89603  0.52981  0.68752  1.0000 -0.0818800321
C   C66       1.0  0.10397  0.02981  0.81248  1.0000 -0.0818800321
C   C67       1.0  0.10397  0.47019  0.31248  1.0000 -0.0818800321
C   C68       1.0  0.89603  0.97019  0.18752  1.0000 -0.0818800321
C   C69       1.0  0.84677  0.57340  0.71492  1.0000 -0.0149541995
C   C70       1.0  0.15323  0.07340  0.78508  1.0000 -0.0149541995
C   C71       1.0  0.15323  0.42660  0.28508  1.0000 -0.0149541995
C   C72       1.0  0.84677  0.92660  0.21492  1.0000 -0.0149541995
C   C73       1.0  0.75311  0.59706  0.64238  1.0000 -0.0893128103
C   C74       1.0  0.24689  0.09706  0.85762  1.0000 -0.0893128103
C   C75       1.0  0.24689  0.40294  0.35762  1.0000 -0.0893128103
C   C76       1.0  0.75311  0.90294  0.14238  1.0000 -0.0893128103
C   C77       1.0  0.71026  0.57707  0.54314  1.0000 -0.0818800321
C   C78       1.0  0.28974  0.07707  0.95686  1.0000 -0.0818800321
C   C79       1.0  0.28974  0.42293  0.45686  1.0000 -0.0818800321
C   C80       1.0  0.71026  0.92293  0.04314  1.0000 -0.0818800321
C   C81       1.0  0.89550  0.59516  0.82153  1.0000 0.5631582165
C   C82       1.0  0.10450  0.09516  0.67847  1.0000 0.5631582165
C   C83       1.0  0.10450  0.40484  0.17847  1.0000 0.5631582165
C   C84       1.0  0.89550  0.90484  0.32153  1.0000 0.5631582165
C   C85       1.0  0.72130  0.43041  0.37556  1.0000 -0.2054755608
C   C86       1.0  0.27870  0.93041  0.12444  1.0000 -0.2054755608
C   C87       1.0  0.27870  0.56959  0.62444  1.0000 -0.2054755608
C   C88       1.0  0.72130  0.06959  0.87556  1.0000 -0.2054755608
C   C89       1.0  0.63611  0.39211  0.34430  1.0000 -0.0709866149
C   C90       1.0  0.36389  0.89211  0.15570  1.0000 -0.0709866149
C   C91       1.0  0.36389  0.60789  0.65570  1.0000 -0.0709866149
C   C92       1.0  0.63611  0.10789  0.84430  1.0000 -0.0709866149
C   C93       1.0  0.65431  0.33399  0.34815  1.0000 -0.0893128103
C   C94       1.0  0.34569  0.83399  0.15185  1.0000 -0.0893128103
C   C95       1.0  0.34569  0.66601  0.65185  1.0000 -0.0893128103
C   C96       1.0  0.65431  0.16601  0.84815  1.0000 -0.0893128103
C   C97       1.0  0.75899  0.31374  0.38317  1.0000 -0.0317223905
C   C98       1.0  0.24101  0.81374  0.11683  1.0000 -0.0317223905
C   C99       1.0  0.24101  0.68626  0.61683  1.0000 -0.0317223905
C   C100      1.0  0.75899  0.18626  0.88317  1.0000 -0.0317223905
C   C101      1.0  0.84501  0.35112  0.41295  1.0000 -0.0818800321
C   C102      1.0  0.15499  0.85112  0.08705  1.0000 -0.0818800321
C   C103      1.0  0.15499  0.64888  0.58705  1.0000 -0.0818800321
C   C104      1.0  0.84501  0.14888  0.91295  1.0000 -0.0818800321
C   C105      1.0  0.82617  0.40858  0.40764  1.0000 -0.0893128103
C   C106      1.0  0.17383  0.90858  0.09236  1.0000 -0.0893128103
C   C107      1.0  0.17383  0.59142  0.59236  1.0000 -0.0893128103
C   C108      1.0  0.82617  0.09142  0.90764  1.0000 -0.0893128103
C   C109      1.0  0.78519  0.25247  0.39190  1.0000 0.5773089851
C   C110      1.0  0.21481  0.75247  0.10810  1.0000 0.5773089851
C   C111      1.0  0.21481  0.74753  0.60810  1.0000 0.5773089851
C   C112      1.0  0.78519  0.24753  0.89190  1.0000 0.5773089851
C   C113      1.0  0.12270  0.66037  0.81710  1.0000 0.0789585312
C   C114      1.0  0.87730  0.16037  0.68290  1.0000 0.0789585312
C   C115      1.0  0.87730  0.33963  0.18290  1.0000 0.0789585312
C   C116      1.0  0.12270  0.83963  0.31710  1.0000 0.0789585312
C   C117      1.0  0.23490  0.64204  0.86970  1.0000 -0.4299872419
C   C118      1.0  0.76510  0.14204  0.63030  1.0000 -0.4299872419
C   C119      1.0  0.76510  0.35796  0.13030  1.0000 -0.4299872419
C   C120      1.0  0.23490  0.85796  0.36970  1.0000 -0.4299872419
C   C121      1.0  0.89260  0.76446  0.07680  1.0000 0.0596301803
C   C122      1.0  0.10740  0.26446  0.42320  1.0000 0.0596301803
C   C123      1.0  0.10740  0.23554  0.92320  1.0000 0.0596301803
C   C124      1.0  0.89260  0.73554  0.57680  1.0000 0.0596301803
C   C125      1.0  0.82250  0.75041  0.12630  1.0000 -0.4129128432
C   C126      1.0  0.17750  0.25041  0.37370  1.0000 -0.4129128432
C   C127      1.0  0.17750  0.24959  0.87370  1.0000 -0.4129128432
C   C128      1.0  0.82250  0.74959  0.62630  1.0000 -0.4129128432
C   C129      1.0  0.64990  0.90268  0.41510  1.0000 0.0527858097
C   C130      1.0  0.55940  0.90220  0.43530  1.0000 -0.3936642086
C   C131      1.0  0.35010  0.40268  0.08490  1.0000 0.0527858097
C   C132      1.0  0.44060  0.40220  0.06470  1.0000 -0.3936642086
C   C133      1.0  0.35010  0.09732  0.58490  1.0000 0.0527858097
C   C134      1.0  0.44060  0.09780  0.56470  1.0000 -0.3936642086
C   C135      1.0  0.64990  0.59732  0.91510  1.0000 0.0527858097
C   C136      1.0  0.55940  0.59780  0.93530  1.0000 -0.3936642086
C   C137      1.0  0.24130  0.69333  0.36680  1.0000 0.0596301803
C   C138      1.0  0.26660  0.63443  0.37530  1.0000 -0.4021652317
C   C139      1.0  0.75870  0.19333  0.13320  1.0000 0.0596301803
C   C140      1.0  0.73340  0.13443  0.12470  1.0000 -0.4021652317
C   C141      1.0  0.75870  0.30667  0.63320  1.0000 0.0596301803
C   C142      1.0  0.73340  0.36557  0.62470  1.0000 -0.4021652317
C   C143      1.0  0.24130  0.80667  0.86680  1.0000 0.0596301803
C   C144      1.0  0.26660  0.86557  0.87530  1.0000 -0.4021652317
O   O1        1.0  0.01316  0.64744  0.17290  1.0000 -0.4914915388
O   O2        1.0  0.98684  0.14744  0.32710  1.0000 -0.4914915388
O   O3        1.0  0.98684  0.35256  0.82710  1.0000 -0.4914915388
O   O4        1.0  0.01316  0.85256  0.67290  1.0000 -0.4914915388
O   O5        1.0  0.94679  0.57669  0.06745  1.0000 -0.6638339634
O   O6        1.0  0.05321  0.07669  0.43255  1.0000 -0.6638339634
O   O7        1.0  0.05321  0.42331  0.93255  1.0000 -0.6638339634
O   O8        1.0  0.94679  0.92331  0.56745  1.0000 -0.6638339634
O   O9        1.0  0.16900  0.52915  0.10199  1.0000 -0.5982381305
O   O10       1.0  0.83100  0.02915  0.39801  1.0000 -0.5982381305
O   O11       1.0  0.83100  0.47085  0.89801  1.0000 -0.5982381305
O   O12       1.0  0.16900  0.97085  0.60199  1.0000 -0.5982381305
O   O13       1.0  0.19985  0.62017  0.08789  1.0000 -0.5982381305
O   O14       1.0  0.80015  0.12017  0.41211  1.0000 -0.5982381305
O   O15       1.0  0.80015  0.37983  0.91211  1.0000 -0.5982381305
O   O16       1.0  0.19985  0.87983  0.58789  1.0000 -0.5982381305
O   O17       1.0  0.85183  0.63586  0.84496  1.0000 -0.4837932712
O   O18       1.0  0.14817  0.13586  0.65504  1.0000 -0.4837932712
O   O19       1.0  0.14817  0.36414  0.15504  1.0000 -0.4837932712
O   O20       1.0  0.85183  0.86414  0.34496  1.0000 -0.4837932712
O   O21       1.0  0.98213  0.57228  0.88459  1.0000 -0.6638339634
O   O22       1.0  0.01787  0.07228  0.61541  1.0000 -0.6638339634
O   O23       1.0  0.01787  0.42772  0.11541  1.0000 -0.6657103276
O   O24       1.0  0.98213  0.92772  0.38459  1.0000 -0.6657103276
O   O25       1.0  0.87741  0.23617  0.41743  1.0000 -0.4914915388
O   O26       1.0  0.12259  0.73617  0.08257  1.0000 -0.4914915388
O   O27       1.0  0.12259  0.76383  0.58257  1.0000 -0.4914915388
O   O28       1.0  0.87741  0.26383  0.91743  1.0000 -0.4914915388
O   O29       1.0  0.70335  0.21792  0.37141  1.0000 -0.4571658423
O   O30       1.0  0.29665  0.71792  0.12859  1.0000 -0.4571658423
O   O31       1.0  0.29665  0.78208  0.62859  1.0000 -0.4571658423
O   O32       1.0  0.70335  0.28208  0.87141  1.0000 -0.4571658423
O   O33       1.0  0.08337  0.68986  0.88090  1.0000 -0.4510240456
O   O34       1.0  0.91663  0.18986  0.61910  1.0000 -0.4510240456
O   O35       1.0  0.91663  0.31014  0.11910  1.0000 -0.4510240456
O   O36       1.0  0.08337  0.81014  0.38090  1.0000 -0.4510240456
O   O37       1.0  0.88463  0.72665  0.99612  1.0000 -0.4571658423
O   O38       1.0  0.11537  0.22665  0.50388  1.0000 -0.4571658423
O   O39       1.0  0.11537  0.27335  0.00388  1.0000 -0.4571658423
O   O40       1.0  0.88463  0.77335  0.49612  1.0000 -0.4571658423
O   O41       1.0  0.64065  0.87048  0.33002  1.0000 -0.3680141097
O   O42       1.0  0.35935  0.37048  0.16998  1.0000 -0.3680141097
O   O43       1.0  0.35935  0.12952  0.66998  1.0000 -0.3680141097
O   O44       1.0  0.64065  0.62952  0.83002  1.0000 -0.3680141097
O   O45       1.0  0.13487  0.70428  0.34780  1.0000 -0.2871812558
O   O46       1.0  0.86513  0.20428  0.15220  1.0000 -0.2871812558
O   O47       1.0  0.86513  0.29572  0.65220  1.0000 -0.2871812558
O   O48       1.0  0.13487  0.79572  0.84780  1.0000 -0.2871812558
