# DDEC6 charges by PACMAN v1.1 (https://github.com/mtap-research/PACMAN-charge/)
data_2011[Zn][nan]3[ION]2
_chemical_formula_sum              "Zn4 H96 C118 N34 O26"
_cell_length_a       7.9114
_cell_length_b       14.2572
_cell_length_c       29.557
_cell_angle_alpha    90
_cell_angle_beta     90
_cell_angle_gamma    90

_symmetry_space_group_name_H-M    "P 1"
_symmetry_Int_Tables_number       1

loop_
  _symmetry_equiv_pos_as_xyz
  'x, y, z'

loop_
  _atom_site_type_symbol
  _atom_site_label
  _atom_site_symmetry_multiplicity
  _atom_site_fract_x
  _atom_site_fract_y
  _atom_site_fract_z
  _atom_site_occupancy
  _atom_site_charge
Zn  Zn1       1.0  0.50779  0.36874  0.84944  1.0000 0.6688446489
Zn  Zn2       1.0  0.49221  0.63126  0.34944  1.0000 0.6688446489
Zn  Zn3       1.0  0.50779  0.63126  0.15056  1.0000 0.6688446489
Zn  Zn4       1.0  0.49221  0.36874  0.65056  1.0000 0.6688446489
H   H1        1.0  0.40180  0.57320  0.89260  1.0000 0.1208178361
H   H2        1.0  0.59820  0.42680  0.39260  1.0000 0.1208178361
H   H3        1.0  0.40180  0.42680  0.10740  1.0000 0.1208178361
H   H4        1.0  0.59820  0.57320  0.60740  1.0000 0.1208178361
H   H5        1.0  0.30700  0.70280  0.84640  1.0000 0.1208178361
H   H6        1.0  0.69300  0.29720  0.34640  1.0000 0.1208178361
H   H7        1.0  0.30700  0.29720  0.15360  1.0000 0.1208178361
H   H8        1.0  0.69300  0.70280  0.65360  1.0000 0.1208178361
H   H9        1.0  0.35730  0.48200  0.76820  1.0000 0.1111432735
H   H10       1.0  0.64270  0.51800  0.26820  1.0000 0.1111432735
H   H11       1.0  0.35730  0.51800  0.23180  1.0000 0.1111432735
H   H12       1.0  0.64270  0.48200  0.73180  1.0000 0.1111432735
H   H13       1.0  0.33860  0.78790  0.77570  1.0000 0.1208178361
H   H14       1.0  0.66140  0.21210  0.27570  1.0000 0.1208178361
H   H15       1.0  0.33860  0.21210  0.22430  1.0000 0.1208178361
H   H16       1.0  0.66140  0.78790  0.72430  1.0000 0.1208178361
H   H17       1.0  0.25070  0.86920  0.71280  1.0000 0.1208178361
H   H18       1.0  0.74930  0.13080  0.21280  1.0000 0.1208178361
H   H19       1.0  0.25070  0.13080  0.28720  1.0000 0.1208178361
H   H20       1.0  0.74930  0.86920  0.78720  1.0000 0.1208178361
H   H21       1.0  0.08230  0.62910  0.65600  1.0000 0.1208178361
H   H22       1.0  0.91770  0.37090  0.15600  1.0000 0.1208178361
H   H23       1.0  0.08230  0.37090  0.34400  1.0000 0.1208178361
H   H24       1.0  0.91770  0.62910  0.84400  1.0000 0.1208178361
H   H25       1.0  0.16780  0.54890  0.72090  1.0000 0.1208178361
H   H26       1.0  0.83220  0.45110  0.22090  1.0000 0.1208178361
H   H27       1.0  0.16780  0.45110  0.27910  1.0000 0.1208178361
H   H28       1.0  0.83220  0.54890  0.77910  1.0000 0.1208178361
H   H29       1.0  0.44530  0.69930  0.44830  1.0000 0.1208178361
H   H30       1.0  0.55470  0.30070  0.94830  1.0000 0.1208178361
H   H31       1.0  0.44530  0.30070  0.55170  1.0000 0.1208178361
H   H32       1.0  0.55470  0.69930  0.05170  1.0000 0.1208178361
H   H33       1.0  0.17940  0.50960  0.38580  1.0000 0.1293484688
H   H34       1.0  0.82060  0.49040  0.88580  1.0000 0.1293484688
H   H35       1.0  0.17940  0.49040  0.61420  1.0000 0.1293484688
H   H36       1.0  0.82060  0.50960  0.11420  1.0000 0.1293484688
H   H37       1.0  0.04230  0.53810  0.45870  1.0000 0.1208178361
H   H38       1.0  0.95770  0.46190  0.95870  1.0000 0.1208178361
H   H39       1.0  0.04230  0.46190  0.54130  1.0000 0.1208178361
H   H40       1.0  0.95770  0.53810  0.04130  1.0000 0.1208178361
H   H41       1.0  0.95090  0.69440  0.50390  1.0000 0.1293484688
H   H42       1.0  0.04910  0.30560  0.00390  1.0000 0.1293484688
H   H43       1.0  0.95090  0.30560  0.49610  1.0000 0.1293484688
H   H44       1.0  0.04910  0.69440  0.99610  1.0000 0.1293484688
H   H45       1.0  0.90290  0.76610  0.57320  1.0000 0.1293484688
H   H46       1.0  0.09710  0.23390  0.07320  1.0000 0.1293484688
H   H47       1.0  0.90290  0.23390  0.42680  1.0000 0.1293484688
H   H48       1.0  0.09710  0.76610  0.92680  1.0000 0.1293484688
H   H49       1.0  0.39490  0.73840  0.60430  1.0000 0.1111432735
H   H50       1.0  0.60510  0.26160  0.10430  1.0000 0.1111432735
H   H51       1.0  0.39490  0.26160  0.39570  1.0000 0.1111432735
H   H52       1.0  0.60510  0.73840  0.89570  1.0000 0.1111432735
H   H53       1.0  0.44280  0.66667  0.53500  1.0000 0.1208178361
H   H54       1.0  0.55720  0.33333  0.03500  1.0000 0.1208178361
H   H55       1.0  0.44280  0.33333  0.46500  1.0000 0.1208178361
H   H56       1.0  0.55720  0.66667  0.96500  1.0000 0.1208178361
H   H57       1.0  0.63270  0.15940  0.65490  1.0000 0.1208178361
H   H58       1.0  0.36730  0.84060  0.15490  1.0000 0.1208178361
H   H59       1.0  0.63270  0.84060  0.34510  1.0000 0.1208178361
H   H60       1.0  0.36730  0.15940  0.84510  1.0000 0.1208178361
H   H61       1.0  0.85820  0.38430  0.60820  1.0000 0.1208178361
H   H62       1.0  0.14180  0.61570  0.10820  1.0000 0.1208178361
H   H63       1.0  0.85820  0.61570  0.39180  1.0000 0.1208178361
H   H64       1.0  0.14180  0.38430  0.89180  1.0000 0.1208178361
H   H65       1.0  0.06400  0.25940  0.60500  1.0000 0.1208178361
H   H66       1.0  0.93600  0.74060  0.10500  1.0000 0.1208178361
H   H67       1.0  0.06400  0.74060  0.39500  1.0000 0.1208178361
H   H68       1.0  0.93600  0.25940  0.89500  1.0000 0.1208178361
H   H69       1.0  0.07050  0.08700  0.57500  1.0000 0.1293484688
H   H70       1.0  0.92950  0.91300  0.07500  1.0000 0.1293484688
H   H71       1.0  0.07050  0.91300  0.42500  1.0000 0.1293484688
H   H72       1.0  0.92950  0.08700  0.92500  1.0000 0.1293484688
H   H73       1.0  0.16970  0.93390  0.57760  1.0000 0.1208178361
H   H74       1.0  0.83030  0.06610  0.07760  1.0000 0.1208178361
H   H75       1.0  0.16970  0.06610  0.42240  1.0000 0.1208178361
H   H76       1.0  0.83030  0.93390  0.92240  1.0000 0.1208178361
H   H77       1.0  0.93320  0.89530  0.69650  1.0000 0.1208178361
H   H78       1.0  0.06680  0.10470  0.19650  1.0000 0.1208178361
H   H79       1.0  0.93320  0.10470  0.30350  1.0000 0.1208178361
H   H80       1.0  0.06680  0.89530  0.80350  1.0000 0.1208178361
H   H81       1.0  0.83400  0.04830  0.69390  1.0000 0.1208178361
H   H82       1.0  0.16600  0.95170  0.19390  1.0000 0.1208178361
H   H83       1.0  0.83400  0.95170  0.30610  1.0000 0.1208178361
H   H84       1.0  0.16600  0.04830  0.80610  1.0000 0.1208178361
H   H85       1.0  0.80120  0.21920  0.74320  1.0000 0.136404204
H   H86       1.0  0.19880  0.78080  0.24320  1.0000 0.136404204
H   H87       1.0  0.80120  0.78080  0.25680  1.0000 0.136404204
H   H88       1.0  0.19880  0.21920  0.75680  1.0000 0.136404204
H   H89       1.0  0.90650  0.20010  0.78700  1.0000 0.1293484688
H   H90       1.0  0.09350  0.79990  0.28700  1.0000 0.136404204
H   H91       1.0  0.90650  0.79990  0.21300  1.0000 0.1293484688
H   H92       1.0  0.09350  0.20010  0.71300  1.0000 0.136404204
H   H93       1.0  0.04380  0.34870  0.77380  1.0000 0.0918946483
H   H94       1.0  0.95620  0.65130  0.27380  1.0000 0.0918946483
H   H95       1.0  0.04380  0.65130  0.22620  1.0000 0.0918946483
H   H96       1.0  0.95620  0.34870  0.72620  1.0000 0.0918946483
C   C1        1.0  0.38230  0.57100  0.86154  1.0000 -0.0488495829
C   C2        1.0  0.61770  0.42900  0.36154  1.0000 -0.0488495829
C   C3        1.0  0.38230  0.42900  0.13846  1.0000 -0.0488495829
C   C4        1.0  0.61770  0.57100  0.63846  1.0000 -0.0488495829
C   C5        1.0  0.32850  0.64210  0.83631  1.0000 -0.0925220463
C   C6        1.0  0.67150  0.35790  0.33631  1.0000 -0.0925220463
C   C7        1.0  0.32850  0.35790  0.16369  1.0000 -0.0925220463
C   C8        1.0  0.67150  0.64210  0.66369  1.0000 -0.0925220463
C   C9        1.0  0.35770  0.52050  0.79356  1.0000 0.097643451
C   C10       1.0  0.64230  0.47950  0.29356  1.0000 0.097643451
C   C11       1.0  0.35770  0.47950  0.20644  1.0000 0.097643451
C   C12       1.0  0.64230  0.52050  0.70644  1.0000 0.097643451
C   C13       1.0  0.25820  0.66130  0.75384  1.0000 0.136404204
C   C14       1.0  0.74180  0.33870  0.25384  1.0000 0.136404204
C   C15       1.0  0.25820  0.33870  0.24616  1.0000 0.136404204
C   C16       1.0  0.74180  0.66130  0.74616  1.0000 0.136404204
C   C17       1.0  0.28630  0.75670  0.75190  1.0000 -0.1694616235
C   C18       1.0  0.71370  0.24330  0.25190  1.0000 -0.1694616235
C   C19       1.0  0.28630  0.24330  0.24810  1.0000 -0.1694616235
C   C20       1.0  0.71370  0.75670  0.74810  1.0000 -0.1694616235
C   C21       1.0  0.23550  0.80460  0.71403  1.0000 -0.1780066814
C   C22       1.0  0.76450  0.19540  0.21403  1.0000 -0.1780066814
C   C23       1.0  0.23550  0.19540  0.28597  1.0000 -0.1780066814
C   C24       1.0  0.76450  0.80460  0.78597  1.0000 -0.1780066814
C   C25       1.0  0.16120  0.75850  0.67709  1.0000 0.1886200097
C   C26       1.0  0.83880  0.24150  0.17709  1.0000 0.1886200097
C   C27       1.0  0.16120  0.24150  0.32291  1.0000 0.1886200097
C   C28       1.0  0.83880  0.75850  0.82291  1.0000 0.1886200097
C   C29       1.0  0.13340  0.66110  0.67974  1.0000 -0.1903415087
C   C30       1.0  0.86660  0.33890  0.17974  1.0000 -0.1903415087
C   C31       1.0  0.13340  0.33890  0.32026  1.0000 -0.1903415087
C   C32       1.0  0.86660  0.66110  0.82026  1.0000 -0.1903415087
C   C33       1.0  0.18420  0.61340  0.71874  1.0000 -0.1694616235
C   C34       1.0  0.81580  0.38660  0.21874  1.0000 -0.1694616235
C   C35       1.0  0.18420  0.38660  0.28126  1.0000 -0.1694616235
C   C36       1.0  0.81580  0.61340  0.78126  1.0000 -0.1694616235
C   C37       1.0  0.36160  0.65570  0.44154  1.0000 0.097643451
C   C38       1.0  0.63840  0.34430  0.94154  1.0000 0.097643451
C   C39       1.0  0.36160  0.34430  0.55846  1.0000 0.097643451
C   C40       1.0  0.63840  0.65570  0.05846  1.0000 0.097643451
C   C41       1.0  0.21520  0.55210  0.40768  1.0000 -0.0488495829
C   C42       1.0  0.78480  0.44790  0.90768  1.0000 -0.0488495829
C   C43       1.0  0.21520  0.44790  0.59232  1.0000 -0.0488495829
C   C44       1.0  0.78480  0.55210  0.09232  1.0000 -0.0488495829
C   C45       1.0  0.13980  0.56710  0.44805  1.0000 -0.0830165174
C   C46       1.0  0.86020  0.43290  0.94805  1.0000 -0.0830165174
C   C47       1.0  0.13980  0.43290  0.55195  1.0000 -0.0830165174
C   C48       1.0  0.86020  0.56710  0.05195  1.0000 -0.0830165174
C   C49       1.0  0.20160  0.67340  0.51258  1.0000 0.1503283356
C   C50       1.0  0.79840  0.32660  0.01258  1.0000 0.1503283356
C   C51       1.0  0.20160  0.32660  0.48742  1.0000 0.1503283356
C   C52       1.0  0.79840  0.67340  0.98742  1.0000 0.1503283356
C   C53       1.0  0.03990  0.70320  0.52403  1.0000 -0.1600228769
C   C54       1.0  0.96010  0.29680  0.02403  1.0000 -0.1600228769
C   C55       1.0  0.03990  0.29680  0.47597  1.0000 -0.1600228769
C   C56       1.0  0.96010  0.70320  0.97597  1.0000 -0.1600228769
C   C57       1.0  0.01110  0.74610  0.56554  1.0000 -0.1694616235
C   C58       1.0  0.98890  0.25390  0.06554  1.0000 -0.1694616235
C   C59       1.0  0.01110  0.25390  0.43446  1.0000 -0.1694616235
C   C60       1.0  0.98890  0.74610  0.93446  1.0000 -0.1694616235
C   C61       1.0  0.14410  0.75930  0.59560  1.0000 0.1693495151
C   C62       1.0  0.85590  0.24070  0.09560  1.0000 0.1693495151
C   C63       1.0  0.14410  0.24070  0.40440  1.0000 0.1693495151
C   C64       1.0  0.85590  0.75930  0.90440  1.0000 0.1693495151
C   C65       1.0  0.30590  0.72960  0.58415  1.0000 -0.1694616235
C   C66       1.0  0.69410  0.27040  0.08415  1.0000 -0.1694616235
C   C67       1.0  0.30590  0.27040  0.41585  1.0000 -0.1694616235
C   C68       1.0  0.69410  0.72960  0.91585  1.0000 -0.1694616235
C   C69       1.0  0.33460  0.68660  0.54264  1.0000 -0.1600228769
C   C70       1.0  0.66540  0.31340  0.04264  1.0000 -0.1600228769
C   C71       1.0  0.33460  0.31340  0.45736  1.0000 -0.1600228769
C   C72       1.0  0.66540  0.68660  0.95736  1.0000 -0.1600228769
C   C73       1.0  0.71420  0.19950  0.64310  1.0000 0.0918946483
C   C74       1.0  0.28580  0.80050  0.14310  1.0000 0.0918946483
C   C75       1.0  0.71420  0.80050  0.35690  1.0000 0.0918946483
C   C76       1.0  0.28580  0.19950  0.85690  1.0000 0.0918946483
C   C77       1.0  0.84020  0.32280  0.61748  1.0000 -0.042422882
C   C78       1.0  0.15980  0.67720  0.11748  1.0000 -0.042422882
C   C79       1.0  0.84020  0.67720  0.38252  1.0000 -0.042422882
C   C80       1.0  0.15980  0.32280  0.88252  1.0000 -0.042422882
C   C81       1.0  0.95310  0.25460  0.61517  1.0000 -0.1021113049
C   C82       1.0  0.04690  0.74540  0.11517  1.0000 -0.1021113049
C   C83       1.0  0.95310  0.74540  0.38483  1.0000 -0.1021113049
C   C84       1.0  0.04690  0.25460  0.88483  1.0000 -0.1021113049
C   C85       1.0  0.94240  0.08280  0.63420  1.0000 0.1503283356
C   C86       1.0  0.05760  0.91720  0.13420  1.0000 0.1503283356
C   C87       1.0  0.94240  0.91720  0.36580  1.0000 0.1503283356
C   C88       1.0  0.05760  0.08280  0.86580  1.0000 0.1503283356
C   C89       1.0  0.04300  0.04860  0.59937  1.0000 -0.1600228769
C   C90       1.0  0.95700  0.95140  0.09937  1.0000 -0.1600228769
C   C91       1.0  0.04300  0.95140  0.40063  1.0000 -0.1600228769
C   C92       1.0  0.95700  0.04860  0.90063  1.0000 -0.1600228769
C   C93       1.0  0.10240  0.95690  0.60090  1.0000 -0.1600228769
C   C94       1.0  0.89760  0.04310  0.10090  1.0000 -0.1600228769
C   C95       1.0  0.10240  0.04310  0.39910  1.0000 -0.1600228769
C   C96       1.0  0.89760  0.95690  0.89910  1.0000 -0.1600228769
C   C97       1.0  0.06130  0.89950  0.63728  1.0000 0.1693495151
C   C98       1.0  0.93870  0.10050  0.13728  1.0000 0.1693495151
C   C99       1.0  0.06130  0.10050  0.36272  1.0000 0.1693495151
C   C100      1.0  0.93870  0.89950  0.86272  1.0000 0.1693495151
C   C101      1.0  0.96070  0.93370  0.67212  1.0000 -0.1694616235
C   C102      1.0  0.03930  0.06630  0.17212  1.0000 -0.1694616235
C   C103      1.0  0.96070  0.06630  0.32788  1.0000 -0.1694616235
C   C104      1.0  0.03930  0.93370  0.82788  1.0000 -0.1694616235
C   C105      1.0  0.90130  0.02540  0.67058  1.0000 -0.1780066814
C   C106      1.0  0.09870  0.97460  0.17058  1.0000 -0.1780066814
C   C107      1.0  0.90130  0.97460  0.32942  1.0000 -0.1780066814
C   C108      1.0  0.09870  0.02540  0.82942  1.0000 -0.1780066814
C   C109      1.0  0.73320  0.29780  0.79480  1.0000 0.5251333204
C   C110      1.0  0.26680  0.70220  0.29480  1.0000 0.5251333204
C   C111      1.0  0.73320  0.70220  0.20520  1.0000 0.5251333204
C   C112      1.0  0.26680  0.29780  0.70520  1.0000 0.5251333204
C   C113      1.0  0.85780  0.24930  0.76850  1.0000 -0.3700248364
C   C114      1.0  0.14220  0.75070  0.26850  1.0000 -0.3700248364
C   C115      1.0  0.85780  0.75070  0.23150  1.0000 -0.3700248364
C   C116      1.0  0.14220  0.24930  0.73150  1.0000 -0.3700248364
C   C117      1.0  0.00000  0.30870  0.75000  1.0000 -0.1021113049
C   C118      1.0  0.00000  0.69130  0.25000  1.0000 -0.1021113049
N   N1        1.0  0.40470  0.49260  0.83403  1.0000 -0.2781244728
N   N2        1.0  0.59530  0.50740  0.33403  1.0000 -0.2781244728
N   N3        1.0  0.40470  0.50740  0.16597  1.0000 -0.2781244728
N   N4        1.0  0.59530  0.49260  0.66597  1.0000 -0.2781244728
N   N5        1.0  0.31060  0.61040  0.79300  1.0000 0.0079525926
N   N6        1.0  0.68940  0.38960  0.29300  1.0000 0.0079525926
N   N7        1.0  0.31060  0.38960  0.20700  1.0000 0.0079525926
N   N8        1.0  0.68940  0.61040  0.70700  1.0000 0.0079525926
N   N9        1.0  0.11460  0.80490  0.63709  1.0000 -0.1694616235
N   N10       1.0  0.88540  0.19510  0.13709  1.0000 -0.1694616235
N   N11       1.0  0.11460  0.19510  0.36291  1.0000 -0.1694616235
N   N12       1.0  0.88540  0.80490  0.86291  1.0000 -0.1694616235
N   N13       1.0  0.35140  0.60930  0.40431  1.0000 -0.2589980576
N   N14       1.0  0.64860  0.39070  0.90431  1.0000 -0.2589980576
N   N15       1.0  0.35140  0.39070  0.59569  1.0000 -0.2589980576
N   N16       1.0  0.64860  0.60930  0.09569  1.0000 -0.2589980576
N   N17       1.0  0.23190  0.63170  0.46976  1.0000 0.0079525926
N   N18       1.0  0.76810  0.36830  0.96976  1.0000 0.0079525926
N   N19       1.0  0.23190  0.36830  0.53024  1.0000 0.0079525926
N   N20       1.0  0.76810  0.63170  0.03024  1.0000 0.0079525926
N   N21       1.0  0.69280  0.28920  0.63557  1.0000 -0.2746215973
N   N22       1.0  0.30720  0.71080  0.13557  1.0000 -0.2746215973
N   N23       1.0  0.69280  0.71080  0.36443  1.0000 -0.2746215973
N   N24       1.0  0.30720  0.28920  0.86443  1.0000 -0.2746215973
N   N25       1.0  0.87250  0.17370  0.63115  1.0000 0.0079525926
N   N26       1.0  0.12750  0.82630  0.13115  1.0000 0.0079525926
N   N27       1.0  0.87250  0.82630  0.36885  1.0000 0.0079525926
N   N28       1.0  0.12750  0.17370  0.86885  1.0000 0.0079525926
N   N29       1.0  0.42150  0.08890  0.12290  1.0000 0.5895568219
N   N30       1.0  0.57850  0.91110  0.62290  1.0000 0.5895568219
N   N31       1.0  0.42150  0.91110  0.87710  1.0000 0.5895568219
N   N32       1.0  0.57850  0.08890  0.37710  1.0000 0.5895568219
N   N33       1.0  0.30770  0.50000  0.00000  1.0000 0.6605653253
N   N34       1.0  0.69230  0.50000  0.50000  1.0000 0.6605653253
O   O1        1.0  0.64130  0.25240  0.81786  1.0000 -0.4344802413
O   O2        1.0  0.35870  0.74760  0.31786  1.0000 -0.4355848147
O   O3        1.0  0.64130  0.74760  0.18214  1.0000 -0.4355848147
O   O4        1.0  0.35870  0.25240  0.68214  1.0000 -0.4344802413
O   O5        1.0  0.70070  0.37930  0.79539  1.0000 -0.4355848147
O   O6        1.0  0.29930  0.62070  0.29539  1.0000 -0.4355848147
O   O7        1.0  0.70070  0.62070  0.20461  1.0000 -0.4355848147
O   O8        1.0  0.29930  0.37930  0.70461  1.0000 -0.4355848147
O   O9        1.0  0.35870  0.13780  0.09640  1.0000 -0.3121743451
O   O10       1.0  0.45940  0.01070  0.11110  1.0000 -0.3347084734
O   O11       1.0  0.44720  0.11490  0.15840  1.0000 -0.3121743451
O   O12       1.0  0.64130  0.86220  0.59640  1.0000 -0.3121743451
O   O13       1.0  0.54060  0.98930  0.61110  1.0000 -0.3347084734
O   O14       1.0  0.55280  0.88510  0.65840  1.0000 -0.3121743451
O   O15       1.0  0.35870  0.86220  0.90360  1.0000 -0.3121743451
O   O16       1.0  0.45940  0.98930  0.88890  1.0000 -0.3347084734
O   O17       1.0  0.44720  0.88510  0.84160  1.0000 -0.3121743451
O   O18       1.0  0.64130  0.13780  0.40360  1.0000 -0.3121743451
O   O19       1.0  0.54060  0.01070  0.38890  1.0000 -0.3347084734
O   O20       1.0  0.55280  0.11490  0.34160  1.0000 -0.3121743451
O   O21       1.0  0.23180  0.47850  0.03424  1.0000 -0.4125817928
O   O22       1.0  0.23180  0.52150  0.96576  1.0000 -0.4125817928
O   O23       1.0  0.46370  0.50000  0.00000  1.0000 -0.4125817928
O   O24       1.0  0.76820  0.52150  0.53424  1.0000 -0.4125817928
O   O25       1.0  0.76820  0.47850  0.46576  1.0000 -0.4125817928
O   O26       1.0  0.53630  0.50000  0.50000  1.0000 -0.4125817928
