# DDEC6 charges by PACMAN v1.1 (https://github.com/mtap-research/PACMAN-charge/)
data_2011[Zn][lon]3[ION]1
_chemical_formula_sum              "Zn4 H80 C56 N16 O36"
_cell_length_a       4.8855
_cell_length_b       22.2025
_cell_length_c       24.0866
_cell_angle_alpha    90
_cell_angle_beta     90
_cell_angle_gamma    90

_symmetry_space_group_name_H-M    "P 1"
_symmetry_Int_Tables_number       1

loop_
  _symmetry_equiv_pos_as_xyz
  'x, y, z'

loop_
  _atom_site_type_symbol
  _atom_site_label
  _atom_site_symmetry_multiplicity
  _atom_site_fract_x
  _atom_site_fract_y
  _atom_site_fract_z
  _atom_site_occupancy
  _atom_site_charge
Zn  Zn1       1.0  0.49310  0.37296  0.62828  1.0000 0.905882107
Zn  Zn2       1.0  0.50690  0.87296  0.37172  1.0000 0.905882107
Zn  Zn3       1.0  0.50690  0.37296  0.12828  1.0000 0.905882107
Zn  Zn4       1.0  0.49310  0.87296  0.87172  1.0000 0.905882107
H   H1        1.0  0.58920  0.17670  0.65000  1.0000 0.122000935
H   H2        1.0  0.41080  0.67670  0.35000  1.0000 0.122000935
H   H3        1.0  0.41080  0.17670  0.15000  1.0000 0.122000935
H   H4        1.0  0.58920  0.67670  0.85000  1.0000 0.122000935
H   H5        1.0  0.84280  0.18850  0.60920  1.0000 0.1381671148
H   H6        1.0  0.15720  0.68850  0.39080  1.0000 0.1381671148
H   H7        1.0  0.15720  0.18850  0.10920  1.0000 0.1381671148
H   H8        1.0  0.84280  0.68850  0.89080  1.0000 0.1381671148
H   H9        1.0  0.30200  0.15850  0.57030  1.0000 0.1012976798
H   H10       1.0  0.69800  0.65850  0.42970  1.0000 0.1012976798
H   H11       1.0  0.69800  0.15850  0.07030  1.0000 0.1012976798
H   H12       1.0  0.30200  0.65850  0.92970  1.0000 0.1012976798
H   H13       1.0  0.56290  0.16740  0.53080  1.0000 0.1097418013
H   H14       1.0  0.43710  0.66740  0.46920  1.0000 0.1097418013
H   H15       1.0  0.43710  0.16740  0.03080  1.0000 0.1097418013
H   H16       1.0  0.56290  0.66740  0.96920  1.0000 0.1097418013
H   H17       1.0  0.36240  0.92130  0.65750  1.0000 0.1012976798
H   H18       1.0  0.63760  0.42130  0.34250  1.0000 0.1012976798
H   H19       1.0  0.63760  0.92130  0.15750  1.0000 0.1012976798
H   H20       1.0  0.36240  0.42130  0.84250  1.0000 0.1012976798
H   H21       1.0  0.20130  0.98080  0.67620  1.0000 0.1012976798
H   H22       1.0  0.79870  0.48080  0.32380  1.0000 0.1012976798
H   H23       1.0  0.79870  0.98080  0.17620  1.0000 0.1012976798
H   H24       1.0  0.20130  0.48080  0.82380  1.0000 0.1012976798
H   H25       1.0  0.54290  0.00810  0.73560  1.0000 0.1381671148
H   H26       1.0  0.45710  0.50810  0.26440  1.0000 0.1381671148
H   H27       1.0  0.45710  0.00810  0.23560  1.0000 0.1381671148
H   H28       1.0  0.54290  0.50810  0.76440  1.0000 0.1381671148
H   H29       1.0  0.74640  0.95860  0.71060  1.0000 0.1381671148
H   H30       1.0  0.25360  0.45860  0.28940  1.0000 0.1381671148
H   H31       1.0  0.25360  0.95860  0.21060  1.0000 0.1381671148
H   H32       1.0  0.74640  0.45860  0.78940  1.0000 0.1381671148
H   H33       1.0  0.13750  0.94410  0.53390  1.0000 0.1012976798
H   H34       1.0  0.86250  0.44410  0.46610  1.0000 0.1012976798
H   H35       1.0  0.86250  0.94410  0.03390  1.0000 0.1012976798
H   H36       1.0  0.13750  0.44410  0.96610  1.0000 0.1012976798
H   H37       1.0  0.14790  0.00330  0.49580  1.0000 0.1012976798
H   H38       1.0  0.85210  0.50330  0.50420  1.0000 0.1012976798
H   H39       1.0  0.85210  0.00330  0.99580  1.0000 0.1012976798
H   H40       1.0  0.14790  0.50330  0.00420  1.0000 0.1012976798
H   H41       1.0  0.73490  0.91220  0.48780  1.0000 0.1478123235
H   H42       1.0  0.26510  0.41220  0.51220  1.0000 0.1478123235
H   H43       1.0  0.26510  0.91220  0.98780  1.0000 0.1478123235
H   H44       1.0  0.73490  0.41220  0.01220  1.0000 0.1478123235
H   H45       1.0  0.73930  0.97160  0.45050  1.0000 0.1478123235
H   H46       1.0  0.26070  0.47160  0.54950  1.0000 0.1478123235
H   H47       1.0  0.26070  0.97160  0.95050  1.0000 0.1478123235
H   H48       1.0  0.73930  0.47160  0.04950  1.0000 0.1478123235
H   H49       1.0  0.25370  0.83000  0.20630  1.0000 0.1381671148
H   H50       1.0  0.27990  0.75840  0.20020  1.0000 0.122000935
H   H51       1.0  0.00910  0.79200  0.17930  1.0000 0.1381671148
H   H52       1.0  0.80450  0.72540  0.30390  1.0000 0.1343834418
H   H53       1.0  0.73700  0.72670  0.23890  1.0000 0.122000935
H   H54       1.0  0.00870  0.69410  0.26070  1.0000 0.1343834418
H   H55       1.0  0.16980  0.78550  0.28760  1.0000 0.2645684051
H   H56       1.0  0.91670  0.81590  0.26790  1.0000 0.2721809762
H   H57       1.0  0.74630  0.33000  0.79370  1.0000 0.1381671148
H   H58       1.0  0.72010  0.25840  0.79980  1.0000 0.122000935
H   H59       1.0  0.99090  0.29200  0.82070  1.0000 0.1381671148
H   H60       1.0  0.19550  0.22540  0.69610  1.0000 0.1343834418
H   H61       1.0  0.26300  0.22670  0.76110  1.0000 0.122000935
H   H62       1.0  0.99130  0.19410  0.73930  1.0000 0.1343834418
H   H63       1.0  0.83020  0.28550  0.71240  1.0000 0.2645684051
H   H64       1.0  0.08330  0.31590  0.73210  1.0000 0.2721809762
H   H65       1.0  0.74630  0.83000  0.70630  1.0000 0.1381671148
H   H66       1.0  0.72010  0.75840  0.70020  1.0000 0.122000935
H   H67       1.0  0.99090  0.79200  0.67930  1.0000 0.1381671148
H   H68       1.0  0.19550  0.72540  0.80390  1.0000 0.1343834418
H   H69       1.0  0.26300  0.72670  0.73890  1.0000 0.122000935
H   H70       1.0  0.99130  0.69410  0.76070  1.0000 0.1343834418
H   H71       1.0  0.83020  0.78550  0.78760  1.0000 0.2645684051
H   H72       1.0  0.08330  0.81590  0.76790  1.0000 0.2721809762
H   H73       1.0  0.25370  0.33000  0.29370  1.0000 0.1381671148
H   H74       1.0  0.27990  0.25840  0.29980  1.0000 0.122000935
H   H75       1.0  0.00910  0.29200  0.32070  1.0000 0.1381671148
H   H76       1.0  0.80450  0.22540  0.19610  1.0000 0.1343834418
H   H77       1.0  0.73700  0.22670  0.26110  1.0000 0.122000935
H   H78       1.0  0.00870  0.19410  0.23930  1.0000 0.1343834418
H   H79       1.0  0.16980  0.28550  0.21240  1.0000 0.2645684051
H   H80       1.0  0.91670  0.31590  0.23210  1.0000 0.2721809762
C   C1        1.0  0.55690  0.25715  0.60727  1.0000 0.6209644991
C   C2        1.0  0.44310  0.75715  0.39273  1.0000 0.6209644991
C   C3        1.0  0.44310  0.25715  0.10727  1.0000 0.6209644991
C   C4        1.0  0.55690  0.75715  0.89273  1.0000 0.6209644991
C   C5        1.0  0.64150  0.19183  0.61280  1.0000 -0.3601860983
C   C6        1.0  0.35850  0.69183  0.38720  1.0000 -0.3601860983
C   C7        1.0  0.35850  0.19183  0.11280  1.0000 -0.3601860983
C   C8        1.0  0.64150  0.69183  0.88720  1.0000 -0.3601860983
C   C9        1.0  0.50310  0.15358  0.56795  1.0000 -0.0290745698
C   C10       1.0  0.49690  0.65358  0.43205  1.0000 -0.0290745698
C   C11       1.0  0.49690  0.15358  0.06795  1.0000 -0.0290745698
C   C12       1.0  0.50310  0.65358  0.93205  1.0000 -0.0290745698
C   C13       1.0  0.38520  0.96390  0.66877  1.0000 -0.0290745698
C   C14       1.0  0.61480  0.46390  0.33123  1.0000 -0.0290745698
C   C15       1.0  0.61480  0.96390  0.16877  1.0000 -0.0290745698
C   C16       1.0  0.38520  0.46390  0.83123  1.0000 -0.0290745698
C   C17       1.0  0.55290  0.96670  0.72025  1.0000 -0.341398215
C   C18       1.0  0.44710  0.46670  0.27975  1.0000 -0.341398215
C   C19       1.0  0.44710  0.96670  0.22025  1.0000 -0.341398215
C   C20       1.0  0.55290  0.46670  0.77975  1.0000 -0.341398215
C   C21       1.0  0.46320  0.92230  0.76504  1.0000 0.628109129
C   C22       1.0  0.53680  0.42230  0.23496  1.0000 0.628109129
C   C23       1.0  0.53680  0.92230  0.26504  1.0000 0.628109129
C   C24       1.0  0.46320  0.42230  0.73496  1.0000 0.628109129
C   C25       1.0  0.02430  0.97358  0.51339  1.0000 -0.0244897167
C   C26       1.0  0.97570  0.47358  0.48661  1.0000 -0.0244897167
C   C27       1.0  0.97570  0.97358  0.01339  1.0000 -0.0244897167
C   C28       1.0  0.02430  0.47358  0.98661  1.0000 -0.0244897167
C   C29       1.0  0.85680  0.94160  0.46935  1.0000 -0.3601860983
C   C30       1.0  0.14320  0.44160  0.53065  1.0000 -0.3601860983
C   C31       1.0  0.14320  0.94160  0.96935  1.0000 -0.3601860983
C   C32       1.0  0.85680  0.44160  0.03065  1.0000 -0.3601860983
C   C33       1.0  0.02460  0.90893  0.42598  1.0000 0.6640845853
C   C34       1.0  0.97540  0.40893  0.57402  1.0000 0.6640845853
C   C35       1.0  0.97540  0.90893  0.92598  1.0000 0.6640845853
C   C36       1.0  0.02460  0.40893  0.07402  1.0000 0.6640845853
C   C37       1.0  0.71000  0.97036  0.59312  1.0000 0.5315516459
C   C38       1.0  0.29000  0.47036  0.40688  1.0000 0.5315516459
C   C39       1.0  0.29000  0.97036  0.09312  1.0000 0.5315516459
C   C40       1.0  0.71000  0.47036  0.90688  1.0000 0.5315516459
C   C41       1.0  0.77980  0.06541  0.54314  1.0000 0.5389783102
C   C42       1.0  0.22020  0.56541  0.45686  1.0000 0.5389783102
C   C43       1.0  0.22020  0.06541  0.04314  1.0000 0.5389783102
C   C44       1.0  0.77980  0.56541  0.95686  1.0000 0.5389783102
C   C45       1.0  0.42780  0.05790  0.61518  1.0000 0.5315516459
C   C46       1.0  0.57220  0.55790  0.38482  1.0000 0.5315516459
C   C47       1.0  0.57220  0.05790  0.11518  1.0000 0.5315516459
C   C48       1.0  0.42780  0.55790  0.88482  1.0000 0.5315516459
C   C49       1.0  0.15350  0.79180  0.20760  1.0000 -0.2812626419
C   C50       1.0  0.88380  0.72800  0.26660  1.0000 -0.2876872924
C   C51       1.0  0.84650  0.29180  0.79240  1.0000 -0.2812626419
C   C52       1.0  0.11620  0.22800  0.73340  1.0000 -0.2876872924
C   C53       1.0  0.84650  0.79180  0.70760  1.0000 -0.2812626419
C   C54       1.0  0.11620  0.72800  0.76660  1.0000 -0.2876872924
C   C55       1.0  0.15350  0.29180  0.29240  1.0000 -0.2812626419
C   C56       1.0  0.88380  0.22800  0.23340  1.0000 -0.2876872924
N   N1        1.0  0.57490  0.08953  0.57528  1.0000 -0.2295634953
N   N2        1.0  0.42510  0.58953  0.42472  1.0000 -0.2295634953
N   N3        1.0  0.42510  0.08953  0.07528  1.0000 -0.2295634953
N   N4        1.0  0.57490  0.58953  0.92472  1.0000 -0.2295634953
N   N5        1.0  0.51400  0.99759  0.62362  1.0000 -0.2295634953
N   N6        1.0  0.48600  0.49759  0.37638  1.0000 -0.2295634953
N   N7        1.0  0.48600  0.99759  0.12362  1.0000 -0.2295634953
N   N8        1.0  0.51400  0.49759  0.87638  1.0000 -0.2295634953
N   N9        1.0  0.83370  0.00482  0.55244  1.0000 -0.2405484637
N   N10       1.0  0.16630  0.50482  0.44756  1.0000 -0.2405484637
N   N11       1.0  0.16630  0.00482  0.05244  1.0000 -0.2405484637
N   N12       1.0  0.83370  0.50482  0.94756  1.0000 -0.2405484637
N   N13       1.0  0.03380  0.78430  0.26119  1.0000 -0.1081150809
N   N14       1.0  0.96620  0.28430  0.73881  1.0000 -0.1081150809
N   N15       1.0  0.96620  0.78430  0.76119  1.0000 -0.1081150809
N   N16       1.0  0.03380  0.28430  0.23881  1.0000 -0.1081150809
O   O1        1.0  0.59170  0.29052  0.65089  1.0000 -0.6020955128
O   O2        1.0  0.40830  0.79052  0.34911  1.0000 -0.6020955128
O   O3        1.0  0.40830  0.29052  0.15089  1.0000 -0.6020955128
O   O4        1.0  0.59170  0.79052  0.84911  1.0000 -0.6020955128
O   O5        1.0  0.46970  0.27736  0.56379  1.0000 -0.4805209172
O   O6        1.0  0.53030  0.77736  0.43621  1.0000 -0.4805209172
O   O7        1.0  0.53030  0.27736  0.06379  1.0000 -0.4805209172
O   O8        1.0  0.46970  0.77736  0.93621  1.0000 -0.4805209172
O   O9        1.0  0.56460  0.92954  0.81164  1.0000 -0.5384710265
O   O10       1.0  0.43540  0.42954  0.18836  1.0000 -0.5384710265
O   O11       1.0  0.43540  0.92954  0.31164  1.0000 -0.5384710265
O   O12       1.0  0.56460  0.42954  0.68836  1.0000 -0.5384710265
O   O13       1.0  0.30190  0.88177  0.75224  1.0000 -0.5708865506
O   O14       1.0  0.69810  0.38177  0.24776  1.0000 -0.5708865506
O   O15       1.0  0.69810  0.88177  0.25224  1.0000 -0.5708865506
O   O16       1.0  0.30190  0.38177  0.74776  1.0000 -0.5708865506
O   O17       1.0  0.28110  0.91020  0.43121  1.0000 -0.5384710265
O   O18       1.0  0.71890  0.41020  0.56879  1.0000 -0.5384710265
O   O19       1.0  0.71890  0.91020  0.93121  1.0000 -0.5384710265
O   O20       1.0  0.28110  0.41020  0.06879  1.0000 -0.5384710265
O   O21       1.0  0.90410  0.88206  0.38756  1.0000 -0.5708865506
O   O22       1.0  0.09590  0.38206  0.61244  1.0000 -0.5708865506
O   O23       1.0  0.09590  0.88206  0.88756  1.0000 -0.5708865506
O   O24       1.0  0.90410  0.38206  0.11244  1.0000 -0.5708865506
O   O25       1.0  0.24230  0.08024  0.64096  1.0000 -0.4665934948
O   O26       1.0  0.75770  0.58024  0.35904  1.0000 -0.4665934948
O   O27       1.0  0.75770  0.08024  0.14096  1.0000 -0.4665934948
O   O28       1.0  0.24230  0.58024  0.85904  1.0000 -0.4665934948
O   O29       1.0  0.77440  0.91830  0.60101  1.0000 -0.4570686502
O   O30       1.0  0.22560  0.41830  0.39899  1.0000 -0.4570686502
O   O31       1.0  0.22560  0.91830  0.10101  1.0000 -0.4570686502
O   O32       1.0  0.77440  0.41830  0.89899  1.0000 -0.4570686502
O   O33       1.0  0.89890  0.09388  0.50813  1.0000 -0.4491879475
O   O34       1.0  0.10110  0.59388  0.49187  1.0000 -0.4491879475
O   O35       1.0  0.10110  0.09388  0.00813  1.0000 -0.4491879475
O   O36       1.0  0.89890  0.59388  0.99187  1.0000 -0.4491879475
