# DDEC6 charges by PACMAN v1.1 (https://github.com/mtap-research/PACMAN-charge/)
data_2011[CoNa][ant]3[ION]2
_chemical_formula_sum              "Na2 Co4 H68 C88 N8 O32"
_cell_length_a       12.2694
_cell_length_b       12.2694
_cell_length_c       19.4114
_cell_angle_alpha    85.9763
_cell_angle_beta     94.0237
_cell_angle_gamma    122.482

_symmetry_space_group_name_H-M    "P 1"
_symmetry_Int_Tables_number       1

loop_
  _symmetry_equiv_pos_as_xyz
  'x, y, z'

loop_
  _atom_site_type_symbol
  _atom_site_label
  _atom_site_symmetry_multiplicity
  _atom_site_fract_x
  _atom_site_fract_y
  _atom_site_fract_z
  _atom_site_occupancy
  _atom_site_charge
Na  Na1       1.0  0.59731  0.59731  0.75000  1.0000 0.8440441475
Na  Na2       1.0  0.40269  0.40269  0.25000  1.0000 0.8440441475
Co  Co1       1.0  0.37756  0.62508  0.83831  1.0000 0.9374588714
Co  Co2       1.0  0.62508  0.37756  0.66169  1.0000 0.9374588714
Co  Co3       1.0  0.62244  0.37492  0.16169  1.0000 0.9374588714
Co  Co4       1.0  0.37492  0.62244  0.33831  1.0000 0.9374588714
H   H1        1.0  0.66480  0.62880  0.97980  1.0000 0.1222007991
H   H2        1.0  0.62880  0.66480  0.52020  1.0000 0.1222007991
H   H3        1.0  0.33520  0.37120  0.02020  1.0000 0.1222007991
H   H4        1.0  0.37120  0.33520  0.47980  1.0000 0.1222007991
H   H5        1.0  0.51440  0.73940  0.11490  1.0000 0.1222007991
H   H6        1.0  0.73940  0.51440  0.38510  1.0000 0.1222007991
H   H7        1.0  0.48560  0.26060  0.88510  1.0000 0.1222007991
H   H8        1.0  0.26060  0.48560  0.61490  1.0000 0.1222007991
H   H9        1.0  0.51170  0.88310  0.03250  1.0000 0.1222007991
H   H10       1.0  0.88310  0.51170  0.46750  1.0000 0.1222007991
H   H11       1.0  0.48830  0.11690  0.96750  1.0000 0.1222007991
H   H12       1.0  0.11690  0.48830  0.53250  1.0000 0.1222007991
H   H13       1.0  0.40210  0.01730  0.81190  1.0000 0.1305298744
H   H14       1.0  0.01730  0.40210  0.68810  1.0000 0.1305298744
H   H15       1.0  0.59790  0.98270  0.18810  1.0000 0.1305298744
H   H16       1.0  0.98270  0.59790  0.31190  1.0000 0.1305298744
H   H17       1.0  0.78750  0.20830  0.82880  1.0000 0.1222007991
H   H18       1.0  0.20830  0.78750  0.67120  1.0000 0.1222007991
H   H19       1.0  0.21250  0.79170  0.17120  1.0000 0.1222007991
H   H20       1.0  0.79170  0.21250  0.32880  1.0000 0.1222007991
H   H21       1.0  0.77370  0.04650  0.90240  1.0000 0.1222007991
H   H22       1.0  0.04650  0.77370  0.59760  1.0000 0.1222007991
H   H23       1.0  0.22630  0.95350  0.09760  1.0000 0.1222007991
H   H24       1.0  0.95350  0.22630  0.40240  1.0000 0.1222007991
H   H25       1.0  0.30340  0.92940  0.43810  1.0000 0.1305298744
H   H26       1.0  0.55850  0.28290  0.37010  1.0000 0.1498754718
H   H27       1.0  0.56390  0.28410  0.49570  1.0000 0.1498754718
H   H28       1.0  0.31910  0.95330  0.31030  1.0000 0.1498754718
H   H29       1.0  0.46090  0.05630  0.28930  1.0000 0.1498754718
H   H30       1.0  0.35500  0.09140  0.28240  1.0000 0.1704072789
H   H31       1.0  0.46540  0.10020  0.59370  1.0000 0.1305298744
H   H32       1.0  0.37110  0.95770  0.57040  1.0000 0.1068418012
H   H33       1.0  0.26120  0.02140  0.63120  1.0000 0.140525131
H   H34       1.0  0.20500  0.99500  0.55490  1.0000 0.1305298744
H   H35       1.0  0.29920  0.13740  0.57800  1.0000 0.140525131
H   H36       1.0  0.92940  0.30340  0.06190  1.0000 0.1305298744
H   H37       1.0  0.28290  0.55850  0.12990  1.0000 0.1498754718
H   H38       1.0  0.28410  0.56390  0.00430  1.0000 0.1498754718
H   H39       1.0  0.95330  0.31910  0.18970  1.0000 0.1498754718
H   H40       1.0  0.05630  0.46090  0.21070  1.0000 0.1498754718
H   H41       1.0  0.09140  0.35500  0.21760  1.0000 0.1704072789
H   H42       1.0  0.10020  0.46540  0.90630  1.0000 0.1305298744
H   H43       1.0  0.95770  0.37110  0.92960  1.0000 0.1068418012
H   H44       1.0  0.02140  0.26120  0.86880  1.0000 0.140525131
H   H45       1.0  0.99500  0.20500  0.94510  1.0000 0.1305298744
H   H46       1.0  0.13740  0.29920  0.92200  1.0000 0.140525131
H   H47       1.0  0.69660  0.07060  0.56190  1.0000 0.1305298744
H   H48       1.0  0.44150  0.71710  0.62990  1.0000 0.1498754718
H   H49       1.0  0.43610  0.71590  0.50430  1.0000 0.1498754718
H   H50       1.0  0.68090  0.04670  0.68970  1.0000 0.1498754718
H   H51       1.0  0.53910  0.94370  0.71070  1.0000 0.1498754718
H   H52       1.0  0.64500  0.90860  0.71760  1.0000 0.1704072789
H   H53       1.0  0.53460  0.89980  0.40630  1.0000 0.1305298744
H   H54       1.0  0.62890  0.04230  0.42960  1.0000 0.1068418012
H   H55       1.0  0.73880  0.97860  0.36880  1.0000 0.140525131
H   H56       1.0  0.79500  0.00500  0.44510  1.0000 0.1305298744
H   H57       1.0  0.70080  0.86260  0.42200  1.0000 0.140525131
H   H58       1.0  0.07060  0.69660  0.93810  1.0000 0.1305298744
H   H59       1.0  0.71710  0.44150  0.87010  1.0000 0.1498754718
H   H60       1.0  0.71590  0.43610  0.99570  1.0000 0.1498754718
H   H61       1.0  0.04670  0.68090  0.81030  1.0000 0.1498754718
H   H62       1.0  0.94370  0.53910  0.78930  1.0000 0.1498754718
H   H63       1.0  0.90860  0.64500  0.78240  1.0000 0.1704072789
H   H64       1.0  0.89980  0.53460  0.09370  1.0000 0.1305298744
H   H65       1.0  0.04230  0.62890  0.07040  1.0000 0.1068418012
H   H66       1.0  0.97860  0.73880  0.13120  1.0000 0.140525131
H   H67       1.0  0.00500  0.79500  0.05490  1.0000 0.1305298744
H   H68       1.0  0.86260  0.70080  0.07800  1.0000 0.140525131
C   C1        1.0  0.57841  0.83719  0.95488  1.0000 0.0408338909
C   C2        1.0  0.83719  0.57841  0.54512  1.0000 0.0408338909
C   C3        1.0  0.42159  0.16281  0.04512  1.0000 0.0408338909
C   C4        1.0  0.16281  0.42159  0.45488  1.0000 0.0408338909
C   C5        1.0  0.62455  0.76005  0.93883  1.0000 -0.0708502303
C   C6        1.0  0.76005  0.62455  0.56117  1.0000 -0.0708502303
C   C7        1.0  0.37545  0.23995  0.06117  1.0000 -0.0708502303
C   C8        1.0  0.23995  0.37545  0.43883  1.0000 -0.0708502303
C   C9        1.0  0.63093  0.67767  0.98990  1.0000 -0.1105723503
C   C10       1.0  0.67767  0.63093  0.51010  1.0000 -0.1105723503
C   C11       1.0  0.36907  0.32233  0.01010  1.0000 -0.1105723503
C   C12       1.0  0.32233  0.36907  0.48990  1.0000 -0.1105723503
C   C13       1.0  0.58767  0.66773  0.05542  1.0000 -0.0178555043
C   C14       1.0  0.66773  0.58767  0.44458  1.0000 -0.0178555043
C   C15       1.0  0.41233  0.33227  0.94458  1.0000 -0.0178555043
C   C16       1.0  0.33227  0.41233  0.55542  1.0000 -0.0178555043
C   C17       1.0  0.54283  0.74477  0.07091  1.0000 -0.0937720104
C   C18       1.0  0.74477  0.54283  0.42909  1.0000 -0.0937720104
C   C19       1.0  0.45717  0.25523  0.92909  1.0000 -0.0937720104
C   C20       1.0  0.25523  0.45717  0.57091  1.0000 -0.0937720104
C   C21       1.0  0.53989  0.83011  0.02113  1.0000 -0.1162901195
C   C22       1.0  0.83011  0.53989  0.47887  1.0000 -0.1162901195
C   C23       1.0  0.46011  0.16989  0.97887  1.0000 -0.1162901195
C   C24       1.0  0.16989  0.46011  0.52113  1.0000 -0.1162901195
C   C25       1.0  0.57959  0.93401  0.90351  1.0000 0.0517726708
C   C26       1.0  0.93401  0.57959  0.59649  1.0000 0.0517726708
C   C27       1.0  0.42041  0.06599  0.09649  1.0000 0.0517726708
C   C28       1.0  0.06599  0.42041  0.40351  1.0000 0.0517726708
C   C29       1.0  0.46654  0.92546  0.87649  1.0000 -0.0580233536
C   C30       1.0  0.92546  0.46654  0.62351  1.0000 -0.0580233536
C   C31       1.0  0.53346  0.07454  0.12351  1.0000 -0.0580233536
C   C32       1.0  0.07454  0.53346  0.37649  1.0000 -0.0580233536
C   C33       1.0  0.47681  0.02319  0.83076  1.0000 -0.1105723503
C   C34       1.0  0.02319  0.47681  0.66924  1.0000 -0.1162901195
C   C35       1.0  0.52319  0.97681  0.16924  1.0000 -0.1162901195
C   C36       1.0  0.97681  0.52319  0.33076  1.0000 -0.1162901195
C   C37       1.0  0.59614  0.12886  0.81297  1.0000 -0.0178555043
C   C38       1.0  0.12886  0.59614  0.68703  1.0000 -0.0178555043
C   C39       1.0  0.40386  0.87114  0.18703  1.0000 -0.0178555043
C   C40       1.0  0.87114  0.40386  0.31297  1.0000 -0.0178555043
C   C41       1.0  0.70690  0.13730  0.84030  1.0000 -0.1105723503
C   C42       1.0  0.13730  0.70690  0.65970  1.0000 -0.1105723503
C   C43       1.0  0.29310  0.86270  0.15970  1.0000 -0.1105723503
C   C44       1.0  0.86270  0.29310  0.34030  1.0000 -0.1105723503
C   C45       1.0  0.69822  0.04038  0.88470  1.0000 -0.1309902384
C   C46       1.0  0.04038  0.69822  0.61530  1.0000 -0.1309902384
C   C47       1.0  0.30178  0.95962  0.11530  1.0000 -0.1309902384
C   C48       1.0  0.95962  0.30178  0.38470  1.0000 -0.1309902384
C   C49       1.0  0.65444  0.75256  0.86591  1.0000 0.5683317394
C   C50       1.0  0.75256  0.65444  0.63409  1.0000 0.5683317394
C   C51       1.0  0.34556  0.24744  0.13409  1.0000 0.5683317394
C   C52       1.0  0.24744  0.34556  0.36591  1.0000 0.5683317394
C   C53       1.0  0.58379  0.57081  0.10963  1.0000 0.5683317394
C   C54       1.0  0.57081  0.58379  0.39037  1.0000 0.5683317394
C   C55       1.0  0.41621  0.42919  0.89037  1.0000 0.5683317394
C   C56       1.0  0.42919  0.41621  0.60963  1.0000 0.5683317394
C   C57       1.0  0.33365  0.81515  0.89529  1.0000 0.5635875896
C   C58       1.0  0.81515  0.33365  0.60471  1.0000 0.5635875896
C   C59       1.0  0.66635  0.18485  0.10471  1.0000 0.5635875896
C   C60       1.0  0.18485  0.66635  0.39529  1.0000 0.5635875896
C   C61       1.0  0.60908  0.23252  0.76188  1.0000 0.518396555
C   C62       1.0  0.23252  0.60908  0.73812  1.0000 0.518396555
C   C63       1.0  0.39092  0.76748  0.23812  1.0000 0.518396555
C   C64       1.0  0.76748  0.39092  0.26188  1.0000 0.518396555
C   C65       1.0  0.36760  0.01700  0.43687  1.0000 0.0517726708
C   C66       1.0  0.50831  0.21229  0.39971  1.0000 -0.0937720104
C   C67       1.0  0.51170  0.21330  0.46845  1.0000 -0.0791793852
C   C68       1.0  0.38550  0.04370  0.30940  1.0000 -0.3155419543
C   C69       1.0  0.39098  0.04562  0.56387  1.0000 -0.0580233536
C   C70       1.0  0.27930  0.05030  0.58370  1.0000 -0.3721532985
C   C71       1.0  0.01700  0.36760  0.06313  1.0000 0.0517726708
C   C72       1.0  0.21229  0.50831  0.10029  1.0000 -0.0937720104
C   C73       1.0  0.21330  0.51170  0.03155  1.0000 -0.0791793852
C   C74       1.0  0.04370  0.38550  0.19060  1.0000 -0.3155419543
C   C75       1.0  0.04562  0.39098  0.93613  1.0000 -0.0549922078
C   C76       1.0  0.05030  0.27930  0.91630  1.0000 -0.3721532985
C   C77       1.0  0.63240  0.98300  0.56313  1.0000 0.0517726708
C   C78       1.0  0.49169  0.78771  0.60029  1.0000 -0.0937720104
C   C79       1.0  0.48830  0.78670  0.53155  1.0000 -0.0791793852
C   C80       1.0  0.61450  0.95630  0.69060  1.0000 -0.3155419543
C   C81       1.0  0.60902  0.95438  0.43613  1.0000 -0.0580233536
C   C82       1.0  0.72070  0.94970  0.41630  1.0000 -0.3721532985
C   C83       1.0  0.98300  0.63240  0.93687  1.0000 0.0517726708
C   C84       1.0  0.78771  0.49169  0.89971  1.0000 -0.0937720104
C   C85       1.0  0.78670  0.48830  0.96845  1.0000 -0.0791793852
C   C86       1.0  0.95630  0.61450  0.80940  1.0000 -0.3149816706
C   C87       1.0  0.95438  0.60902  0.06387  1.0000 -0.0549922078
C   C88       1.0  0.94970  0.72070  0.08370  1.0000 -0.3721532985
N   N1        1.0  0.41838  0.08962  0.38039  1.0000 0.1068418012
N   N2        1.0  0.42320  0.08940  0.49129  1.0000 0.0408338909
N   N3        1.0  0.08962  0.41838  0.11961  1.0000 0.1068418012
N   N4        1.0  0.08940  0.42320  0.00871  1.0000 0.0408338909
N   N5        1.0  0.58162  0.91038  0.61961  1.0000 0.1068418012
N   N6        1.0  0.57680  0.91060  0.50871  1.0000 0.0408338909
N   N7        1.0  0.91038  0.58162  0.88039  1.0000 0.1068418012
N   N8        1.0  0.91060  0.57680  0.99129  1.0000 0.0408338909
O   O1        1.0  0.75598  0.76262  0.85316  1.0000 -0.5219990774
O   O2        1.0  0.76262  0.75598  0.64684  1.0000 -0.5219990774
O   O3        1.0  0.24402  0.23738  0.14684  1.0000 -0.5219990774
O   O4        1.0  0.23738  0.24402  0.35316  1.0000 -0.5219990774
O   O5        1.0  0.56588  0.73062  0.81933  1.0000 -0.6272979542
O   O6        1.0  0.73062  0.56588  0.68067  1.0000 -0.6272979542
O   O7        1.0  0.43412  0.26938  0.18067  1.0000 -0.6272979542
O   O8        1.0  0.26938  0.43412  0.31933  1.0000 -0.6272979542
O   O9        1.0  0.63658  0.51102  0.09442  1.0000 -0.5531982197
O   O10       1.0  0.51102  0.63658  0.40558  1.0000 -0.5531982197
O   O11       1.0  0.36342  0.48898  0.90558  1.0000 -0.5531982197
O   O12       1.0  0.48898  0.36342  0.59442  1.0000 -0.5531982197
O   O13       1.0  0.53010  0.55410  0.16391  1.0000 -0.5863685025
O   O14       1.0  0.55410  0.53010  0.33609  1.0000 -0.5863685025
O   O15       1.0  0.46990  0.44590  0.83609  1.0000 -0.5863685025
O   O16       1.0  0.44590  0.46990  0.66391  1.0000 -0.5863685025
O   O17       1.0  0.30918  0.70034  0.89626  1.0000 -0.5685554906
O   O18       1.0  0.70034  0.30918  0.60374  1.0000 -0.5685554906
O   O19       1.0  0.69082  0.29966  0.10374  1.0000 -0.5685554906
O   O20       1.0  0.29966  0.69082  0.39626  1.0000 -0.5685554906
O   O21       1.0  0.25529  0.84211  0.90923  1.0000 -0.5219990774
O   O22       1.0  0.84211  0.25529  0.59077  1.0000 -0.5219990774
O   O23       1.0  0.74471  0.15789  0.09077  1.0000 -0.5219990774
O   O24       1.0  0.15789  0.74471  0.40923  1.0000 -0.5219990774
O   O25       1.0  0.71539  0.33481  0.75517  1.0000 -0.5219990774
O   O26       1.0  0.33481  0.71539  0.74483  1.0000 -0.5219990774
O   O27       1.0  0.28461  0.66519  0.24483  1.0000 -0.5219990774
O   O28       1.0  0.66519  0.28461  0.25517  1.0000 -0.5219990774
O   O29       1.0  0.51237  0.21163  0.72583  1.0000 -0.5010341196
O   O30       1.0  0.21163  0.51237  0.77417  1.0000 -0.5010341196
O   O31       1.0  0.48763  0.78837  0.27417  1.0000 -0.5010341196
O   O32       1.0  0.78837  0.48763  0.22583  1.0000 -0.5010341196
