# DDEC6 charges by PACMAN v1.1 (https://github.com/mtap-research/PACMAN-charge/)
data_2011[CoNa][ant]3[ION]1
_chemical_formula_sum              "Na2 Co4 H68 C88 N8 O32"
_cell_length_a       12.2554
_cell_length_b       12.2554
_cell_length_c       19.301
_cell_angle_alpha    86.3662
_cell_angle_beta     93.6338
_cell_angle_gamma    122.779

_symmetry_space_group_name_H-M    "P 1"
_symmetry_Int_Tables_number       1

loop_
  _symmetry_equiv_pos_as_xyz
  'x, y, z'

loop_
  _atom_site_type_symbol
  _atom_site_label
  _atom_site_symmetry_multiplicity
  _atom_site_fract_x
  _atom_site_fract_y
  _atom_site_fract_z
  _atom_site_occupancy
  _atom_site_charge
Na  Na1       1.0  0.59884  0.59884  0.25000  1.0000 0.8449877555
Na  Na2       1.0  0.40116  0.40116  0.75000  1.0000 0.8449877555
Co  Co1       1.0  0.37991  0.62829  0.33778  1.0000 0.9458519275
Co  Co2       1.0  0.62829  0.37991  0.16222  1.0000 0.9458519275
Co  Co3       1.0  0.62009  0.37171  0.66222  1.0000 0.9458519275
Co  Co4       1.0  0.37171  0.62009  0.83778  1.0000 0.9458519275
H   H1        1.0  0.66540  0.62780  0.47940  1.0000 0.1289965319
H   H2        1.0  0.62780  0.66540  0.02060  1.0000 0.1289965319
H   H3        1.0  0.33460  0.37220  0.52060  1.0000 0.1289965319
H   H4        1.0  0.37220  0.33460  0.97940  1.0000 0.1220915884
H   H5        1.0  0.51410  0.73970  0.61590  1.0000 0.1220915884
H   H6        1.0  0.73970  0.51410  0.88410  1.0000 0.1220915884
H   H7        1.0  0.48590  0.26030  0.38410  1.0000 0.1220915884
H   H8        1.0  0.26030  0.48590  0.11590  1.0000 0.1220915884
H   H9        1.0  0.51400  0.88480  0.53300  1.0000 0.1220915884
H   H10       1.0  0.88480  0.51400  0.96700  1.0000 0.1220915884
H   H11       1.0  0.48600  0.11520  0.46700  1.0000 0.1220915884
H   H12       1.0  0.11520  0.48600  0.03300  1.0000 0.1220915884
H   H13       1.0  0.41040  0.02540  0.31380  1.0000 0.1289965319
H   H14       1.0  0.02540  0.41040  0.18620  1.0000 0.1289965319
H   H15       1.0  0.58960  0.97460  0.68620  1.0000 0.1289965319
H   H16       1.0  0.97460  0.58960  0.81380  1.0000 0.1289965319
H   H17       1.0  0.79840  0.21000  0.32740  1.0000 0.1220915884
H   H18       1.0  0.21000  0.79840  0.17260  1.0000 0.1220915884
H   H19       1.0  0.20160  0.79000  0.67260  1.0000 0.1220915884
H   H20       1.0  0.79000  0.20160  0.82740  1.0000 0.1220915884
H   H21       1.0  0.78050  0.04530  0.40050  1.0000 0.1220915884
H   H22       1.0  0.04530  0.78050  0.09950  1.0000 0.1289965319
H   H23       1.0  0.21950  0.95470  0.59950  1.0000 0.1289965319
H   H24       1.0  0.95470  0.21950  0.90050  1.0000 0.1220915884
H   H25       1.0  0.07350  0.69890  0.44140  1.0000 0.1383835001
H   H26       1.0  0.71700  0.44640  0.36950  1.0000 0.1512357906
H   H27       1.0  0.71470  0.43330  0.49610  1.0000 0.1512357906
H   H28       1.0  0.05030  0.68950  0.31120  1.0000 0.1512357906
H   H29       1.0  0.91290  0.65770  0.28480  1.0000 0.1713545377
H   H30       1.0  0.94440  0.54940  0.28720  1.0000 0.1512357906
H   H31       1.0  0.04190  0.62750  0.57260  1.0000 0.1098332944
H   H32       1.0  0.89900  0.52960  0.59550  1.0000 0.1289965319
H   H33       1.0  0.97500  0.73300  0.63630  1.0000 0.1383835001
H   H34       1.0  0.85820  0.69420  0.58330  1.0000 0.1512357906
H   H35       1.0  0.00090  0.79210  0.56020  1.0000 0.1289965319
H   H36       1.0  0.69890  0.07350  0.05860  1.0000 0.1383835001
H   H37       1.0  0.44640  0.71700  0.13050  1.0000 0.1512357906
H   H38       1.0  0.43330  0.71470  0.00390  1.0000 0.1512357906
H   H39       1.0  0.68950  0.05030  0.18880  1.0000 0.1551995928
H   H40       1.0  0.65770  0.91290  0.21520  1.0000 0.1713545377
H   H41       1.0  0.54940  0.94440  0.21280  1.0000 0.1512357906
H   H42       1.0  0.62750  0.04190  0.92740  1.0000 0.1098332944
H   H43       1.0  0.52960  0.89900  0.90450  1.0000 0.1289965319
H   H44       1.0  0.73300  0.97500  0.86370  1.0000 0.1383835001
H   H45       1.0  0.69420  0.85820  0.91670  1.0000 0.1512357906
H   H46       1.0  0.79210  0.00090  0.93980  1.0000 0.1289965319
H   H47       1.0  0.92650  0.30110  0.55860  1.0000 0.1383835001
H   H48       1.0  0.28300  0.55360  0.63050  1.0000 0.1512357906
H   H49       1.0  0.28530  0.56670  0.50390  1.0000 0.1512357906
H   H50       1.0  0.94970  0.31050  0.68880  1.0000 0.1512357906
H   H51       1.0  0.08710  0.34230  0.71520  1.0000 0.1713545377
H   H52       1.0  0.05560  0.45060  0.71280  1.0000 0.1512357906
H   H53       1.0  0.95810  0.37250  0.42740  1.0000 0.1098332944
H   H54       1.0  0.10100  0.47040  0.40450  1.0000 0.1289965319
H   H55       1.0  0.02500  0.26700  0.36370  1.0000 0.1383835001
H   H56       1.0  0.14180  0.30580  0.41670  1.0000 0.1512357906
H   H57       1.0  0.99910  0.20790  0.43980  1.0000 0.1289965319
H   H58       1.0  0.30110  0.92650  0.94140  1.0000 0.1383835001
H   H59       1.0  0.55360  0.28300  0.86950  1.0000 0.1512357906
H   H60       1.0  0.56670  0.28530  0.99610  1.0000 0.1512357906
H   H61       1.0  0.31050  0.94970  0.81120  1.0000 0.1512357906
H   H62       1.0  0.34230  0.08710  0.78480  1.0000 0.1713545377
H   H63       1.0  0.45060  0.05560  0.78720  1.0000 0.1512357906
H   H64       1.0  0.37250  0.95810  0.07260  1.0000 0.1098332944
H   H65       1.0  0.47040  0.10100  0.09550  1.0000 0.1289965319
H   H66       1.0  0.26700  0.02500  0.13630  1.0000 0.1383835001
H   H67       1.0  0.30580  0.14180  0.08330  1.0000 0.1512357906
H   H68       1.0  0.20790  0.99910  0.06020  1.0000 0.1289965319
C   C1        1.0  0.58177  0.83823  0.45465  1.0000 0.0512816526
C   C2        1.0  0.83823  0.58177  0.04535  1.0000 0.0512816526
C   C3        1.0  0.41823  0.16177  0.54535  1.0000 0.0512816526
C   C4        1.0  0.16177  0.41823  0.95465  1.0000 0.0512816526
C   C5        1.0  0.62780  0.76020  0.43840  1.0000 -0.0741479901
C   C6        1.0  0.76020  0.62780  0.06160  1.0000 -0.0741479901
C   C7        1.0  0.37220  0.23980  0.56160  1.0000 -0.0741479901
C   C8        1.0  0.23980  0.37220  0.93840  1.0000 -0.0741479901
C   C9        1.0  0.63213  0.67727  0.48958  1.0000 -0.1088287453
C   C10       1.0  0.67727  0.63213  0.01042  1.0000 -0.1088287453
C   C11       1.0  0.36787  0.32273  0.51042  1.0000 -0.1088287453
C   C12       1.0  0.32273  0.36787  0.98958  1.0000 -0.1088287453
C   C13       1.0  0.58797  0.66703  0.55554  1.0000 -0.0185026994
C   C14       1.0  0.66703  0.58797  0.94446  1.0000 -0.0185026994
C   C15       1.0  0.41203  0.33297  0.44446  1.0000 -0.0185026994
C   C16       1.0  0.33297  0.41203  0.05554  1.0000 -0.0185026994
C   C17       1.0  0.54310  0.74510  0.57171  1.0000 -0.0940526129
C   C18       1.0  0.74510  0.54310  0.92829  1.0000 -0.0940526129
C   C19       1.0  0.45690  0.25490  0.42829  1.0000 -0.0940526129
C   C20       1.0  0.25490  0.45690  0.07171  1.0000 -0.0940526129
C   C21       1.0  0.54191  0.83129  0.52161  1.0000 -0.1186132637
C   C22       1.0  0.83129  0.54191  0.97839  1.0000 -0.1186132637
C   C23       1.0  0.45809  0.16871  0.47839  1.0000 -0.1186132637
C   C24       1.0  0.16871  0.45809  0.02161  1.0000 -0.1186132637
C   C25       1.0  0.58418  0.93562  0.40289  1.0000 0.0512816526
C   C26       1.0  0.93562  0.58418  0.09711  1.0000 0.0512816526
C   C27       1.0  0.41582  0.06438  0.59711  1.0000 0.0512816526
C   C28       1.0  0.06438  0.41582  0.90289  1.0000 0.0512816526
C   C29       1.0  0.47225  0.92935  0.37693  1.0000 -0.0630463698
C   C30       1.0  0.92935  0.47225  0.12307  1.0000 -0.0630463698
C   C31       1.0  0.52775  0.07065  0.62307  1.0000 -0.0630463698
C   C32       1.0  0.07065  0.52775  0.87693  1.0000 -0.0630463698
C   C33       1.0  0.48462  0.02938  0.33167  1.0000 -0.1088287453
C   C34       1.0  0.02938  0.48462  0.16833  1.0000 -0.1088287453
C   C35       1.0  0.51538  0.97062  0.66833  1.0000 -0.1088287453
C   C36       1.0  0.97062  0.51538  0.83167  1.0000 -0.1088287453
C   C37       1.0  0.60543  0.13397  0.31322  1.0000 -0.0185026994
C   C38       1.0  0.13397  0.60543  0.18678  1.0000 -0.0185026994
C   C39       1.0  0.39457  0.86603  0.68678  1.0000 -0.0185026994
C   C40       1.0  0.86603  0.39457  0.81322  1.0000 -0.0185026994
C   C41       1.0  0.71688  0.13992  0.33947  1.0000 -0.1088287453
C   C42       1.0  0.13992  0.71688  0.16053  1.0000 -0.1088287453
C   C43       1.0  0.28312  0.86008  0.66053  1.0000 -0.1088287453
C   C44       1.0  0.86008  0.28312  0.83947  1.0000 -0.1088287453
C   C45       1.0  0.70580  0.04140  0.38347  1.0000 -0.1317841357
C   C46       1.0  0.04140  0.70580  0.11653  1.0000 -0.1317841357
C   C47       1.0  0.29420  0.95860  0.61653  1.0000 -0.1317841357
C   C48       1.0  0.95860  0.29420  0.88347  1.0000 -0.1317841357
C   C49       1.0  0.65739  0.75261  0.36503  1.0000 0.5725238378
C   C50       1.0  0.75261  0.65739  0.13497  1.0000 0.5725238378
C   C51       1.0  0.34261  0.24739  0.63497  1.0000 0.5725238378
C   C52       1.0  0.24739  0.34261  0.86503  1.0000 0.5725238378
C   C53       1.0  0.41841  0.43099  0.39030  1.0000 0.5725238378
C   C54       1.0  0.43099  0.41841  0.10970  1.0000 0.5725238378
C   C55       1.0  0.58159  0.56901  0.60970  1.0000 0.5725238378
C   C56       1.0  0.56901  0.58159  0.89030  1.0000 0.5725238378
C   C57       1.0  0.33781  0.81939  0.39540  1.0000 0.5725238378
C   C58       1.0  0.81939  0.33781  0.10460  1.0000 0.5725238378
C   C59       1.0  0.66219  0.18061  0.60460  1.0000 0.5725238378
C   C60       1.0  0.18061  0.66219  0.89540  1.0000 0.5725238378
C   C61       1.0  0.62046  0.23934  0.26277  1.0000 0.5283770616
C   C62       1.0  0.23934  0.62046  0.23723  1.0000 0.5283770616
C   C63       1.0  0.37954  0.76066  0.73723  1.0000 0.5283770616
C   C64       1.0  0.76066  0.37954  0.76277  1.0000 0.5283770616
C   C65       1.0  0.98547  0.63453  0.43919  1.0000 0.0512816526
C   C66       1.0  0.78758  0.49442  0.39978  1.0000 -0.0940526129
C   C67       1.0  0.78629  0.48731  0.46906  1.0000 -0.0769489279
C   C68       1.0  0.95920  0.62400  0.30990  1.0000 -0.3169950714
C   C69       1.0  0.95316  0.60564  0.56624  1.0000 -0.0541128573
C   C70       1.0  0.94620  0.71620  0.58850  1.0000 -0.3714500909
C   C71       1.0  0.63453  0.98547  0.06081  1.0000 0.0512816526
C   C72       1.0  0.49442  0.78758  0.10022  1.0000 -0.0940526129
C   C73       1.0  0.48731  0.78629  0.03094  1.0000 -0.0769489279
C   C74       1.0  0.62400  0.95920  0.19010  1.0000 -0.3169950714
C   C75       1.0  0.60564  0.95316  0.93376  1.0000 -0.0541128573
C   C76       1.0  0.71620  0.94620  0.91150  1.0000 -0.3714500909
C   C77       1.0  0.01453  0.36547  0.56081  1.0000 0.0512816526
C   C78       1.0  0.21242  0.50558  0.60022  1.0000 -0.0940526129
C   C79       1.0  0.21371  0.51269  0.53094  1.0000 -0.0769489279
C   C80       1.0  0.04080  0.37600  0.69010  1.0000 -0.3169950714
C   C81       1.0  0.04684  0.39436  0.43376  1.0000 -0.0541128573
C   C82       1.0  0.05380  0.28380  0.41150  1.0000 -0.3714500909
C   C83       1.0  0.36547  0.01453  0.93919  1.0000 0.0512816526
C   C84       1.0  0.50558  0.21242  0.89978  1.0000 -0.0940526129
C   C85       1.0  0.51269  0.21371  0.96906  1.0000 -0.0769489279
C   C86       1.0  0.37600  0.04080  0.80990  1.0000 -0.3169950714
C   C87       1.0  0.39436  0.04684  0.06624  1.0000 -0.0541128573
C   C88       1.0  0.28380  0.05380  0.08850  1.0000 -0.3714500909
N   N1        1.0  0.91272  0.58608  0.38160  1.0000 0.1098332944
N   N2        1.0  0.91033  0.57467  0.49284  1.0000 0.0399549435
N   N3        1.0  0.58608  0.91272  0.11840  1.0000 0.1098332944
N   N4        1.0  0.57467  0.91033  0.00716  1.0000 0.0399549435
N   N5        1.0  0.08728  0.41392  0.61840  1.0000 0.1098332944
N   N6        1.0  0.08967  0.42533  0.50716  1.0000 0.0399549435
N   N7        1.0  0.41392  0.08728  0.88160  1.0000 0.1098332944
N   N8        1.0  0.42533  0.08967  0.99284  1.0000 0.0399549435
O   O1        1.0  0.75756  0.75864  0.35175  1.0000 -0.526538903
O   O2        1.0  0.75864  0.75756  0.14825  1.0000 -0.526538903
O   O3        1.0  0.24244  0.24136  0.64825  1.0000 -0.526538903
O   O4        1.0  0.24136  0.24244  0.85175  1.0000 -0.526538903
O   O5        1.0  0.56930  0.73272  0.31816  1.0000 -0.6282966082
O   O6        1.0  0.73272  0.56930  0.18184  1.0000 -0.6282966082
O   O7        1.0  0.43070  0.26728  0.68184  1.0000 -0.6282966082
O   O8        1.0  0.26728  0.43070  0.81816  1.0000 -0.6282966082
O   O9        1.0  0.36543  0.49119  0.40527  1.0000 -0.5582852309
O   O10       1.0  0.49119  0.36543  0.09473  1.0000 -0.5582852309
O   O11       1.0  0.63457  0.50881  0.59473  1.0000 -0.5582852309
O   O12       1.0  0.50881  0.63457  0.90527  1.0000 -0.5582852309
O   O13       1.0  0.47492  0.44808  0.33578  1.0000 -0.6018405204
O   O14       1.0  0.44808  0.47492  0.16422  1.0000 -0.6018405204
O   O15       1.0  0.52508  0.55192  0.66422  1.0000 -0.6018405204
O   O16       1.0  0.55192  0.52508  0.83578  1.0000 -0.6018405204
O   O17       1.0  0.31206  0.70358  0.39728  1.0000 -0.5723459666
O   O18       1.0  0.70358  0.31206  0.10272  1.0000 -0.5723459666
O   O19       1.0  0.68794  0.29642  0.60272  1.0000 -0.5723459666
O   O20       1.0  0.29642  0.68794  0.89728  1.0000 -0.5723459666
O   O21       1.0  0.25924  0.84796  0.40909  1.0000 -0.5356091057
O   O22       1.0  0.84796  0.25924  0.09091  1.0000 -0.5356091057
O   O23       1.0  0.74076  0.15204  0.59091  1.0000 -0.5356091057
O   O24       1.0  0.15204  0.74076  0.90909  1.0000 -0.5356091057
O   O25       1.0  0.73044  0.33976  0.25392  1.0000 -0.5356091057
O   O26       1.0  0.33976  0.73044  0.24608  1.0000 -0.5356091057
O   O27       1.0  0.26956  0.66024  0.74608  1.0000 -0.5356091057
O   O28       1.0  0.66024  0.26956  0.75392  1.0000 -0.5356091057
O   O29       1.0  0.52098  0.22202  0.22869  1.0000 -0.5219100212
O   O30       1.0  0.22202  0.52098  0.27131  1.0000 -0.5219100212
O   O31       1.0  0.47902  0.77798  0.77131  1.0000 -0.5219100212
O   O32       1.0  0.77798  0.47902  0.72869  1.0000 -0.5219100212
