# DDEC6 charges by PACMAN v1.1 (https://github.com/mtap-research/PACMAN-charge/)
data_2011[Zn][gis]3[ION]2
_chemical_formula_sum              "Zn4 P4 H48 C36 N4 O20"
_cell_length_a       13.2664
_cell_length_b       13.2664
_cell_length_c       10.534
_cell_angle_alpha    67.0001
_cell_angle_beta     113
_cell_angle_gamma    87.6453

_symmetry_space_group_name_H-M    "P 1"
_symmetry_Int_Tables_number       1

loop_
  _symmetry_equiv_pos_as_xyz
  'x, y, z'

loop_
  _atom_site_type_symbol
  _atom_site_label
  _atom_site_symmetry_multiplicity
  _atom_site_fract_x
  _atom_site_fract_y
  _atom_site_fract_z
  _atom_site_occupancy
  _atom_site_charge
Zn  Zn1       1.0  0.05608  0.84146  0.99305  1.0000 0.9994669269
Zn  Zn2       1.0  0.84146  0.05608  0.50695  1.0000 0.9994669269
Zn  Zn3       1.0  0.94392  0.15854  0.00695  1.0000 0.9994669269
Zn  Zn4       1.0  0.15854  0.94392  0.49305  1.0000 0.9994669269
P   P1        1.0  0.82991  0.04343  0.80395  1.0000 1.2564121793
P   P2        1.0  0.04343  0.82991  0.69605  1.0000 1.2564121793
P   P3        1.0  0.17009  0.95657  0.19605  1.0000 1.2564121793
P   P4        1.0  0.95657  0.17009  0.30395  1.0000 1.2564121793
H   H1        1.0  0.76460  0.83820  0.83430  1.0000 0.1197562763
H   H2        1.0  0.83820  0.76460  0.66570  1.0000 0.1197562763
H   H3        1.0  0.23540  0.16180  0.16570  1.0000 0.1197562763
H   H4        1.0  0.16180  0.23540  0.33430  1.0000 0.1197562763
H   H5        1.0  0.59850  0.78290  0.77380  1.0000 0.1197562763
H   H6        1.0  0.78290  0.59850  0.72620  1.0000 0.1197562763
H   H7        1.0  0.40150  0.21710  0.22620  1.0000 0.1197562763
H   H8        1.0  0.21710  0.40150  0.27380  1.0000 0.1197562763
H   H9        1.0  0.43230  0.09590  0.60430  1.0000 0.1197562763
H   H10       1.0  0.09590  0.43230  0.89570  1.0000 0.1197562763
H   H11       1.0  0.56770  0.90410  0.39570  1.0000 0.1197562763
H   H12       1.0  0.90410  0.56770  0.10430  1.0000 0.1197562763
H   H13       1.0  0.59820  0.15240  0.66290  1.0000 0.1197562763
H   H14       1.0  0.15240  0.59820  0.83710  1.0000 0.1197562763
H   H15       1.0  0.40180  0.84760  0.33710  1.0000 0.1197562763
H   H16       1.0  0.84760  0.40180  0.16290  1.0000 0.1197562763
H   H17       1.0  0.21410  0.74030  0.49980  1.0000 0.2740570318
H   H18       1.0  0.26410  0.63670  0.64180  1.0000 0.2567265492
H   H19       1.0  0.37540  0.66240  0.52750  1.0000 0.1298664459
H   H20       1.0  0.27650  0.66410  0.38260  1.0000 0.1298664459
H   H21       1.0  0.33150  0.55310  0.53690  1.0000 0.1197562763
H   H22       1.0  0.08000  0.65120  0.52530  1.0000 0.1298664459
H   H23       1.0  0.14610  0.54630  0.53360  1.0000 0.1197562763
H   H24       1.0  0.09240  0.65800  0.38030  1.0000 0.1373805414
H   H25       1.0  0.74030  0.21410  0.00020  1.0000 0.2740570318
H   H26       1.0  0.63670  0.26410  0.85820  1.0000 0.2567265492
H   H27       1.0  0.66240  0.37540  0.97250  1.0000 0.1298664459
H   H28       1.0  0.66410  0.27650  0.11740  1.0000 0.1298664459
H   H29       1.0  0.55310  0.33150  0.96310  1.0000 0.1197562763
H   H30       1.0  0.65120  0.08000  0.97470  1.0000 0.1298664459
H   H31       1.0  0.54630  0.14610  0.96640  1.0000 0.1197562763
H   H32       1.0  0.65800  0.09240  0.11970  1.0000 0.1373805414
H   H33       1.0  0.78590  0.25970  0.50020  1.0000 0.2740570318
H   H34       1.0  0.73590  0.36330  0.35820  1.0000 0.2567265492
H   H35       1.0  0.62460  0.33760  0.47250  1.0000 0.1298664459
H   H36       1.0  0.72350  0.33590  0.61740  1.0000 0.1298664459
H   H37       1.0  0.66850  0.44690  0.46310  1.0000 0.1197562763
H   H38       1.0  0.92000  0.34880  0.47470  1.0000 0.1298664459
H   H39       1.0  0.85390  0.45370  0.46640  1.0000 0.1197562763
H   H40       1.0  0.90760  0.34200  0.61970  1.0000 0.1373805414
H   H41       1.0  0.25970  0.78590  0.99980  1.0000 0.2740570318
H   H42       1.0  0.36330  0.73590  0.14180  1.0000 0.2567265492
H   H43       1.0  0.33760  0.62460  0.02750  1.0000 0.1298664459
H   H44       1.0  0.33590  0.72350  0.88260  1.0000 0.1298664459
H   H45       1.0  0.44690  0.66850  0.03690  1.0000 0.1197562763
H   H46       1.0  0.34880  0.92000  0.02530  1.0000 0.1298664459
H   H47       1.0  0.45370  0.85390  0.03360  1.0000 0.1197562763
H   H48       1.0  0.34200  0.90760  0.88030  1.0000 0.1373805414
C   C1        1.0  0.69878  0.00158  0.75590  1.0000 -0.1758150448
C   C2        1.0  0.00158  0.69878  0.74410  1.0000 -0.1747876544
C   C3        1.0  0.30122  0.99842  0.24410  1.0000 -0.1747876544
C   C4        1.0  0.99842  0.30122  0.25590  1.0000 -0.1747876544
C   C5        1.0  0.69740  0.89080  0.78790  1.0000 -0.0768705186
C   C6        1.0  0.89080  0.69740  0.71210  1.0000 -0.0768705186
C   C7        1.0  0.30260  0.10920  0.21210  1.0000 -0.0768705186
C   C8        1.0  0.10920  0.30260  0.28790  1.0000 -0.0768705186
C   C9        1.0  0.59830  0.85790  0.75230  1.0000 -0.0983136186
C   C10       1.0  0.85790  0.59830  0.74770  1.0000 -0.0983136186
C   C11       1.0  0.40170  0.14210  0.24770  1.0000 -0.0983136186
C   C12       1.0  0.14210  0.40170  0.25230  1.0000 -0.0983136186
C   C13       1.0  0.49857  0.93377  0.68520  1.0000 -0.0272646662
C   C14       1.0  0.93377  0.49857  0.81480  1.0000 -0.0272646662
C   C15       1.0  0.50143  0.06623  0.31480  1.0000 -0.0272646662
C   C16       1.0  0.06623  0.50143  0.18520  1.0000 -0.0272646662
C   C17       1.0  0.49980  0.04320  0.65170  1.0000 -0.0983136186
C   C18       1.0  0.04320  0.49980  0.84830  1.0000 -0.0983136186
C   C19       1.0  0.50020  0.95680  0.34830  1.0000 -0.0983136186
C   C20       1.0  0.95680  0.50020  0.15170  1.0000 -0.0983136186
C   C21       1.0  0.59890  0.07710  0.68670  1.0000 -0.0906431142
C   C22       1.0  0.07710  0.59890  0.81330  1.0000 -0.0906431142
C   C23       1.0  0.40110  0.92290  0.31330  1.0000 -0.0906431142
C   C24       1.0  0.92290  0.40110  0.18670  1.0000 -0.0906431142
C   C25       1.0  0.39060  0.89740  0.64430  1.0000 0.5454184424
C   C26       1.0  0.89740  0.39060  0.85570  1.0000 0.5454184424
C   C27       1.0  0.60940  0.10260  0.35570  1.0000 0.5454184424
C   C28       1.0  0.10260  0.60940  0.14430  1.0000 0.5454184424
C   C29       1.0  0.31000  0.63360  0.49270  1.0000 -0.2744523276
C   C30       1.0  0.12890  0.62690  0.49040  1.0000 -0.2793605317
C   C31       1.0  0.63360  0.31000  0.00730  1.0000 -0.2744523276
C   C32       1.0  0.62690  0.12890  0.00960  1.0000 -0.2793605317
C   C33       1.0  0.69000  0.36640  0.50730  1.0000 -0.2744523276
C   C34       1.0  0.87110  0.37310  0.50960  1.0000 -0.2793605317
C   C35       1.0  0.36640  0.69000  0.99270  1.0000 -0.2744523276
C   C36       1.0  0.37310  0.87110  0.99040  1.0000 -0.2793605317
N   N1        1.0  0.23140  0.66480  0.53860  1.0000 -0.0983136186
N   N2        1.0  0.66480  0.23140  0.96140  1.0000 -0.0983136186
N   N3        1.0  0.76860  0.33520  0.46140  1.0000 -0.0983136186
N   N4        1.0  0.33520  0.76860  0.03860  1.0000 -0.0983136186
O   O1        1.0  0.91701  0.93773  0.91610  1.0000 -0.7700173129
O   O2        1.0  0.93773  0.91701  0.58390  1.0000 -0.7700173129
O   O3        1.0  0.08299  0.06227  0.08390  1.0000 -0.7700173129
O   O4        1.0  0.06227  0.08299  0.41610  1.0000 -0.7700173129
O   O5        1.0  0.84285  0.10355  0.65830  1.0000 -0.7547203888
O   O6        1.0  0.10355  0.84285  0.84170  1.0000 -0.7547203888
O   O7        1.0  0.15715  0.89645  0.34170  1.0000 -0.7547203888
O   O8        1.0  0.89645  0.15715  0.15830  1.0000 -0.7547203888
O   O9        1.0  0.82219  0.12339  0.87060  1.0000 -0.7700173129
O   O10       1.0  0.12339  0.82219  0.62940  1.0000 -0.7640904575
O   O11       1.0  0.17781  0.87661  0.12940  1.0000 -0.7640904575
O   O12       1.0  0.87661  0.17781  0.37060  1.0000 -0.7640904575
O   O13       1.0  0.38872  0.80044  0.66310  1.0000 -0.5385565598
O   O14       1.0  0.80044  0.38872  0.83690  1.0000 -0.5385565598
O   O15       1.0  0.61128  0.19956  0.33690  1.0000 -0.5385565598
O   O16       1.0  0.19956  0.61128  0.16310  1.0000 -0.5385565598
O   O17       1.0  0.30463  0.97179  0.59050  1.0000 -0.5301557172
O   O18       1.0  0.97179  0.30463  0.90950  1.0000 -0.5301557172
O   O19       1.0  0.69537  0.02821  0.40950  1.0000 -0.5301557172
O   O20       1.0  0.02821  0.69537  0.09050  1.0000 -0.5301557172
