# DDEC6 charges by PACMAN v1.1 (https://github.com/mtap-research/PACMAN-charge/)
data_2012[Eu][acs]3[ION]1
_chemical_formula_sum              "Eu1 H66 C48 N9 O15"
_cell_length_a       12.488
_cell_length_b       12.488
_cell_length_c       12.336
_cell_angle_alpha    90
_cell_angle_beta     90
_cell_angle_gamma    120

_symmetry_space_group_name_H-M    "P 1"
_symmetry_Int_Tables_number       1

loop_
  _symmetry_equiv_pos_as_xyz
  'x, y, z'

loop_
  _atom_site_type_symbol
  _atom_site_label
  _atom_site_symmetry_multiplicity
  _atom_site_fract_x
  _atom_site_fract_y
  _atom_site_fract_z
  _atom_site_occupancy
  _atom_site_charge
Eu  Eu1       1.0  0.00000  0.00000  0.00000  1.0000 2.1036577674
H   H1        1.0  0.08720  0.31900  0.34760  1.0000 0.2444936188
H   H2        1.0  0.68100  0.76820  0.34760  1.0000 0.2444936188
H   H3        1.0  0.23180  0.91280  0.34760  1.0000 0.2444936188
H   H4        1.0  0.68100  0.91280  0.65240  1.0000 0.2444936188
H   H5        1.0  0.08720  0.76820  0.65240  1.0000 0.2444936188
H   H6        1.0  0.23180  0.31900  0.65240  1.0000 0.2444936188
H   H7        1.0  0.28960  0.49360  0.36000  1.0000 0.1114071759
H   H8        1.0  0.50640  0.79600  0.36000  1.0000 0.1114071759
H   H9        1.0  0.20400  0.71040  0.36000  1.0000 0.1114071759
H   H10       1.0  0.50640  0.71040  0.64000  1.0000 0.1114071759
H   H11       1.0  0.28960  0.79600  0.64000  1.0000 0.1114071759
H   H12       1.0  0.20400  0.49360  0.64000  1.0000 0.1114071759
H   H13       1.0  0.20210  0.53500  0.41310  1.0000 0.0992211851
H   H14       1.0  0.46500  0.66710  0.41310  1.0000 0.0992211851
H   H15       1.0  0.33290  0.79790  0.41310  1.0000 0.0992211851
H   H16       1.0  0.46500  0.79790  0.58690  1.0000 0.0992211851
H   H17       1.0  0.20210  0.66710  0.58690  1.0000 0.0992211851
H   H18       1.0  0.33290  0.53500  0.58690  1.0000 0.0992211851
H   H19       1.0  0.19680  0.47390  0.19710  1.0000 0.1287700573
H   H20       1.0  0.52610  0.72290  0.19710  1.0000 0.1287700573
H   H21       1.0  0.27710  0.80320  0.19710  1.0000 0.1287700573
H   H22       1.0  0.52610  0.80320  0.80290  1.0000 0.1287700573
H   H23       1.0  0.19680  0.72290  0.80290  1.0000 0.1287700573
H   H24       1.0  0.27710  0.47390  0.80290  1.0000 0.1287700573
H   H25       1.0  0.11060  0.51760  0.24870  1.0000 0.118893631
H   H26       1.0  0.48240  0.59300  0.24870  1.0000 0.118893631
H   H27       1.0  0.40700  0.88940  0.24870  1.0000 0.118893631
H   H28       1.0  0.48240  0.88940  0.75130  1.0000 0.118893631
H   H29       1.0  0.11060  0.59300  0.75130  1.0000 0.118893631
H   H30       1.0  0.40700  0.51760  0.75130  1.0000 0.118893631
H   H31       1.0  0.91440  0.36220  0.25260  1.0000 0.1287700573
H   H32       1.0  0.63780  0.55220  0.25260  1.0000 0.1287700573
H   H33       1.0  0.44780  0.08560  0.25260  1.0000 0.1287700573
H   H34       1.0  0.63780  0.08560  0.74740  1.0000 0.1287700573
H   H35       1.0  0.91440  0.55220  0.74740  1.0000 0.1287700573
H   H36       1.0  0.44780  0.36220  0.74740  1.0000 0.1287700573
H   H37       1.0  0.87960  0.24540  0.32310  1.0000 0.1287700573
H   H38       1.0  0.75460  0.63420  0.32310  1.0000 0.1287700573
H   H39       1.0  0.36580  0.12040  0.32310  1.0000 0.1287700573
H   H40       1.0  0.75460  0.12040  0.67690  1.0000 0.1287700573
H   H41       1.0  0.87960  0.63420  0.67690  1.0000 0.1287700573
H   H42       1.0  0.36580  0.24540  0.67690  1.0000 0.1287700573
H   H43       1.0  0.92850  0.53250  0.32830  1.0000 0.1287700573
H   H44       1.0  0.46750  0.39600  0.32830  1.0000 0.1287700573
H   H45       1.0  0.60400  0.07150  0.32830  1.0000 0.1287700573
H   H46       1.0  0.46750  0.07150  0.67170  1.0000 0.1287700573
H   H47       1.0  0.92850  0.39600  0.67170  1.0000 0.1287700573
H   H48       1.0  0.60400  0.53250  0.67170  1.0000 0.1287700573
H   H49       1.0  0.92870  0.28250  0.53090  1.0000 0.118893631
H   H50       1.0  0.71750  0.64620  0.53090  1.0000 0.118893631
H   H51       1.0  0.35380  0.07130  0.53090  1.0000 0.118893631
H   H52       1.0  0.71750  0.07130  0.46910  1.0000 0.118893631
H   H53       1.0  0.92870  0.64620  0.46910  1.0000 0.118893631
H   H54       1.0  0.35380  0.28250  0.46910  1.0000 0.118893631
H   H55       1.0  0.96920  0.17960  0.21100  1.0000 0.1442349406
H   H56       1.0  0.82040  0.78960  0.21100  1.0000 0.1442349406
H   H57       1.0  0.21040  0.03080  0.21100  1.0000 0.1442349406
H   H58       1.0  0.82040  0.03080  0.78900  1.0000 0.1442349406
H   H59       1.0  0.96920  0.78960  0.78900  1.0000 0.1442349406
H   H60       1.0  0.21040  0.17960  0.78900  1.0000 0.1442349406
H   H61       1.0  0.03470  0.29190  0.13130  1.0000 0.1574192049
H   H62       1.0  0.70810  0.74280  0.13130  1.0000 0.1574192049
H   H63       1.0  0.25720  0.96530  0.13130  1.0000 0.1574192049
H   H64       1.0  0.70810  0.96530  0.86870  1.0000 0.1574192049
H   H65       1.0  0.03470  0.74280  0.86870  1.0000 0.1574192049
H   H66       1.0  0.25720  0.29190  0.86870  1.0000 0.1574192049
C   C1        1.0  0.24450  0.53690  0.34670  1.0000 -0.166601762
C   C2        1.0  0.46310  0.70760  0.34670  1.0000 -0.166601762
C   C3        1.0  0.29240  0.75550  0.34670  1.0000 -0.166601762
C   C4        1.0  0.46310  0.75550  0.65330  1.0000 -0.166601762
C   C5        1.0  0.24450  0.70760  0.65330  1.0000 -0.166601762
C   C6        1.0  0.29240  0.53690  0.65330  1.0000 -0.166601762
C   C7        1.0  0.15380  0.47260  0.26300  1.0000 -0.1432127454
C   C8        1.0  0.52740  0.68120  0.26300  1.0000 -0.1432127454
C   C9        1.0  0.31880  0.84620  0.26300  1.0000 -0.1432127454
C   C10       1.0  0.52740  0.84620  0.73700  1.0000 -0.1432127454
C   C11       1.0  0.15380  0.68120  0.73700  1.0000 -0.1432127454
C   C12       1.0  0.31880  0.47260  0.73700  1.0000 -0.1432127454
C   C13       1.0  0.94000  0.33200  0.31500  1.0000 -0.2011627106
C   C14       1.0  0.66800  0.60800  0.31500  1.0000 -0.2011627106
C   C15       1.0  0.39200  0.06000  0.31500  1.0000 -0.2011627106
C   C16       1.0  0.66800  0.06000  0.68500  1.0000 -0.2011627106
C   C17       1.0  0.94000  0.60800  0.68500  1.0000 -0.2011627106
C   C18       1.0  0.39200  0.33200  0.68500  1.0000 -0.2011627106
C   C19       1.0  0.93290  0.39760  0.41110  1.0000 0.0724768194
C   C20       1.0  0.60240  0.53530  0.41110  1.0000 0.0724768194
C   C21       1.0  0.46470  0.06710  0.41110  1.0000 0.0724768194
C   C22       1.0  0.60240  0.06710  0.58890  1.0000 0.0724768194
C   C23       1.0  0.93290  0.53530  0.58890  1.0000 0.0724768194
C   C24       1.0  0.46470  0.39760  0.58890  1.0000 0.0724768194
C   C25       1.0  0.93040  0.50570  0.39820  1.0000 -0.1432127454
C   C26       1.0  0.49430  0.42470  0.39820  1.0000 -0.1432127454
C   C27       1.0  0.57530  0.06960  0.39820  1.0000 -0.1432127454
C   C28       1.0  0.49430  0.06960  0.60180  1.0000 -0.1432127454
C   C29       1.0  0.93040  0.42470  0.60180  1.0000 -0.1432127454
C   C30       1.0  0.57530  0.50570  0.60180  1.0000 -0.1432127454
C   C31       1.0  0.93040  0.35670  0.51840  1.0000 -0.1559999235
C   C32       1.0  0.64330  0.57370  0.51840  1.0000 -0.1559999235
C   C33       1.0  0.42630  0.06960  0.51840  1.0000 -0.1559999235
C   C34       1.0  0.64330  0.06960  0.48160  1.0000 -0.1559999235
C   C35       1.0  0.93040  0.57370  0.48160  1.0000 -0.1559999235
C   C36       1.0  0.42630  0.35670  0.48160  1.0000 -0.1559999235
C   C37       1.0  0.14850  0.23380  0.18670  1.0000 0.6373165699
C   C38       1.0  0.76620  0.91470  0.18670  1.0000 0.6373165699
C   C39       1.0  0.08530  0.85150  0.18670  1.0000 0.6373165699
C   C40       1.0  0.76620  0.85150  0.81330  1.0000 0.6373165699
C   C41       1.0  0.14850  0.91470  0.81330  1.0000 0.6373165699
C   C42       1.0  0.08530  0.23380  0.81330  1.0000 0.6373165699
C   C43       1.0  0.04460  0.25750  0.19860  1.0000 -0.313078746
C   C44       1.0  0.74250  0.78710  0.19860  1.0000 -0.313078746
C   C45       1.0  0.21290  0.95540  0.19860  1.0000 -0.313078746
C   C46       1.0  0.74250  0.95540  0.80140  1.0000 -0.313078746
C   C47       1.0  0.04460  0.78710  0.80140  1.0000 -0.313078746
C   C48       1.0  0.21290  0.25750  0.80140  1.0000 -0.313078746
N   N1        1.0  0.33333  0.66667  0.31900  1.0000 -0.0889267919
N   N2        1.0  0.33333  0.66667  0.68100  1.0000 -0.0889267919
N   N3        1.0  0.06150  0.34310  0.28810  1.0000 0.0369538046
N   N4        1.0  0.65690  0.71840  0.28810  1.0000 0.0369538046
N   N5        1.0  0.28160  0.93850  0.28810  1.0000 0.0369538046
N   N6        1.0  0.65690  0.93850  0.71190  1.0000 0.0369538046
N   N7        1.0  0.06150  0.71840  0.71190  1.0000 0.0369538046
N   N8        1.0  0.28160  0.34310  0.71190  1.0000 0.0369538046
N   N9        1.0  0.33333  0.66667  0.00000  1.0000 0.6695514174
O   O1        1.0  0.13400  0.15690  0.11240  1.0000 -0.7459307162
O   O2        1.0  0.84310  0.97710  0.11240  1.0000 -0.7459307162
O   O3        1.0  0.02290  0.86600  0.11240  1.0000 -0.7459307162
O   O4        1.0  0.84310  0.86600  0.88760  1.0000 -0.7459307162
O   O5        1.0  0.13400  0.97710  0.88760  1.0000 -0.7459307162
O   O6        1.0  0.02290  0.15690  0.88760  1.0000 -0.7459307162
O   O7        1.0  0.24150  0.28830  0.23940  1.0000 -0.5604913183
O   O8        1.0  0.71170  0.95320  0.23940  1.0000 -0.5604913183
O   O9        1.0  0.04680  0.75850  0.23940  1.0000 -0.5604913183
O   O10       1.0  0.71170  0.75850  0.76060  1.0000 -0.5604913183
O   O11       1.0  0.24150  0.95320  0.76060  1.0000 -0.5604913183
O   O12       1.0  0.04680  0.28830  0.76060  1.0000 -0.5604913183
O   O13       1.0  0.27505  0.55010  0.00000  1.0000 -0.5185188202
O   O14       1.0  0.44990  0.72495  0.00000  1.0000 -0.5185188202
O   O15       1.0  0.27505  0.72495  0.00000  1.0000 -0.5185188202
