# DDEC6 charges by PACMAN v1.1 (https://github.com/mtap-research/PACMAN-charge/)
data_2012[Ag][nbo]3[ION]3
_chemical_formula_sum              "Ag6 H48 C54 N24 Cl6 O24"
_cell_length_a       17.0179
_cell_length_b       17.0179
_cell_length_c       17.0179
_cell_angle_alpha    112.826
_cell_angle_beta     112.826
_cell_angle_gamma    112.826

_symmetry_space_group_name_H-M    "P 1"
_symmetry_Int_Tables_number       1

loop_
  _symmetry_equiv_pos_as_xyz
  'x, y, z'

loop_
  _atom_site_type_symbol
  _atom_site_label
  _atom_site_symmetry_multiplicity
  _atom_site_fract_x
  _atom_site_fract_y
  _atom_site_fract_z
  _atom_site_occupancy
  _atom_site_charge
Ag  Ag1       1.0  0.32402  0.66436  0.19587  1.0000 0.2506090022
Ag  Ag2       1.0  0.66436  0.19587  0.32402  1.0000 0.2506090022
Ag  Ag3       1.0  0.19587  0.32402  0.66436  1.0000 0.2506090022
Ag  Ag4       1.0  0.67598  0.33564  0.80413  1.0000 0.2506090022
Ag  Ag5       1.0  0.33564  0.80413  0.67598  1.0000 0.2506090022
Ag  Ag6       1.0  0.80413  0.67598  0.33564  1.0000 0.2506090022
H   H1        1.0  0.61150  0.08970  0.68830  1.0000 0.1233290244
H   H2        1.0  0.08970  0.68830  0.61150  1.0000 0.1233290244
H   H3        1.0  0.68830  0.61150  0.08970  1.0000 0.1251786219
H   H4        1.0  0.38850  0.91030  0.31170  1.0000 0.1233290244
H   H5        1.0  0.91030  0.31170  0.38850  1.0000 0.1233290244
H   H6        1.0  0.31170  0.38850  0.91030  1.0000 0.1233290244
H   H7        1.0  0.47140  0.82380  0.44360  1.0000 0.1233290244
H   H8        1.0  0.82380  0.44360  0.47140  1.0000 0.1233290244
H   H9        1.0  0.44360  0.47140  0.82380  1.0000 0.1233290244
H   H10       1.0  0.52860  0.17620  0.55640  1.0000 0.1233290244
H   H11       1.0  0.17620  0.55640  0.52860  1.0000 0.1233290244
H   H12       1.0  0.55640  0.52860  0.17620  1.0000 0.1233290244
H   H13       1.0  0.57800  0.91890  0.63850  1.0000 0.1584200578
H   H14       1.0  0.91890  0.63850  0.57800  1.0000 0.1584200578
H   H15       1.0  0.63850  0.57800  0.91890  1.0000 0.1584200578
H   H16       1.0  0.42200  0.08110  0.36150  1.0000 0.1584200578
H   H17       1.0  0.08110  0.36150  0.42200  1.0000 0.1584200578
H   H18       1.0  0.36150  0.42200  0.08110  1.0000 0.1584200578
H   H19       1.0  0.52030  0.85840  0.67420  1.0000 0.1406136321
H   H20       1.0  0.85840  0.67420  0.52030  1.0000 0.1406136321
H   H21       1.0  0.67420  0.52030  0.85840  1.0000 0.1406136321
H   H22       1.0  0.47970  0.14160  0.32580  1.0000 0.1406136321
H   H23       1.0  0.14160  0.32580  0.47970  1.0000 0.1406136321
H   H24       1.0  0.32580  0.47970  0.14160  1.0000 0.1406136321
H   H25       1.0  0.42550  0.04920  0.82120  1.0000 0.1233290244
H   H26       1.0  0.04920  0.82120  0.42550  1.0000 0.1233290244
H   H27       1.0  0.82120  0.42550  0.04920  1.0000 0.1233290244
H   H28       1.0  0.57450  0.95080  0.17880  1.0000 0.1233290244
H   H29       1.0  0.95080  0.17880  0.57450  1.0000 0.1233290244
H   H30       1.0  0.17880  0.57450  0.95080  1.0000 0.1233290244
H   H31       1.0  0.15380  0.59050  0.24120  1.0000 0.1233290244
H   H32       1.0  0.59050  0.24120  0.15380  1.0000 0.1233290244
H   H33       1.0  0.24120  0.15380  0.59050  1.0000 0.1233290244
H   H34       1.0  0.84620  0.40950  0.75880  1.0000 0.1233290244
H   H35       1.0  0.40950  0.75880  0.84620  1.0000 0.1233290244
H   H36       1.0  0.75880  0.84620  0.40950  1.0000 0.1233290244
H   H37       1.0  0.15400  0.63290  0.38820  1.0000 0.1101721691
H   H38       1.0  0.63290  0.38820  0.15400  1.0000 0.1101721691
H   H39       1.0  0.38820  0.15400  0.63290  1.0000 0.1101721691
H   H40       1.0  0.84600  0.36710  0.61180  1.0000 0.1101721691
H   H41       1.0  0.36710  0.61180  0.84600  1.0000 0.1101721691
H   H42       1.0  0.61180  0.84600  0.36710  1.0000 0.1101721691
H   H43       1.0  0.52340  0.21110  0.84580  1.0000 0.1101721691
H   H44       1.0  0.21110  0.84580  0.52340  1.0000 0.1101721691
H   H45       1.0  0.84580  0.52340  0.21110  1.0000 0.1101721691
H   H46       1.0  0.47660  0.78890  0.15420  1.0000 0.1101721691
H   H47       1.0  0.78890  0.15420  0.47660  1.0000 0.1101721691
H   H48       1.0  0.15420  0.47660  0.78890  1.0000 0.1101721691
C   C1        1.0  0.41150  0.80580  0.52240  1.0000 0.218179168
C   C2        1.0  0.80580  0.52240  0.41150  1.0000 0.218179168
C   C3        1.0  0.52240  0.41150  0.80580  1.0000 0.218179168
C   C4        1.0  0.58850  0.19420  0.47760  1.0000 0.218179168
C   C5        1.0  0.19420  0.47760  0.58850  1.0000 0.218179168
C   C6        1.0  0.47760  0.58850  0.19420  1.0000 0.218179168
C   C7        1.0  0.51990  0.98740  0.70190  1.0000 0.2122648524
C   C8        1.0  0.98740  0.70190  0.51990  1.0000 0.2122648524
C   C9        1.0  0.70190  0.51990  0.98740  1.0000 0.2122648524
C   C10       1.0  0.48010  0.01260  0.29810  1.0000 0.2122648524
C   C11       1.0  0.01260  0.29810  0.48010  1.0000 0.2122648524
C   C12       1.0  0.29810  0.48010  0.01260  1.0000 0.2122648524
C   C13       1.0  0.57670  0.08390  0.72020  1.0000 -0.0303815468
C   C14       1.0  0.08390  0.72020  0.57670  1.0000 -0.0303815468
C   C15       1.0  0.72020  0.57670  0.08390  1.0000 -0.0303815468
C   C16       1.0  0.42330  0.91610  0.27980  1.0000 -0.0303815468
C   C17       1.0  0.91610  0.27980  0.42330  1.0000 -0.0303815468
C   C18       1.0  0.27980  0.42330  0.91610  1.0000 -0.0303815468
C   C19       1.0  0.40550  0.78250  0.43200  1.0000 -0.0303815468
C   C20       1.0  0.78250  0.43200  0.40550  1.0000 -0.0303815468
C   C21       1.0  0.43200  0.40550  0.78250  1.0000 -0.0303815468
C   C22       1.0  0.59450  0.21750  0.56800  1.0000 -0.0303815468
C   C23       1.0  0.21750  0.56800  0.59450  1.0000 -0.0303815468
C   C24       1.0  0.56800  0.59450  0.21750  1.0000 -0.0303815468
C   C25       1.0  0.51450  0.89150  0.63760  1.0000 -0.3343443208
C   C26       1.0  0.89150  0.63760  0.51450  1.0000 -0.3343443208
C   C27       1.0  0.63760  0.51450  0.89150  1.0000 -0.3343443208
C   C28       1.0  0.48550  0.10850  0.36240  1.0000 -0.3343443208
C   C29       1.0  0.10850  0.36240  0.48550  1.0000 -0.3343443208
C   C30       1.0  0.36240  0.48550  0.10850  1.0000 -0.3343443208
C   C31       1.0  0.46460  0.05610  0.79350  1.0000 0.0673923286
C   C32       1.0  0.05610  0.79350  0.46460  1.0000 0.0673923286
C   C33       1.0  0.79350  0.46460  0.05610  1.0000 0.0673923286
C   C34       1.0  0.53540  0.94390  0.20650  1.0000 0.0673923286
C   C35       1.0  0.94390  0.20650  0.53540  1.0000 0.0673923286
C   C36       1.0  0.20650  0.53540  0.94390  1.0000 0.0673923286
C   C37       1.0  0.22150  0.64850  0.31440  1.0000 0.0288459732
C   C38       1.0  0.64850  0.31440  0.22150  1.0000 0.0288459732
C   C39       1.0  0.31440  0.22150  0.64850  1.0000 0.0288459732
C   C40       1.0  0.77850  0.35150  0.68560  1.0000 0.0288459732
C   C41       1.0  0.35150  0.68560  0.77850  1.0000 0.0288459732
C   C42       1.0  0.68560  0.77850  0.35150  1.0000 0.0288459732
C   C43       1.0  0.22190  0.67150  0.40200  1.0000 0.0390599511
C   C44       1.0  0.67150  0.40200  0.22190  1.0000 0.0390599511
C   C45       1.0  0.40200  0.22190  0.67150  1.0000 0.0390599511
C   C46       1.0  0.77810  0.32850  0.59800  1.0000 0.0390599511
C   C47       1.0  0.32850  0.59800  0.77810  1.0000 0.0390599511
C   C48       1.0  0.59800  0.77810  0.32850  1.0000 0.0390599511
C   C49       1.0  0.52610  0.15430  0.81050  1.0000 0.0217883101
C   C50       1.0  0.15430  0.81050  0.52610  1.0000 0.0217883101
C   C51       1.0  0.81050  0.52610  0.15430  1.0000 0.0217883101
C   C52       1.0  0.47390  0.84570  0.18950  1.0000 0.0217883101
C   C53       1.0  0.84570  0.18950  0.47390  1.0000 0.0217883101
C   C54       1.0  0.18950  0.47390  0.84570  1.0000 0.0217883101
N   N1        1.0  0.31110  0.70450  0.32990  1.0000 -0.1562552932
N   N2        1.0  0.70450  0.32990  0.31110  1.0000 -0.1562552932
N   N3        1.0  0.32990  0.31110  0.70450  1.0000 -0.1562552932
N   N4        1.0  0.68890  0.29550  0.67010  1.0000 -0.1562552932
N   N5        1.0  0.29550  0.67010  0.68890  1.0000 -0.1562552932
N   N6        1.0  0.67010  0.68890  0.29550  1.0000 -0.1562552932
N   N7        1.0  0.46270  0.97600  0.73990  1.0000 -0.2018779375
N   N8        1.0  0.97600  0.73990  0.46270  1.0000 -0.2018779375
N   N9        1.0  0.73990  0.46270  0.97600  1.0000 -0.2018779375
N   N10       1.0  0.53730  0.02400  0.26010  1.0000 -0.2018779375
N   N11       1.0  0.02400  0.26010  0.53730  1.0000 -0.2018779375
N   N12       1.0  0.26010  0.53730  0.02400  1.0000 -0.2018779375
N   N13       1.0  0.31570  0.74660  0.50550  1.0000 -0.2316408488
N   N14       1.0  0.74660  0.50550  0.31570  1.0000 -0.2316408488
N   N15       1.0  0.50550  0.31570  0.74660  1.0000 -0.2316408488
N   N16       1.0  0.68430  0.25340  0.49450  1.0000 -0.2316408488
N   N17       1.0  0.25340  0.49450  0.68430  1.0000 -0.2316408488
N   N18       1.0  0.49450  0.68430  0.25340  1.0000 -0.2316408488
N   N19       1.0  0.58560  0.16970  0.78000  1.0000 -0.1697972896
N   N20       1.0  0.16970  0.78000  0.58560  1.0000 -0.1697972896
N   N21       1.0  0.78000  0.58560  0.16970  1.0000 -0.1697972896
N   N22       1.0  0.41440  0.83030  0.22000  1.0000 -0.1697972896
N   N23       1.0  0.83030  0.22000  0.41440  1.0000 -0.1697972896
N   N24       1.0  0.22000  0.41440  0.83030  1.0000 -0.1697972896
Cl  Cl1       1.0  0.25384  0.93636  0.40510  1.0000 1.2265442925
Cl  Cl2       1.0  0.40510  0.25384  0.93636  1.0000 1.2265442925
Cl  Cl3       1.0  0.93636  0.40510  0.25384  1.0000 1.2265442925
Cl  Cl4       1.0  0.74616  0.06364  0.59490  1.0000 1.2265442925
Cl  Cl5       1.0  0.59490  0.74616  0.06364  1.0000 1.2265442925
Cl  Cl6       1.0  0.06364  0.59490  0.74616  1.0000 1.2265442925
O   O1        1.0  0.20010  0.96810  0.43910  1.0000 -0.4693999696
O   O2        1.0  0.35260  0.98370  0.50020  1.0000 -0.5248090906
O   O3        1.0  0.17790  0.82180  0.33910  1.0000 -0.4593984567
O   O4        1.0  0.25550  0.95650  0.33380  1.0000 -0.4693999696
O   O5        1.0  0.43910  0.20010  0.96810  1.0000 -0.4693999696
O   O6        1.0  0.50020  0.35260  0.98370  1.0000 -0.5248090906
O   O7        1.0  0.33910  0.17790  0.82180  1.0000 -0.4593984567
O   O8        1.0  0.33380  0.25550  0.95650  1.0000 -0.4693999696
O   O9        1.0  0.96810  0.43910  0.20010  1.0000 -0.4693999696
O   O10       1.0  0.98370  0.50020  0.35260  1.0000 -0.5248090906
O   O11       1.0  0.82180  0.33910  0.17790  1.0000 -0.4593984567
O   O12       1.0  0.95650  0.33380  0.25550  1.0000 -0.4693999696
O   O13       1.0  0.79990  0.03190  0.56090  1.0000 -0.4693999696
O   O14       1.0  0.64740  0.01630  0.49980  1.0000 -0.5248090906
O   O15       1.0  0.82210  0.17820  0.66090  1.0000 -0.4593984567
O   O16       1.0  0.74450  0.04350  0.66620  1.0000 -0.4693999696
O   O17       1.0  0.56090  0.79990  0.03190  1.0000 -0.4693999696
O   O18       1.0  0.49980  0.64740  0.01630  1.0000 -0.5248090906
O   O19       1.0  0.66090  0.82210  0.17820  1.0000 -0.4593984567
O   O20       1.0  0.66620  0.74450  0.04350  1.0000 -0.4693999696
O   O21       1.0  0.03190  0.56090  0.79990  1.0000 -0.4693999696
O   O22       1.0  0.01630  0.49980  0.64740  1.0000 -0.5248090906
O   O23       1.0  0.17820  0.66090  0.82210  1.0000 -0.4593984567
O   O24       1.0  0.04350  0.66620  0.74450  1.0000 -0.4693999696
