# DDEC6 charges by PACMAN v1.1 (https://github.com/mtap-research/PACMAN-charge/)
data_2012[Ag][nbo]3[ION]2
_chemical_formula_sum              "Ag6 H48 C54 N24 Cl6 O24"
_cell_length_a       16.8551
_cell_length_b       16.8551
_cell_length_c       16.8551
_cell_angle_alpha    114.749
_cell_angle_beta     114.749
_cell_angle_gamma    114.749

_symmetry_space_group_name_H-M    "P 1"
_symmetry_Int_Tables_number       1

loop_
  _symmetry_equiv_pos_as_xyz
  'x, y, z'

loop_
  _atom_site_type_symbol
  _atom_site_label
  _atom_site_symmetry_multiplicity
  _atom_site_fract_x
  _atom_site_fract_y
  _atom_site_fract_z
  _atom_site_occupancy
  _atom_site_charge
Ag  Ag1       1.0  0.87414  0.32883  0.21749  1.0000 0.257849763
Ag  Ag2       1.0  0.32883  0.21749  0.87414  1.0000 0.257849763
Ag  Ag3       1.0  0.21749  0.87414  0.32883  1.0000 0.257849763
Ag  Ag4       1.0  0.12586  0.67117  0.78251  1.0000 0.257849763
Ag  Ag5       1.0  0.67117  0.78251  0.12586  1.0000 0.257849763
Ag  Ag6       1.0  0.78251  0.12586  0.67117  1.0000 0.257849763
H   H1        1.0  0.01420  0.61770  0.40020  1.0000 0.1219263637
H   H2        1.0  0.61770  0.40020  0.01420  1.0000 0.1219263637
H   H3        1.0  0.40020  0.01420  0.61770  1.0000 0.1219263637
H   H4        1.0  0.98580  0.38230  0.59980  1.0000 0.1219263637
H   H5        1.0  0.38230  0.59980  0.98580  1.0000 0.1219263637
H   H6        1.0  0.59980  0.98580  0.38230  1.0000 0.1219263637
H   H7        1.0  0.17200  0.63040  0.23810  1.0000 0.1219263637
H   H8        1.0  0.63040  0.23810  0.17200  1.0000 0.1219263637
H   H9        1.0  0.23810  0.17200  0.63040  1.0000 0.1219263637
H   H10       1.0  0.82800  0.36960  0.76190  1.0000 0.1219263637
H   H11       1.0  0.36960  0.76190  0.82800  1.0000 0.1219263637
H   H12       1.0  0.76190  0.82800  0.36960  1.0000 0.1219263637
H   H13       1.0  0.98770  0.32710  0.96640  1.0000 0.1219263637
H   H14       1.0  0.32710  0.96640  0.98770  1.0000 0.1219263637
H   H15       1.0  0.96640  0.98770  0.32710  1.0000 0.1219263637
H   H16       1.0  0.01230  0.67290  0.03360  1.0000 0.1219263637
H   H17       1.0  0.67290  0.03360  0.01230  1.0000 0.1219263637
H   H18       1.0  0.03360  0.01230  0.67290  1.0000 0.1219263637
H   H19       1.0  0.65140  0.12350  0.90240  1.0000 0.101665343
H   H20       1.0  0.12350  0.90240  0.65140  1.0000 0.101665343
H   H21       1.0  0.90240  0.65140  0.12350  1.0000 0.101665343
H   H22       1.0  0.34860  0.87650  0.09760  1.0000 0.101665343
H   H23       1.0  0.87650  0.09760  0.34860  1.0000 0.101665343
H   H24       1.0  0.09760  0.34860  0.87650  1.0000 0.101665343
H   H25       1.0  0.06960  0.39100  0.22200  1.0000 0.140435959
H   H26       1.0  0.39100  0.22200  0.06960  1.0000 0.140435959
H   H27       1.0  0.22200  0.06960  0.39100  1.0000 0.140435959
H   H28       1.0  0.93040  0.60900  0.77800  1.0000 0.140435959
H   H29       1.0  0.60900  0.77800  0.93040  1.0000 0.140435959
H   H30       1.0  0.77800  0.93040  0.60900  1.0000 0.140435959
H   H31       1.0  0.12570  0.44880  0.18280  1.0000 0.1553716462
H   H32       1.0  0.44880  0.18280  0.12570  1.0000 0.1553716462
H   H33       1.0  0.18280  0.12570  0.44880  1.0000 0.1553716462
H   H34       1.0  0.87430  0.55120  0.81720  1.0000 0.1553716462
H   H35       1.0  0.55120  0.81720  0.87430  1.0000 0.1553716462
H   H36       1.0  0.81720  0.87430  0.55120  1.0000 0.1553716462
H   H37       1.0  0.61950  0.05670  0.72750  1.0000 0.1219263637
H   H38       1.0  0.05670  0.72750  0.61950  1.0000 0.1219263637
H   H39       1.0  0.72750  0.61950  0.05670  1.0000 0.1219263637
H   H40       1.0  0.38050  0.94330  0.27250  1.0000 0.1219263637
H   H41       1.0  0.94330  0.27250  0.38050  1.0000 0.1219263637
H   H42       1.0  0.27250  0.38050  0.94330  1.0000 0.1219263637
H   H43       1.0  0.10680  0.77790  0.41950  1.0000 0.1144962263
H   H44       1.0  0.77790  0.41950  0.10680  1.0000 0.1144962263
H   H45       1.0  0.41950  0.10680  0.77790  1.0000 0.1144962263
H   H46       1.0  0.89320  0.22210  0.58050  1.0000 0.1144962263
H   H47       1.0  0.22210  0.58050  0.89320  1.0000 0.1144962263
H   H48       1.0  0.58050  0.89320  0.22210  1.0000 0.1144962263
C   C1        1.0  0.04470  0.61750  0.36390  1.0000 0.0370008897
C   C2        1.0  0.61750  0.36390  0.04470  1.0000 0.0370008897
C   C3        1.0  0.36390  0.04470  0.61750  1.0000 0.0370008897
C   C4        1.0  0.95530  0.38250  0.63610  1.0000 0.0370008897
C   C5        1.0  0.38250  0.63610  0.95530  1.0000 0.0370008897
C   C6        1.0  0.63610  0.95530  0.38250  1.0000 0.0370008897
C   C7        1.0  0.13730  0.62720  0.27030  1.0000 -0.0190771863
C   C8        1.0  0.62720  0.27030  0.13730  1.0000 -0.0190771863
C   C9        1.0  0.27030  0.13730  0.62720  1.0000 -0.0190771863
C   C10       1.0  0.86270  0.37280  0.72970  1.0000 -0.0190771863
C   C11       1.0  0.37280  0.72970  0.86270  1.0000 -0.0190771863
C   C12       1.0  0.72970  0.86270  0.37280  1.0000 -0.0190771863
C   C13       1.0  0.92770  0.30950  0.04340  1.0000 0.2061067324
C   C14       1.0  0.30950  0.04340  0.92770  1.0000 0.2061067324
C   C15       1.0  0.04340  0.92770  0.30950  1.0000 0.2061067324
C   C16       1.0  0.07230  0.69050  0.95660  1.0000 0.2061067324
C   C17       1.0  0.69050  0.95660  0.07230  1.0000 0.2061067324
C   C18       1.0  0.95660  0.07230  0.69050  1.0000 0.2061067324
C   C19       1.0  0.91520  0.27900  0.94870  1.0000 -0.0190771863
C   C20       1.0  0.27900  0.94870  0.91520  1.0000 -0.0190771863
C   C21       1.0  0.94870  0.91520  0.27900  1.0000 -0.0190771863
C   C22       1.0  0.08480  0.72100  0.05130  1.0000 -0.0190771863
C   C23       1.0  0.72100  0.05130  0.08480  1.0000 -0.0190771863
C   C24       1.0  0.05130  0.08480  0.72100  1.0000 -0.0190771863
C   C25       1.0  0.72250  0.16460  0.91650  1.0000 0.0464476075
C   C26       1.0  0.16460  0.91650  0.72250  1.0000 0.0464476075
C   C27       1.0  0.91650  0.72250  0.16460  1.0000 0.0464476075
C   C28       1.0  0.27750  0.83540  0.08350  1.0000 0.0464476075
C   C29       1.0  0.83540  0.08350  0.27750  1.0000 0.0464476075
C   C30       1.0  0.08350  0.27750  0.83540  1.0000 0.0464476075
C   C31       1.0  0.07770  0.52660  0.25350  1.0000 0.225882729
C   C32       1.0  0.52660  0.25350  0.07770  1.0000 0.225882729
C   C33       1.0  0.25350  0.07770  0.52660  1.0000 0.225882729
C   C34       1.0  0.92230  0.47340  0.74650  1.0000 0.225882729
C   C35       1.0  0.47340  0.74650  0.92230  1.0000 0.225882729
C   C36       1.0  0.74650  0.92230  0.47340  1.0000 0.225882729
C   C37       1.0  0.06030  0.42010  0.18180  1.0000 -0.3331382174
C   C38       1.0  0.42010  0.18180  0.06030  1.0000 -0.3331382174
C   C39       1.0  0.18180  0.06030  0.42010  1.0000 -0.3331382174
C   C40       1.0  0.93970  0.57990  0.81820  1.0000 -0.3331382174
C   C41       1.0  0.57990  0.81820  0.93970  1.0000 -0.3331382174
C   C42       1.0  0.81820  0.93970  0.57990  1.0000 -0.3331382174
C   C43       1.0  0.70220  0.12380  0.81050  1.0000 0.0245124724
C   C44       1.0  0.12380  0.81050  0.70220  1.0000 0.0245124724
C   C45       1.0  0.81050  0.70220  0.12380  1.0000 0.0245124724
C   C46       1.0  0.29780  0.87620  0.18950  1.0000 0.0245124724
C   C47       1.0  0.87620  0.18950  0.29780  1.0000 0.0252619486
C   C48       1.0  0.18950  0.29780  0.87620  1.0000 0.0245124724
C   C49       1.0  0.10090  0.71350  0.37640  1.0000 0.0049805612
C   C50       1.0  0.71350  0.37640  0.10090  1.0000 0.0049805612
C   C51       1.0  0.37640  0.10090  0.71350  1.0000 0.0049805612
C   C52       1.0  0.89910  0.28650  0.62360  1.0000 0.0049805612
C   C53       1.0  0.28650  0.62360  0.89910  1.0000 0.0049805612
C   C54       1.0  0.62360  0.89910  0.28650  1.0000 0.0049805612
N   N1        1.0  0.03050  0.52160  0.30210  1.0000 -0.2066948015
N   N2        1.0  0.52160  0.30210  0.03050  1.0000 -0.2066948015
N   N3        1.0  0.30210  0.03050  0.52160  1.0000 -0.2066948015
N   N4        1.0  0.96950  0.47840  0.69790  1.0000 -0.2066948015
N   N5        1.0  0.47840  0.69790  0.96950  1.0000 -0.2066948015
N   N6        1.0  0.69790  0.96950  0.47840  1.0000 -0.2066948015
N   N7        1.0  0.83520  0.25630  0.03220  1.0000 -0.2291708388
N   N8        1.0  0.25630  0.03220  0.83520  1.0000 -0.2291708388
N   N9        1.0  0.03220  0.83520  0.25630  1.0000 -0.2291708388
N   N10       1.0  0.16480  0.74370  0.96780  1.0000 -0.2291708388
N   N11       1.0  0.74370  0.96780  0.16480  1.0000 -0.2291708388
N   N12       1.0  0.96780  0.16480  0.74370  1.0000 -0.2291708388
N   N13       1.0  0.14830  0.72080  0.32980  1.0000 -0.1488095943
N   N14       1.0  0.72080  0.32980  0.14830  1.0000 -0.1488095943
N   N15       1.0  0.32980  0.14830  0.72080  1.0000 -0.1488095943
N   N16       1.0  0.85170  0.27920  0.67020  1.0000 -0.1488095943
N   N17       1.0  0.27920  0.67020  0.85170  1.0000 -0.1488095943
N   N18       1.0  0.67020  0.85170  0.27920  1.0000 -0.1488095943
N   N19       1.0  0.80350  0.18330  0.83180  1.0000 -0.1440613864
N   N20       1.0  0.18330  0.83180  0.80350  1.0000 -0.1440613864
N   N21       1.0  0.83180  0.80350  0.18330  1.0000 -0.1440613864
N   N22       1.0  0.19650  0.81670  0.16820  1.0000 -0.1440613864
N   N23       1.0  0.81670  0.16820  0.19650  1.0000 -0.1440613864
N   N24       1.0  0.16820  0.19650  0.81670  1.0000 -0.1440613864
Cl  Cl1       1.0  0.72238  0.38906  0.87366  1.0000 1.2423613868
Cl  Cl2       1.0  0.87366  0.72238  0.38906  1.0000 1.2423613868
Cl  Cl3       1.0  0.38906  0.87366  0.72238  1.0000 1.2423613868
Cl  Cl4       1.0  0.27762  0.61094  0.12634  1.0000 1.2423613868
Cl  Cl5       1.0  0.12634  0.27762  0.61094  1.0000 1.2423613868
Cl  Cl6       1.0  0.61094  0.12634  0.27762  1.0000 1.2423613868
O   O1        1.0  0.77020  0.46230  0.85790  1.0000 -0.4435196915
O   O2        1.0  0.64590  0.39100  0.88430  1.0000 -0.4722511072
O   O3        1.0  0.82300  0.43290  0.98480  1.0000 -0.5179240007
O   O4        1.0  0.65390  0.26330  0.76400  1.0000 -0.5112176735
O   O5        1.0  0.85790  0.77020  0.46230  1.0000 -0.4435196915
O   O6        1.0  0.88430  0.64590  0.39100  1.0000 -0.4722511072
O   O7        1.0  0.98480  0.82300  0.43290  1.0000 -0.5179240007
O   O8        1.0  0.76400  0.65390  0.26330  1.0000 -0.5112176735
O   O9        1.0  0.46230  0.85790  0.77020  1.0000 -0.4435196915
O   O10       1.0  0.39100  0.88430  0.64590  1.0000 -0.4722511072
O   O11       1.0  0.43290  0.98480  0.82300  1.0000 -0.5179240007
O   O12       1.0  0.26330  0.76400  0.65390  1.0000 -0.5112176735
O   O13       1.0  0.22980  0.53770  0.14210  1.0000 -0.4435196915
O   O14       1.0  0.35410  0.60900  0.11570  1.0000 -0.4722511072
O   O15       1.0  0.17700  0.56710  0.01520  1.0000 -0.5179240007
O   O16       1.0  0.34610  0.73670  0.23600  1.0000 -0.5112176735
O   O17       1.0  0.14210  0.22980  0.53770  1.0000 -0.4435196915
O   O18       1.0  0.11570  0.35410  0.60900  1.0000 -0.4722511072
O   O19       1.0  0.01520  0.17700  0.56710  1.0000 -0.5179240007
O   O20       1.0  0.23600  0.34610  0.73670  1.0000 -0.5112176735
O   O21       1.0  0.53770  0.14210  0.22980  1.0000 -0.4435196915
O   O22       1.0  0.60900  0.11570  0.35410  1.0000 -0.4722511072
O   O23       1.0  0.56710  0.01520  0.17700  1.0000 -0.5179240007
O   O24       1.0  0.73670  0.23600  0.34610  1.0000 -0.5112176735
