# DDEC6 charges by PACMAN v1.1 (https://github.com/mtap-research/PACMAN-charge/)
data_2012[Ag][nbo]3[ION]1
_chemical_formula_sum              "Ag6 H48 C54 N24 Cl6 O24"
_cell_length_a       16.9073
_cell_length_b       16.9073
_cell_length_c       16.9073
_cell_angle_alpha    111.664
_cell_angle_beta     111.664
_cell_angle_gamma    111.664

_symmetry_space_group_name_H-M    "P 1"
_symmetry_Int_Tables_number       1

loop_
  _symmetry_equiv_pos_as_xyz
  'x, y, z'

loop_
  _atom_site_type_symbol
  _atom_site_label
  _atom_site_symmetry_multiplicity
  _atom_site_fract_x
  _atom_site_fract_y
  _atom_site_fract_z
  _atom_site_occupancy
  _atom_site_charge
Ag  Ag1       1.0  0.81402  0.17078  0.29830  1.0000 0.2548840482
Ag  Ag2       1.0  0.17078  0.29830  0.81402  1.0000 0.2548840482
Ag  Ag3       1.0  0.29830  0.81402  0.17078  1.0000 0.2556018073
Ag  Ag4       1.0  0.18598  0.82922  0.70170  1.0000 0.2556018073
Ag  Ag5       1.0  0.82922  0.70170  0.18598  1.0000 0.2548840482
Ag  Ag6       1.0  0.70170  0.18598  0.82922  1.0000 0.2548840482
H   H1        1.0  0.42640  0.89050  0.81240  1.0000 0.1206150913
H   H2        1.0  0.89050  0.81240  0.42640  1.0000 0.1206150913
H   H3        1.0  0.81240  0.42640  0.89050  1.0000 0.1206150913
H   H4        1.0  0.57360  0.10950  0.18760  1.0000 0.1206150913
H   H5        1.0  0.10950  0.18760  0.57360  1.0000 0.1206150913
H   H6        1.0  0.18760  0.57360  0.10950  1.0000 0.1206150913
H   H7        1.0  0.67590  0.02670  0.04890  1.0000 0.1206150913
H   H8        1.0  0.02670  0.04890  0.67590  1.0000 0.1206150913
H   H9        1.0  0.04890  0.67590  0.02670  1.0000 0.1206150913
H   H10       1.0  0.32410  0.97330  0.95110  1.0000 0.1206150913
H   H11       1.0  0.97330  0.95110  0.32410  1.0000 0.1206150913
H   H12       1.0  0.95110  0.32410  0.97330  1.0000 0.1206150913
H   H13       1.0  0.85490  0.33720  0.09820  1.0000 0.1029487204
H   H14       1.0  0.33720  0.09820  0.85490  1.0000 0.1029487204
H   H15       1.0  0.09820  0.85490  0.33720  1.0000 0.1029487204
H   H16       1.0  0.14510  0.66280  0.90180  1.0000 0.1029487204
H   H17       1.0  0.66280  0.90180  0.14510  1.0000 0.1029487204
H   H18       1.0  0.90180  0.14510  0.66280  1.0000 0.1029487204
H   H19       1.0  0.46260  0.09210  0.69070  1.0000 0.1206150913
H   H20       1.0  0.09210  0.69070  0.46260  1.0000 0.1206150913
H   H21       1.0  0.69070  0.46260  0.09210  1.0000 0.1206150913
H   H22       1.0  0.53740  0.90790  0.30930  1.0000 0.1206150913
H   H23       1.0  0.90790  0.30930  0.53740  1.0000 0.1206150913
H   H24       1.0  0.30930  0.53740  0.90790  1.0000 0.1206150913
H   H25       1.0  0.88630  0.33530  0.24120  1.0000 0.1266060907
H   H26       1.0  0.33530  0.24120  0.88630  1.0000 0.1266060907
H   H27       1.0  0.24120  0.88630  0.33530  1.0000 0.1266060907
H   H28       1.0  0.11370  0.66470  0.75880  1.0000 0.1266060907
H   H29       1.0  0.66470  0.75880  0.11370  1.0000 0.1266060907
H   H30       1.0  0.75880  0.11370  0.66470  1.0000 0.1266060907
H   H31       1.0  0.30250  0.98660  0.65630  1.0000 0.112712099
H   H32       1.0  0.98660  0.65630  0.30250  1.0000 0.112712099
H   H33       1.0  0.65630  0.30250  0.98660  1.0000 0.112712099
H   H34       1.0  0.69750  0.01340  0.34370  1.0000 0.112712099
H   H35       1.0  0.01340  0.34370  0.69750  1.0000 0.112712099
H   H36       1.0  0.34370  0.69750  0.01340  1.0000 0.112712099
H   H37       1.0  0.59950  0.93690  0.87040  1.0000 0.1538735319
H   H38       1.0  0.93690  0.87040  0.59950  1.0000 0.1538735319
H   H39       1.0  0.87040  0.59950  0.93690  1.0000 0.1538735319
H   H40       1.0  0.40050  0.06310  0.12960  1.0000 0.1538735319
H   H41       1.0  0.06310  0.12960  0.40050  1.0000 0.1538735319
H   H42       1.0  0.12960  0.40050  0.06310  1.0000 0.1538735319
H   H43       1.0  0.65700  0.99430  0.83170  1.0000 0.1412843827
H   H44       1.0  0.99430  0.83170  0.65700  1.0000 0.1412843827
H   H45       1.0  0.83170  0.65700  0.99430  1.0000 0.1412843827
H   H46       1.0  0.34300  0.00570  0.16830  1.0000 0.1412843827
H   H47       1.0  0.00570  0.16830  0.34300  1.0000 0.1412843827
H   H48       1.0  0.16830  0.34300  0.00570  1.0000 0.1412843827
C   C1        1.0  0.43180  0.93100  0.78540  1.0000 0.0043678254
C   C2        1.0  0.93100  0.78540  0.43180  1.0000 0.0043678254
C   C3        1.0  0.78540  0.43180  0.93100  1.0000 0.0043678254
C   C4        1.0  0.56820  0.06900  0.21460  1.0000 0.0043678254
C   C5        1.0  0.06900  0.21460  0.56820  1.0000 0.0043678254
C   C6        1.0  0.21460  0.56820  0.06900  1.0000 0.0043678254
C   C7        1.0  0.52720  0.99380  0.80570  1.0000 0.2155825335
C   C8        1.0  0.99380  0.80570  0.52720  1.0000 0.2155825335
C   C9        1.0  0.80570  0.52720  0.99380  1.0000 0.2155825335
C   C10       1.0  0.47280  0.00620  0.19430  1.0000 0.2155825335
C   C11       1.0  0.00620  0.19430  0.47280  1.0000 0.2155825335
C   C12       1.0  0.19430  0.47280  0.00620  1.0000 0.2155825335
C   C13       1.0  0.71620  0.09260  0.06210  1.0000 -0.0192957492
C   C14       1.0  0.09260  0.06210  0.71620  1.0000 -0.0146772375
C   C15       1.0  0.06210  0.71620  0.09260  1.0000 -0.0192957492
C   C16       1.0  0.28380  0.90740  0.93790  1.0000 -0.0192957492
C   C17       1.0  0.90740  0.93790  0.28380  1.0000 -0.0192957492
C   C18       1.0  0.93790  0.28380  0.90740  1.0000 -0.0192957492
C   C19       1.0  0.81830  0.27160  0.08700  1.0000 0.0533436544
C   C20       1.0  0.27160  0.08700  0.81830  1.0000 0.0533436544
C   C21       1.0  0.08700  0.81830  0.27160  1.0000 0.0533436544
C   C22       1.0  0.18170  0.72840  0.91300  1.0000 0.0533436544
C   C23       1.0  0.72840  0.91300  0.18170  1.0000 0.0533436544
C   C24       1.0  0.91300  0.18170  0.72840  1.0000 0.0533436544
C   C25       1.0  0.70020  0.09660  0.97750  1.0000 0.2155825335
C   C26       1.0  0.09660  0.97750  0.70020  1.0000 0.2137965847
C   C27       1.0  0.97750  0.70020  0.09660  1.0000 0.2137965847
C   C28       1.0  0.29980  0.90340  0.02250  1.0000 0.2137965847
C   C29       1.0  0.90340  0.02250  0.29980  1.0000 0.2155825335
C   C30       1.0  0.02250  0.29980  0.90340  1.0000 0.2155825335
C   C31       1.0  0.45630  0.05100  0.71710  1.0000 0.0347145226
C   C32       1.0  0.05100  0.71710  0.45630  1.0000 0.0347145226
C   C33       1.0  0.71710  0.45630  0.05100  1.0000 0.0347145226
C   C34       1.0  0.54370  0.94900  0.28290  1.0000 0.0347145226
C   C35       1.0  0.94900  0.28290  0.54370  1.0000 0.0347145226
C   C36       1.0  0.28290  0.54370  0.94900  1.0000 0.0347145226
C   C37       1.0  0.83730  0.27100  0.17300  1.0000 -0.0433390673
C   C38       1.0  0.27100  0.17300  0.83730  1.0000 -0.0433390673
C   C39       1.0  0.17300  0.83730  0.27100  1.0000 -0.0433390673
C   C40       1.0  0.16270  0.72900  0.82700  1.0000 -0.0433390673
C   C41       1.0  0.72900  0.82700  0.16270  1.0000 -0.0433390673
C   C42       1.0  0.82700  0.16270  0.72900  1.0000 -0.0433390673
C   C43       1.0  0.36040  0.98740  0.69540  1.0000 -0.0192957492
C   C44       1.0  0.98740  0.69540  0.36040  1.0000 -0.0192957492
C   C45       1.0  0.69540  0.36040  0.98740  1.0000 -0.0192957492
C   C46       1.0  0.63960  0.01260  0.30460  1.0000 -0.0192957492
C   C47       1.0  0.01260  0.30460  0.63960  1.0000 -0.0192957492
C   C48       1.0  0.30460  0.63960  0.01260  1.0000 -0.0192957492
C   C49       1.0  0.62260  0.99840  0.86800  1.0000 -0.3366993975
C   C50       1.0  0.99840  0.86800  0.62260  1.0000 -0.3366993975
C   C51       1.0  0.86800  0.62260  0.99840  1.0000 -0.3366993975
C   C52       1.0  0.37740  0.00160  0.13200  1.0000 -0.3366993975
C   C53       1.0  0.00160  0.13200  0.37740  1.0000 -0.3366993975
C   C54       1.0  0.13200  0.37740  0.00160  1.0000 -0.3366993975
N   N1        1.0  0.78550  0.17750  0.16080  1.0000 -0.1397415858
N   N2        1.0  0.17750  0.16080  0.78550  1.0000 -0.1397415858
N   N3        1.0  0.16080  0.78550  0.17750  1.0000 -0.1397415858
N   N4        1.0  0.21450  0.82250  0.83920  1.0000 -0.1397415858
N   N5        1.0  0.82250  0.83920  0.21450  1.0000 -0.1397415858
N   N6        1.0  0.83920  0.21450  0.82250  1.0000 -0.1397415858
N   N7        1.0  0.75280  0.18700  0.99080  1.0000 -0.2344918362
N   N8        1.0  0.18700  0.99080  0.75280  1.0000 -0.2344918362
N   N9        1.0  0.99080  0.75280  0.18700  1.0000 -0.2344918362
N   N10       1.0  0.24720  0.81300  0.00920  1.0000 -0.2344918362
N   N11       1.0  0.81300  0.00920  0.24720  1.0000 -0.2344918362
N   N12       1.0  0.00920  0.24720  0.81300  1.0000 -0.2344918362
N   N13       1.0  0.54050  0.05660  0.77400  1.0000 -0.2091717781
N   N14       1.0  0.05660  0.77400  0.54050  1.0000 -0.2091717781
N   N15       1.0  0.77400  0.54050  0.05660  1.0000 -0.2091717781
N   N16       1.0  0.45950  0.94340  0.22600  1.0000 -0.2091717781
N   N17       1.0  0.94340  0.22600  0.45950  1.0000 -0.2091717781
N   N18       1.0  0.22600  0.45950  0.94340  1.0000 -0.2091717781
N   N19       1.0  0.34820  0.92490  0.73020  1.0000 -0.1556109261
N   N20       1.0  0.92490  0.73020  0.34820  1.0000 -0.1556109261
N   N21       1.0  0.73020  0.34820  0.92490  1.0000 -0.1556109261
N   N22       1.0  0.65180  0.07510  0.26980  1.0000 -0.1543806207
N   N23       1.0  0.07510  0.26980  0.65180  1.0000 -0.1556109261
N   N24       1.0  0.26980  0.65180  0.07510  1.0000 -0.1556109261
Cl  Cl1       1.0  0.45957  0.77752  0.92973  1.0000 1.178173675
Cl  Cl2       1.0  0.92973  0.45957  0.77752  1.0000 1.178173675
Cl  Cl3       1.0  0.77752  0.92973  0.45957  1.0000 1.178173675
Cl  Cl4       1.0  0.54043  0.22248  0.07027  1.0000 1.178173675
Cl  Cl5       1.0  0.07027  0.54043  0.22248  1.0000 1.178173675
Cl  Cl6       1.0  0.22248  0.07027  0.54043  1.0000 1.178173675
O   O1        1.0  0.54330  0.82720  0.92880  1.0000 -0.4509455807
O   O2        1.0  0.48540  0.85160  0.02200  1.0000 -0.4641387325
O   O3        1.0  0.45200  0.69630  0.92930  1.0000 -0.4407484611
O   O4        1.0  0.36920  0.75070  0.85570  1.0000 -0.4407484611
O   O5        1.0  0.92880  0.54330  0.82720  1.0000 -0.4509455807
O   O6        1.0  0.02200  0.48540  0.85160  1.0000 -0.4641387325
O   O7        1.0  0.92930  0.45200  0.69630  1.0000 -0.4407484611
O   O8        1.0  0.85570  0.36920  0.75070  1.0000 -0.4407484611
O   O9        1.0  0.82720  0.92880  0.54330  1.0000 -0.4509455807
O   O10       1.0  0.85160  0.02200  0.48540  1.0000 -0.4641387325
O   O11       1.0  0.69630  0.92930  0.45200  1.0000 -0.4407484611
O   O12       1.0  0.75070  0.85570  0.36920  1.0000 -0.4407484611
O   O13       1.0  0.45670  0.17280  0.07120  1.0000 -0.4509455807
O   O14       1.0  0.51460  0.14840  0.97800  1.0000 -0.4660175007
O   O15       1.0  0.54800  0.30370  0.07070  1.0000 -0.4509455807
O   O16       1.0  0.63080  0.24930  0.14430  1.0000 -0.4407484611
O   O17       1.0  0.07120  0.45670  0.17280  1.0000 -0.4509455807
O   O18       1.0  0.97800  0.51460  0.14840  1.0000 -0.4641387325
O   O19       1.0  0.07070  0.54800  0.30370  1.0000 -0.4407484611
O   O20       1.0  0.14430  0.63080  0.24930  1.0000 -0.4407484611
O   O21       1.0  0.17280  0.07120  0.45670  1.0000 -0.4509455807
O   O22       1.0  0.14840  0.97800  0.51460  1.0000 -0.4641387325
O   O23       1.0  0.30370  0.07070  0.54800  1.0000 -0.4407484611
O   O24       1.0  0.24930  0.14430  0.63080  1.0000 -0.4407484611
