# DDEC6 charges by PACMAN v1.1 (https://github.com/mtap-research/PACMAN-charge/)
data_2012[Zn][rtl]3[ION]1
_chemical_formula_sum              "Zn4 H44 C44 N4 O24"
_cell_length_a       9.32
_cell_length_b       16.107
_cell_length_c       14.185
_cell_angle_alpha    90
_cell_angle_beta     119.23
_cell_angle_gamma    90

_symmetry_space_group_name_H-M    "P 1"
_symmetry_Int_Tables_number       1

loop_
  _symmetry_equiv_pos_as_xyz
  'x, y, z'

loop_
  _atom_site_type_symbol
  _atom_site_label
  _atom_site_symmetry_multiplicity
  _atom_site_fract_x
  _atom_site_fract_y
  _atom_site_fract_z
  _atom_site_occupancy
  _atom_site_charge
Zn  Zn1       1.0  0.65597  0.08742  0.02326  1.0000 0.9267122805
Zn  Zn2       1.0  0.34403  0.58742  0.47674  1.0000 0.9247980773
Zn  Zn3       1.0  0.34403  0.91258  0.97674  1.0000 0.9267122805
Zn  Zn4       1.0  0.65597  0.41258  0.52326  1.0000 0.9267122805
H   H1        1.0  0.13260  0.08210  0.09060  1.0000 0.1299761742
H   H2        1.0  0.86740  0.58210  0.40940  1.0000 0.1299761742
H   H3        1.0  0.86740  0.91790  0.90940  1.0000 0.1299761742
H   H4        1.0  0.13260  0.41790  0.59060  1.0000 0.1299761742
H   H5        1.0  0.21130  0.26910  0.29580  1.0000 0.1234617889
H   H6        1.0  0.78870  0.76910  0.20420  1.0000 0.1234617889
H   H7        1.0  0.78870  0.73090  0.70420  1.0000 0.1234617889
H   H8        1.0  0.21130  0.23090  0.79580  1.0000 0.1234617889
H   H9        1.0  0.57270  0.19320  0.24030  1.0000 0.1299761742
H   H10       1.0  0.42730  0.69320  0.25970  1.0000 0.1299761742
H   H11       1.0  0.42730  0.80680  0.75970  1.0000 0.1299761742
H   H12       1.0  0.57270  0.30680  0.74030  1.0000 0.1299761742
H   H13       1.0  0.65490  0.45300  0.21490  1.0000 0.1299761742
H   H14       1.0  0.62330  0.39970  0.11410  1.0000 0.1299761742
H   H15       1.0  0.75100  0.47260  0.15250  1.0000 0.1234617889
H   H16       1.0  0.01780  0.45280  0.32430  1.0000 0.1356544852
H   H17       1.0  0.05100  0.36350  0.37480  1.0000 0.1299761742
H   H18       1.0  0.93410  0.42430  0.39160  1.0000 0.1299761742
H   H19       1.0  0.86850  0.35040  0.20310  1.0000 0.2548852026
H   H20       1.0  0.78210  0.33420  0.26260  1.0000 0.2656051278
H   H21       1.0  0.34510  0.95300  0.28510  1.0000 0.1299761742
H   H22       1.0  0.37670  0.89970  0.38590  1.0000 0.1299761742
H   H23       1.0  0.24900  0.97260  0.34750  1.0000 0.1234617889
H   H24       1.0  0.98220  0.95280  0.17570  1.0000 0.1356544852
H   H25       1.0  0.94900  0.86350  0.12520  1.0000 0.1299761742
H   H26       1.0  0.06590  0.92430  0.10840  1.0000 0.1299761742
H   H27       1.0  0.13150  0.85040  0.29690  1.0000 0.2548852026
H   H28       1.0  0.21790  0.83420  0.23740  1.0000 0.2656051278
H   H29       1.0  0.34510  0.54700  0.78510  1.0000 0.1299761742
H   H30       1.0  0.37670  0.60030  0.88590  1.0000 0.1299761742
H   H31       1.0  0.24900  0.52740  0.84750  1.0000 0.1234617889
H   H32       1.0  0.98220  0.54720  0.67570  1.0000 0.1356544852
H   H33       1.0  0.94900  0.63650  0.62520  1.0000 0.1299761742
H   H34       1.0  0.06590  0.57570  0.60840  1.0000 0.1299761742
H   H35       1.0  0.13150  0.64960  0.79690  1.0000 0.2548852026
H   H36       1.0  0.21790  0.66580  0.73740  1.0000 0.2656051278
H   H37       1.0  0.65490  0.04700  0.71490  1.0000 0.1299761742
H   H38       1.0  0.62330  0.10030  0.61410  1.0000 0.1299761742
H   H39       1.0  0.75100  0.02740  0.65250  1.0000 0.1234617889
H   H40       1.0  0.01780  0.04720  0.82430  1.0000 0.1356544852
H   H41       1.0  0.05100  0.13650  0.87480  1.0000 0.1299761742
H   H42       1.0  0.93410  0.07570  0.89160  1.0000 0.1299761742
H   H43       1.0  0.86850  0.14960  0.70310  1.0000 0.2548852026
H   H44       1.0  0.78210  0.16580  0.76260  1.0000 0.2656051278
C   C1        1.0  0.36410  0.12760  0.15800  1.0000 -0.0270440393
C   C2        1.0  0.63590  0.62760  0.34200  1.0000 -0.0270440393
C   C3        1.0  0.63590  0.87240  0.84200  1.0000 -0.0270440393
C   C4        1.0  0.36410  0.37240  0.65800  1.0000 -0.0270440393
C   C5        1.0  0.20240  0.12220  0.13810  1.0000 -0.1130503139
C   C6        1.0  0.79760  0.62220  0.36190  1.0000 -0.1130503139
C   C7        1.0  0.79760  0.87780  0.86190  1.0000 -0.1130503139
C   C8        1.0  0.20240  0.37780  0.63810  1.0000 -0.1130503139
C   C9        1.0  0.14420  0.17600  0.18820  1.0000 -0.0221132088
C   C10       1.0  0.85580  0.67600  0.31180  1.0000 -0.0221132088
C   C11       1.0  0.85580  0.82400  0.81180  1.0000 -0.0221132088
C   C12       1.0  0.14420  0.32400  0.68820  1.0000 -0.0221132088
C   C13       1.0  0.24890  0.23430  0.26020  1.0000 -0.1130503139
C   C14       1.0  0.75110  0.73430  0.23980  1.0000 -0.1130503139
C   C15       1.0  0.75110  0.76570  0.73980  1.0000 -0.1130503139
C   C16       1.0  0.24890  0.26570  0.76020  1.0000 -0.1130503139
C   C17       1.0  0.41030  0.24150  0.28010  1.0000 -0.0108689617
C   C18       1.0  0.58970  0.74150  0.21990  1.0000 -0.0108689617
C   C19       1.0  0.58970  0.75850  0.71990  1.0000 -0.0108689617
C   C20       1.0  0.41030  0.25850  0.78010  1.0000 -0.0108689617
C   C21       1.0  0.46550  0.18820  0.22800  1.0000 -0.1130503139
C   C22       1.0  0.53450  0.68820  0.27200  1.0000 -0.1130503139
C   C23       1.0  0.53450  0.81180  0.77200  1.0000 -0.1130503139
C   C24       1.0  0.46550  0.31180  0.72800  1.0000 -0.1130503139
C   C25       1.0  0.42390  0.06800  0.10300  1.0000 0.5860291183
C   C26       1.0  0.57610  0.56800  0.39700  1.0000 0.5860291183
C   C27       1.0  0.57610  0.93200  0.89700  1.0000 0.5860291183
C   C28       1.0  0.42390  0.43200  0.60300  1.0000 0.5860291183
C   C29       1.0  0.96570  0.16950  0.16230  1.0000 0.5592444002
C   C30       1.0  0.03430  0.66950  0.33770  1.0000 0.5592444002
C   C31       1.0  0.03430  0.83050  0.83770  1.0000 0.5592444002
C   C32       1.0  0.96570  0.33050  0.66230  1.0000 0.5592444002
C   C33       1.0  0.52420  0.30620  0.35690  1.0000 0.5503968209
C   C34       1.0  0.47580  0.80620  0.14310  1.0000 0.5503968209
C   C35       1.0  0.47580  0.69380  0.64310  1.0000 0.5503968209
C   C36       1.0  0.52420  0.19380  0.85690  1.0000 0.5503968209
C   C37       1.0  0.70490  0.42920  0.17590  1.0000 -0.2525681123
C   C38       1.0  0.97020  0.40660  0.34200  1.0000 -0.2977342695
C   C39       1.0  0.29510  0.92920  0.32410  1.0000 -0.2525681123
C   C40       1.0  0.02980  0.90660  0.15800  1.0000 -0.2977342695
C   C41       1.0  0.29510  0.57080  0.82410  1.0000 -0.2525681123
C   C42       1.0  0.02980  0.59340  0.65800  1.0000 -0.2977342695
C   C43       1.0  0.70490  0.07080  0.67590  1.0000 -0.2525681123
C   C44       1.0  0.97020  0.09340  0.84200  1.0000 -0.2977342695
N   N1        1.0  0.82900  0.37450  0.24300  1.0000 -0.0945217084
N   N2        1.0  0.17100  0.87450  0.25700  1.0000 -0.0945217084
N   N3        1.0  0.17100  0.62550  0.75700  1.0000 -0.0945217084
N   N4        1.0  0.82900  0.12550  0.74300  1.0000 -0.0945217084
O   O1        1.0  0.57130  0.07430  0.12500  1.0000 -0.5387868047
O   O2        1.0  0.42870  0.57430  0.37500  1.0000 -0.5387868047
O   O3        1.0  0.42870  0.92570  0.87500  1.0000 -0.5387868047
O   O4        1.0  0.57130  0.42570  0.62500  1.0000 -0.5387868047
O   O5        1.0  0.32260  0.01710  0.03910  1.0000 -0.5340449751
O   O6        1.0  0.67740  0.51710  0.46090  1.0000 -0.5340449751
O   O7        1.0  0.67740  0.98290  0.96090  1.0000 -0.5340449751
O   O8        1.0  0.32260  0.48290  0.53910  1.0000 -0.5340449751
O   O9        1.0  0.88790  0.10880  0.10200  1.0000 -0.5387868047
O   O10       1.0  0.11210  0.60880  0.39800  1.0000 -0.547490114
O   O11       1.0  0.11210  0.89120  0.89800  1.0000 -0.547490114
O   O12       1.0  0.88790  0.39120  0.60200  1.0000 -0.5387868047
O   O13       1.0  0.90820  0.22000  0.19840  1.0000 -0.547490114
O   O14       1.0  0.09180  0.72000  0.30160  1.0000 -0.547490114
O   O15       1.0  0.09180  0.78000  0.80160  1.0000 -0.547490114
O   O16       1.0  0.90820  0.28000  0.69840  1.0000 -0.547490114
O   O17       1.0  0.48780  0.33600  0.42450  1.0000 -0.5387868047
O   O18       1.0  0.51220  0.83600  0.07550  1.0000 -0.5387868047
O   O19       1.0  0.51220  0.66400  0.57550  1.0000 -0.5387868047
O   O20       1.0  0.48780  0.16400  0.92450  1.0000 -0.5387868047
O   O21       1.0  0.64860  0.32670  0.35160  1.0000 -0.5585811079
O   O22       1.0  0.35140  0.82670  0.14840  1.0000 -0.5585811079
O   O23       1.0  0.35140  0.67330  0.64840  1.0000 -0.5585811079
O   O24       1.0  0.64860  0.17330  0.85160  1.0000 -0.5585811079
