# DDEC6 charges by PACMAN v1.1 (https://github.com/mtap-research/PACMAN-charge/)
data_2012[Ce][nan]3[ION]1
_chemical_formula_sum              "Ce10 H128 C32 S24 N16 O96"
_cell_length_a       20.9003
_cell_length_b       20.9003
_cell_length_c       10.152
_cell_angle_alpha    78.1462
_cell_angle_beta     101.854
_cell_angle_gamma    59.3072

_symmetry_space_group_name_H-M    "P 1"
_symmetry_Int_Tables_number       1

loop_
  _symmetry_equiv_pos_as_xyz
  'x, y, z'

loop_
  _atom_site_type_symbol
  _atom_site_label
  _atom_site_symmetry_multiplicity
  _atom_site_fract_x
  _atom_site_fract_y
  _atom_site_fract_z
  _atom_site_occupancy
  _atom_site_charge
Ce  Ce1       1.0  0.71938  0.71938  0.75000  1.0000 2.1239468187
Ce  Ce2       1.0  0.28062  0.28062  0.25000  1.0000 2.1239468187
Ce  Ce3       1.0  0.89126  0.16948  0.01950  1.0000 1.976528886
Ce  Ce4       1.0  0.16948  0.89126  0.48050  1.0000 1.976528886
Ce  Ce5       1.0  0.10874  0.83052  0.98050  1.0000 1.976528886
Ce  Ce6       1.0  0.83052  0.10874  0.51950  1.0000 1.976528886
Ce  Ce7       1.0  0.93627  0.44895  0.99275  1.0000 2.0217503637
Ce  Ce8       1.0  0.44895  0.93627  0.50725  1.0000 2.0217503637
Ce  Ce9       1.0  0.06373  0.55105  0.00725  1.0000 2.0217503637
Ce  Ce10      1.0  0.55105  0.06373  0.49275  1.0000 2.0217503637
H   H1        1.0  0.10370  0.16150  0.41120  1.0000 0.1322807537
H   H2        1.0  0.16150  0.10370  0.08880  1.0000 0.1322807537
H   H3        1.0  0.18600  0.14300  0.40810  1.0000 0.1489820725
H   H4        1.0  0.14300  0.18600  0.09190  1.0000 0.1489820725
H   H5        1.0  0.10590  0.22310  0.29780  1.0000 0.1489820725
H   H6        1.0  0.22310  0.10590  0.20220  1.0000 0.1489820725
H   H7        1.0  0.07670  0.15070  0.19900  1.0000 0.2503210858
H   H8        1.0  0.15070  0.07670  0.30100  1.0000 0.2503210858
H   H9        1.0  0.89630  0.83850  0.58880  1.0000 0.1322807537
H   H10       1.0  0.83850  0.89630  0.91120  1.0000 0.1322807537
H   H11       1.0  0.81400  0.85700  0.59190  1.0000 0.1489820725
H   H12       1.0  0.85700  0.81400  0.90810  1.0000 0.1489820725
H   H13       1.0  0.89410  0.77690  0.70220  1.0000 0.1489820725
H   H14       1.0  0.77690  0.89410  0.79780  1.0000 0.1489820725
H   H15       1.0  0.92330  0.84930  0.80100  1.0000 0.2503210858
H   H16       1.0  0.84930  0.92330  0.69900  1.0000 0.2503210858
H   H17       1.0  0.65270  0.44910  0.13020  1.0000 0.1322807537
H   H18       1.0  0.69150  0.40030  0.29730  1.0000 0.1414855198
H   H19       1.0  0.69810  0.47090  0.23490  1.0000 0.1322807537
H   H20       1.0  0.88880  0.30000  0.29530  1.0000 0.1489820725
H   H21       1.0  0.85240  0.37380  0.34330  1.0000 0.1322807537
H   H22       1.0  0.84580  0.30320  0.40580  1.0000 0.1414855198
H   H23       1.0  0.77230  0.40030  0.12720  1.0000 0.2503210858
H   H24       1.0  0.76630  0.33510  0.18480  1.0000 0.258165899
H   H25       1.0  0.44910  0.65270  0.36980  1.0000 0.1414855198
H   H26       1.0  0.40030  0.69150  0.20270  1.0000 0.1414855198
H   H27       1.0  0.47090  0.69810  0.26510  1.0000 0.1322807537
H   H28       1.0  0.30000  0.88880  0.20470  1.0000 0.1489820725
H   H29       1.0  0.37380  0.85240  0.15670  1.0000 0.1322807537
H   H30       1.0  0.30320  0.84580  0.09420  1.0000 0.1414855198
H   H31       1.0  0.40030  0.77230  0.37280  1.0000 0.2503210858
H   H32       1.0  0.33510  0.76630  0.31520  1.0000 0.258165899
H   H33       1.0  0.34730  0.55090  0.86980  1.0000 0.1322807537
H   H34       1.0  0.30850  0.59970  0.70270  1.0000 0.1414855198
H   H35       1.0  0.30190  0.52910  0.76510  1.0000 0.1322807537
H   H36       1.0  0.11120  0.70000  0.70470  1.0000 0.1489820725
H   H37       1.0  0.14760  0.62620  0.65670  1.0000 0.1322807537
H   H38       1.0  0.15420  0.69680  0.59420  1.0000 0.1489820725
H   H39       1.0  0.22770  0.59970  0.87280  1.0000 0.2503210858
H   H40       1.0  0.23370  0.66490  0.81520  1.0000 0.258165899
H   H41       1.0  0.55090  0.34730  0.63020  1.0000 0.1322807537
H   H42       1.0  0.59970  0.30850  0.79730  1.0000 0.1414855198
H   H43       1.0  0.52910  0.30190  0.73490  1.0000 0.1322807537
H   H44       1.0  0.70000  0.11120  0.79530  1.0000 0.1489820725
H   H45       1.0  0.62620  0.14760  0.84330  1.0000 0.1322807537
H   H46       1.0  0.69680  0.15420  0.90580  1.0000 0.1414855198
H   H47       1.0  0.59970  0.22770  0.62720  1.0000 0.2503210858
H   H48       1.0  0.66490  0.23370  0.68480  1.0000 0.258165899
H   H49       1.0  0.47850  0.26490  0.06520  1.0000 0.1414855198
H   H50       1.0  0.42670  0.34390  0.09220  1.0000 0.1414855198
H   H51       1.0  0.48040  0.33860  0.00150  1.0000 0.1322807537
H   H52       1.0  0.58590  0.32410  0.33020  1.0000 0.1489820725
H   H53       1.0  0.54600  0.37680  0.16480  1.0000 0.1414855198
H   H54       1.0  0.49240  0.38220  0.25540  1.0000 0.1322807537
H   H55       1.0  0.58280  0.25400  0.19660  1.0000 0.2700505063
H   H56       1.0  0.53300  0.25880  0.28070  1.0000 0.2700505063
H   H57       1.0  0.26490  0.47850  0.43480  1.0000 0.1414855198
H   H58       1.0  0.34390  0.42670  0.40780  1.0000 0.1414855198
H   H59       1.0  0.33860  0.48040  0.49850  1.0000 0.1322807537
H   H60       1.0  0.32410  0.58590  0.16980  1.0000 0.1489820725
H   H61       1.0  0.37680  0.54600  0.33520  1.0000 0.1414855198
H   H62       1.0  0.38220  0.49240  0.24460  1.0000 0.1322807537
H   H63       1.0  0.25400  0.58280  0.30340  1.0000 0.2700505063
H   H64       1.0  0.25880  0.53300  0.21930  1.0000 0.2700505063
H   H65       1.0  0.52150  0.73510  0.93480  1.0000 0.1414855198
H   H66       1.0  0.57330  0.65610  0.90780  1.0000 0.1414855198
H   H67       1.0  0.51960  0.66140  0.99850  1.0000 0.1322807537
H   H68       1.0  0.41410  0.67590  0.66980  1.0000 0.1489820725
H   H69       1.0  0.45400  0.62320  0.83520  1.0000 0.1414855198
H   H70       1.0  0.50760  0.61780  0.74460  1.0000 0.1322807537
H   H71       1.0  0.41720  0.74600  0.80340  1.0000 0.2700505063
H   H72       1.0  0.46700  0.74120  0.71930  1.0000 0.2700505063
H   H73       1.0  0.73510  0.52150  0.56520  1.0000 0.1414855198
H   H74       1.0  0.65610  0.57330  0.59220  1.0000 0.1414855198
H   H75       1.0  0.66140  0.51960  0.50150  1.0000 0.1322807537
H   H76       1.0  0.67590  0.41410  0.83020  1.0000 0.1489820725
H   H77       1.0  0.62320  0.45400  0.66480  1.0000 0.1414855198
H   H78       1.0  0.61780  0.50760  0.75540  1.0000 0.1322807537
H   H79       1.0  0.74600  0.41720  0.69660  1.0000 0.2700505063
H   H80       1.0  0.74120  0.46700  0.78070  1.0000 0.2700505063
H   H81       1.0  0.03370  0.82650  0.29500  1.0000 0.1489820725
H   H82       1.0  0.82650  0.03370  0.20500  1.0000 0.1489820725
H   H83       1.0  0.97300  0.82440  0.36100  1.0000 0.1414855198
H   H84       1.0  0.82440  0.97300  0.13900  1.0000 0.1322807537
H   H85       1.0  0.95540  0.84200  0.19510  1.0000 0.1414855198
H   H86       1.0  0.84200  0.95540  0.30490  1.0000 0.1414855198
H   H87       1.0  0.94240  0.95880  0.17320  1.0000 0.2700505063
H   H88       1.0  0.95880  0.94240  0.32680  1.0000 0.2700505063
H   H89       1.0  0.96630  0.17350  0.70500  1.0000 0.1489820725
H   H90       1.0  0.17350  0.96630  0.79500  1.0000 0.1489820725
H   H91       1.0  0.02700  0.17560  0.63900  1.0000 0.1322807537
H   H92       1.0  0.17560  0.02700  0.86100  1.0000 0.1322807537
H   H93       1.0  0.04460  0.15800  0.80490  1.0000 0.1414855198
H   H94       1.0  0.15800  0.04460  0.69510  1.0000 0.1414855198
H   H95       1.0  0.05760  0.04120  0.82680  1.0000 0.2700505063
H   H96       1.0  0.04120  0.05760  0.67320  1.0000 0.2700505063
H   H97       1.0  0.88780  0.52500  0.39270  1.0000 0.1598342985
H   H98       1.0  0.90380  0.44960  0.35750  1.0000 0.1414855198
H   H99       1.0  0.84780  0.48340  0.44340  1.0000 0.1322807537
H   H100      1.0  0.02650  0.31110  0.71650  1.0000 0.1489820725
H   H101      1.0  0.93480  0.34960  0.64610  1.0000 0.1414855198
H   H102      1.0  0.99080  0.31580  0.56020  1.0000 0.1322807537
H   H103      1.0  0.95670  0.44610  0.63040  1.0000 0.2700505063
H   H104      1.0  0.00870  0.41490  0.55080  1.0000 0.2700505063
H   H105      1.0  0.52500  0.88780  0.10730  1.0000 0.1598342985
H   H106      1.0  0.44960  0.90380  0.14250  1.0000 0.1414855198
H   H107      1.0  0.48340  0.84780  0.05660  1.0000 0.1322807537
H   H108      1.0  0.31110  0.02650  0.78350  1.0000 0.1489820725
H   H109      1.0  0.34960  0.93480  0.85390  1.0000 0.1414855198
H   H110      1.0  0.31580  0.99080  0.93980  1.0000 0.1322807537
H   H111      1.0  0.44610  0.95670  0.86960  1.0000 0.2700505063
H   H112      1.0  0.41490  0.00870  0.94920  1.0000 0.2700505063
H   H113      1.0  0.11220  0.47500  0.60730  1.0000 0.1598342985
H   H114      1.0  0.09620  0.55040  0.64250  1.0000 0.1414855198
H   H115      1.0  0.15220  0.51660  0.55660  1.0000 0.1322807537
H   H116      1.0  0.97350  0.68890  0.28350  1.0000 0.1489820725
H   H117      1.0  0.06520  0.65040  0.35390  1.0000 0.1414855198
H   H118      1.0  0.00920  0.68420  0.43980  1.0000 0.1322807537
H   H119      1.0  0.04330  0.55390  0.36960  1.0000 0.2700505063
H   H120      1.0  0.99130  0.58510  0.44920  1.0000 0.2700505063
H   H121      1.0  0.47500  0.11220  0.89270  1.0000 0.1598342985
H   H122      1.0  0.55040  0.09620  0.85750  1.0000 0.1414855198
H   H123      1.0  0.51660  0.15220  0.94340  1.0000 0.1322807537
H   H124      1.0  0.68890  0.97350  0.21650  1.0000 0.1489820725
H   H125      1.0  0.65040  0.06520  0.14610  1.0000 0.1414855198
H   H126      1.0  0.68420  0.00920  0.06020  1.0000 0.1322807537
H   H127      1.0  0.55390  0.04330  0.13040  1.0000 0.2700505063
H   H128      1.0  0.58510  0.99130  0.05080  1.0000 0.2700505063
C   C1        1.0  0.13130  0.16730  0.34990  1.0000 -0.2585352033
C   C2        1.0  0.16730  0.13130  0.15010  1.0000 -0.2585352033
C   C3        1.0  0.86870  0.83270  0.65010  1.0000 -0.2585352033
C   C4        1.0  0.83270  0.86870  0.84990  1.0000 -0.2585352033
C   C5        1.0  0.69710  0.42790  0.21740  1.0000 -0.2784962955
C   C6        1.0  0.84560  0.33440  0.32190  1.0000 -0.2888362757
C   C7        1.0  0.42790  0.69710  0.28260  1.0000 -0.2784962955
C   C8        1.0  0.33440  0.84560  0.17810  1.0000 -0.2888362757
C   C9        1.0  0.30290  0.57210  0.78260  1.0000 -0.2784962955
C   C10       1.0  0.15440  0.66560  0.67810  1.0000 -0.2888362757
C   C11       1.0  0.57210  0.30290  0.71740  1.0000 -0.2784962955
C   C12       1.0  0.66560  0.15440  0.82190  1.0000 -0.2888362757
C   C13       1.0  0.47650  0.30930  0.08200  1.0000 -0.2390078016
C   C14       1.0  0.54110  0.34710  0.24270  1.0000 -0.2784962955
C   C15       1.0  0.30930  0.47650  0.41800  1.0000 -0.2390078016
C   C16       1.0  0.34710  0.54110  0.25730  1.0000 -0.2784962955
C   C17       1.0  0.52350  0.69070  0.91800  1.0000 -0.2390078016
C   C18       1.0  0.45890  0.65290  0.75730  1.0000 -0.2784962955
C   C19       1.0  0.69070  0.52350  0.58200  1.0000 -0.2390078016
C   C20       1.0  0.65290  0.45890  0.74270  1.0000 -0.2784962955
C   C21       1.0  0.97810  0.84970  0.27750  1.0000 -0.3001849323
C   C22       1.0  0.84970  0.97810  0.22250  1.0000 -0.3001849323
C   C23       1.0  0.02190  0.15030  0.72250  1.0000 -0.3001849323
C   C24       1.0  0.15030  0.02190  0.77750  1.0000 -0.3001849323
C   C25       1.0  0.89480  0.47460  0.42770  1.0000 -0.2888362757
C   C26       1.0  0.98070  0.34270  0.62750  1.0000 -0.2784962955
C   C27       1.0  0.47460  0.89480  0.07230  1.0000 -0.2888362757
C   C28       1.0  0.34270  0.98070  0.87250  1.0000 -0.2888362757
C   C29       1.0  0.10520  0.52540  0.57230  1.0000 -0.2888362757
C   C30       1.0  0.01930  0.65730  0.37250  1.0000 -0.2888362757
C   C31       1.0  0.52540  0.10520  0.92770  1.0000 -0.2888362757
C   C32       1.0  0.65730  0.01930  0.12750  1.0000 -0.2888362757
S   S1        1.0  0.89869  0.63563  0.05883  1.0000 1.4477273554
S   S2        1.0  0.63563  0.89869  0.44117  1.0000 1.4477273554
S   S3        1.0  0.10131  0.36437  0.94117  1.0000 1.4477273554
S   S4        1.0  0.36437  0.10131  0.55883  1.0000 1.4477273554
S   S5        1.0  0.97707  0.09393  0.36255  1.0000 1.4285453588
S   S6        1.0  0.09393  0.97707  0.13745  1.0000 1.4285453588
S   S7        1.0  0.02293  0.90607  0.63745  1.0000 1.4285453588
S   S8        1.0  0.90607  0.02293  0.86255  1.0000 1.4285453588
S   S9        1.0  0.90846  0.59584  0.67580  1.0000 1.474385652
S   S10       1.0  0.59584  0.90846  0.82420  1.0000 1.4771131605
S   S11       1.0  0.09154  0.40416  0.32420  1.0000 1.474385652
S   S12       1.0  0.40416  0.09154  0.17580  1.0000 1.4771131605
S   S13       1.0  0.75309  0.56075  0.96416  1.0000 1.3561545343
S   S14       1.0  0.56075  0.75309  0.53584  1.0000 1.3561545343
S   S15       1.0  0.24691  0.43925  0.03584  1.0000 1.3561545343
S   S16       1.0  0.43925  0.24691  0.46416  1.0000 1.3561545343
S   S17       1.0  0.90714  0.31512  0.98433  1.0000 1.346588853
S   S18       1.0  0.31512  0.90714  0.51567  1.0000 1.346588853
S   S19       1.0  0.09286  0.68488  0.01567  1.0000 1.346588853
S   S20       1.0  0.68488  0.09286  0.48433  1.0000 1.346588853
S   S21       1.0  0.72202  0.22900  0.12750  1.0000 1.4096162945
S   S22       1.0  0.22900  0.72202  0.37250  1.0000 1.4096162945
S   S23       1.0  0.27798  0.77100  0.87250  1.0000 1.4096162945
S   S24       1.0  0.77100  0.27798  0.62750  1.0000 1.4096162945
N   N1        1.0  0.12840  0.12840  0.25000  1.0000 -0.0669176176
N   N2        1.0  0.87160  0.87160  0.75000  1.0000 -0.0669176176
N   N3        1.0  0.76980  0.37340  0.20510  1.0000 -0.0669176176
N   N4        1.0  0.37340  0.76980  0.29490  1.0000 -0.0669176176
N   N5        1.0  0.23020  0.62660  0.79490  1.0000 -0.0669176176
N   N6        1.0  0.62660  0.23020  0.70510  1.0000 -0.0669176176
N   N7        1.0  0.53650  0.28710  0.20620  1.0000 -0.0757884055
N   N8        1.0  0.28710  0.53650  0.29380  1.0000 -0.0757884055
N   N9        1.0  0.46350  0.71290  0.79380  1.0000 -0.0757884055
N   N10       1.0  0.71290  0.46350  0.70620  1.0000 -0.0757884055
N   N11       1.0  0.93600  0.93600  0.25000  1.0000 -0.0855410553
N   N12       1.0  0.06400  0.06400  0.75000  1.0000 -0.0855410553
N   N13       1.0  0.96505  0.42185  0.56590  1.0000 -0.1005776066
N   N14       1.0  0.42185  0.96505  0.93410  1.0000 -0.1005776066
N   N15       1.0  0.03495  0.57815  0.43410  1.0000 -0.1005776066
N   N16       1.0  0.57815  0.03495  0.06590  1.0000 -0.1005776066
O   O1        1.0  0.70200  0.53440  0.93530  1.0000 -0.6193077137
O   O2        1.0  0.53440  0.70200  0.56470  1.0000 -0.6193077137
O   O3        1.0  0.29800  0.46560  0.06470  1.0000 -0.6193077137
O   O4        1.0  0.46560  0.29800  0.43530  1.0000 -0.6193077137
O   O5        1.0  0.92066  0.51846  0.74640  1.0000 -0.7487559139
O   O6        1.0  0.51846  0.92066  0.75360  1.0000 -0.7487559139
O   O7        1.0  0.07934  0.48154  0.25360  1.0000 -0.7487559139
O   O8        1.0  0.48154  0.07934  0.24640  1.0000 -0.7487559139
O   O9        1.0  0.93033  0.56533  0.01190  1.0000 -0.8345675141
O   O10       1.0  0.56533  0.93033  0.48810  1.0000 -0.8345675141
O   O11       1.0  0.06967  0.43467  0.98810  1.0000 -0.8345675141
O   O12       1.0  0.43467  0.06967  0.51190  1.0000 -0.8345675141
O   O13       1.0  0.96654  0.16374  0.26260  1.0000 -0.7007611662
O   O14       1.0  0.16374  0.96654  0.23740  1.0000 -0.7007611662
O   O15       1.0  0.03346  0.83626  0.73740  1.0000 -0.70808039
O   O16       1.0  0.83626  0.03346  0.76260  1.0000 -0.70808039
O   O17       1.0  0.97240  0.59900  0.76020  1.0000 -0.7199116276
O   O18       1.0  0.59900  0.97240  0.73980  1.0000 -0.7199116276
O   O19       1.0  0.02760  0.40100  0.23980  1.0000 -0.7312869816
O   O20       1.0  0.40100  0.02760  0.26020  1.0000 -0.7199116276
O   O21       1.0  0.93590  0.06930  0.27260  1.0000 -0.7312869816
O   O22       1.0  0.06930  0.93590  0.22740  1.0000 -0.7312869816
O   O23       1.0  0.06410  0.93070  0.72740  1.0000 -0.7312869816
O   O24       1.0  0.93070  0.06410  0.77260  1.0000 -0.7312869816
O   O25       1.0  0.81979  0.70099  0.95130  1.0000 -0.6798134068
O   O26       1.0  0.70099  0.81979  0.54870  1.0000 -0.6798134068
O   O27       1.0  0.18021  0.29901  0.04870  1.0000 -0.6798134068
O   O28       1.0  0.29901  0.18021  0.45130  1.0000 -0.6798134068
O   O29       1.0  0.83795  0.31455  0.99790  1.0000 -0.70808039
O   O30       1.0  0.31455  0.83795  0.50210  1.0000 -0.70808039
O   O31       1.0  0.16205  0.68545  0.00210  1.0000 -0.70808039
O   O32       1.0  0.68545  0.16205  0.49790  1.0000 -0.70808039
O   O33       1.0  0.94074  0.11574  0.46960  1.0000 -0.6870245606
O   O34       1.0  0.11574  0.94074  0.03040  1.0000 -0.6870245606
O   O35       1.0  0.05926  0.88426  0.53040  1.0000 -0.6870245606
O   O36       1.0  0.88426  0.05926  0.96960  1.0000 -0.6870245606
O   O37       1.0  0.78335  0.56715  0.84230  1.0000 -0.7936135202
O   O38       1.0  0.56715  0.78335  0.65770  1.0000 -0.7936135202
O   O39       1.0  0.21665  0.43285  0.15770  1.0000 -0.7936135202
O   O40       1.0  0.43285  0.21665  0.34230  1.0000 -0.7936135202
O   O41       1.0  0.82485  0.50125  0.09520  1.0000 -0.6798134068
O   O42       1.0  0.50125  0.82485  0.40480  1.0000 -0.6798134068
O   O43       1.0  0.17515  0.49875  0.90480  1.0000 -0.6798134068
O   O44       1.0  0.49875  0.17515  0.59520  1.0000 -0.6798134068
O   O45       1.0  0.90889  0.60329  0.52990  1.0000 -0.6193077137
O   O46       1.0  0.60329  0.90889  0.97010  1.0000 -0.6193077137
O   O47       1.0  0.09111  0.39671  0.47010  1.0000 -0.6193077137
O   O48       1.0  0.39671  0.09111  0.02990  1.0000 -0.6193077137
O   O49       1.0  0.06277  0.03117  0.43950  1.0000 -0.7007611662
O   O50       1.0  0.03117  0.06277  0.06050  1.0000 -0.7007611662
O   O51       1.0  0.93723  0.96883  0.56050  1.0000 -0.7007611662
O   O52       1.0  0.96883  0.93723  0.93950  1.0000 -0.7007611662
O   O53       1.0  0.83048  0.66128  0.66870  1.0000 -0.7199116276
O   O54       1.0  0.66128  0.83048  0.83130  1.0000 -0.7199116276
O   O55       1.0  0.16952  0.33872  0.33130  1.0000 -0.7199116276
O   O56       1.0  0.33872  0.16952  0.16870  1.0000 -0.7199116276
O   O57       1.0  0.95511  0.65811  0.05770  1.0000 -0.7007611662
O   O58       1.0  0.65811  0.95511  0.44230  1.0000 -0.7007611662
O   O59       1.0  0.04489  0.34189  0.94230  1.0000 -0.7007611662
O   O60       1.0  0.34189  0.04489  0.55770  1.0000 -0.7007611662
O   O61       1.0  0.94709  0.32329  0.11100  1.0000 -0.6635011106
O   O62       1.0  0.32329  0.94709  0.38900  1.0000 -0.6635011106
O   O63       1.0  0.05291  0.67671  0.88900  1.0000 -0.6635011106
O   O64       1.0  0.67671  0.05291  0.61100  1.0000 -0.6635011106
O   O65       1.0  0.96225  0.23865  0.97100  1.0000 -0.6728722274
O   O66       1.0  0.23865  0.96225  0.52900  1.0000 -0.6728722274
O   O67       1.0  0.03775  0.76135  0.02900  1.0000 -0.6728722274
O   O68       1.0  0.76135  0.03775  0.47100  1.0000 -0.6728722274
O   O69       1.0  0.89516  0.61496  0.20000  1.0000 -0.5600667417
O   O70       1.0  0.61496  0.89516  0.30000  1.0000 -0.5600667417
O   O71       1.0  0.10484  0.38504  0.80000  1.0000 -0.5600667417
O   O72       1.0  0.38504  0.10484  0.70000  1.0000 -0.5600667417
O   O73       1.0  0.71014  0.64114  0.96810  1.0000 -0.6635011106
O   O74       1.0  0.64114  0.71014  0.53190  1.0000 -0.6635011106
O   O75       1.0  0.28986  0.35886  0.03190  1.0000 -0.6635011106
O   O76       1.0  0.35886  0.28986  0.46810  1.0000 -0.6635011106
O   O77       1.0  0.87943  0.38543  0.85920  1.0000 -0.6798134068
O   O78       1.0  0.38543  0.87943  0.64080  1.0000 -0.6798134068
O   O79       1.0  0.12057  0.61457  0.14080  1.0000 -0.6798134068
O   O80       1.0  0.61457  0.12057  0.35920  1.0000 -0.6798134068
O   O81       1.0  0.76990  0.20230  0.04410  1.0000 -0.70808039
O   O82       1.0  0.20230  0.76990  0.45590  1.0000 -0.70808039
O   O83       1.0  0.23010  0.79770  0.95590  1.0000 -0.70808039
O   O84       1.0  0.79770  0.23010  0.54410  1.0000 -0.70808039
O   O85       1.0  0.76230  0.19430  0.27600  1.0000 -0.7007611662
O   O86       1.0  0.19430  0.76230  0.22400  1.0000 -0.7007611662
O   O87       1.0  0.23770  0.80570  0.72400  1.0000 -0.7007611662
O   O88       1.0  0.80570  0.23770  0.77600  1.0000 -0.7007611662
O   O89       1.0  0.65880  0.21840  0.09190  1.0000 -0.5600667417
O   O90       1.0  0.21840  0.65880  0.40810  1.0000 -0.5600667417
O   O91       1.0  0.34120  0.78160  0.90810  1.0000 -0.5600667417
O   O92       1.0  0.78160  0.34120  0.59190  1.0000 -0.5600667417
O   O93       1.0  0.67060  0.31860  0.07550  1.0000 -0.6193077137
O   O94       1.0  0.31860  0.67060  0.42450  1.0000 -0.6193077137
O   O95       1.0  0.32940  0.68140  0.92450  1.0000 -0.6193077137
O   O96       1.0  0.68140  0.32940  0.57550  1.0000 -0.6193077137
