# DDEC6 charges by PACMAN v1.1 (https://github.com/mtap-research/PACMAN-charge/)
data_2012[La][nan]3[ION]1
_chemical_formula_sum              "La10 H128 C32 S24 N16 O108"
_cell_length_a       21.1076
_cell_length_b       21.1076
_cell_length_c       10.1472
_cell_angle_alpha    78.319
_cell_angle_beta     101.681
_cell_angle_gamma    58.8137

_symmetry_space_group_name_H-M    "P 1"
_symmetry_Int_Tables_number       1

loop_
  _symmetry_equiv_pos_as_xyz
  'x, y, z'

loop_
  _atom_site_type_symbol
  _atom_site_label
  _atom_site_symmetry_multiplicity
  _atom_site_fract_x
  _atom_site_fract_y
  _atom_site_fract_z
  _atom_site_occupancy
  _atom_site_charge
La  La1       1.0  0.71864  0.71864  0.75000  1.0000 2.0203164424
La  La2       1.0  0.28136  0.28136  0.25000  1.0000 2.0203164424
La  La3       1.0  0.89134  0.17026  0.01533  1.0000 1.7393876518
La  La4       1.0  0.17026  0.89134  0.48467  1.0000 1.7393876518
La  La5       1.0  0.10866  0.82974  0.98467  1.0000 1.7393876518
La  La6       1.0  0.82974  0.10866  0.51533  1.0000 1.7393876518
La  La7       1.0  0.93685  0.44869  0.99354  1.0000 1.9472330417
La  La8       1.0  0.44869  0.93685  0.50646  1.0000 1.9472330417
La  La9       1.0  0.06315  0.55131  0.00646  1.0000 1.9472330417
La  La10      1.0  0.55131  0.06315  0.49354  1.0000 1.9472330417
H   H1        1.0  0.10300  0.16180  0.41160  1.0000 0.1308739062
H   H2        1.0  0.16180  0.10300  0.08840  1.0000 0.1308739062
H   H3        1.0  0.18520  0.14320  0.40840  1.0000 0.1416068151
H   H4        1.0  0.14320  0.18520  0.09160  1.0000 0.1416068151
H   H5        1.0  0.10510  0.22330  0.29810  1.0000 0.1486278604
H   H6        1.0  0.22330  0.10510  0.20190  1.0000 0.1486278604
H   H7        1.0  0.07650  0.15050  0.19900  1.0000 0.2417864445
H   H8        1.0  0.15050  0.07650  0.30100  1.0000 0.2417864445
H   H9        1.0  0.89700  0.83820  0.58840  1.0000 0.1308739062
H   H10       1.0  0.83820  0.89700  0.91160  1.0000 0.1308739062
H   H11       1.0  0.81480  0.85680  0.59160  1.0000 0.1416068151
H   H12       1.0  0.85680  0.81480  0.90840  1.0000 0.1416068151
H   H13       1.0  0.89490  0.77670  0.70190  1.0000 0.1486278604
H   H14       1.0  0.77670  0.89490  0.79810  1.0000 0.1486278604
H   H15       1.0  0.92350  0.84950  0.80100  1.0000 0.2417864445
H   H16       1.0  0.84950  0.92350  0.69900  1.0000 0.2417864445
H   H17       1.0  0.66120  0.44160  0.12390  1.0000 0.1226302568
H   H18       1.0  0.70000  0.39280  0.29110  1.0000 0.0946745034
H   H19       1.0  0.70660  0.46340  0.22860  1.0000 0.1226302568
H   H20       1.0  0.89390  0.29830  0.30450  1.0000 0.1416068151
H   H21       1.0  0.85740  0.37200  0.35250  1.0000 0.1226302568
H   H22       1.0  0.85090  0.30130  0.41500  1.0000 0.1127621521
H   H23       1.0  0.78150  0.38970  0.13870  1.0000 0.2485013808
H   H24       1.0  0.77550  0.32450  0.19640  1.0000 0.2417864445
H   H25       1.0  0.44160  0.66120  0.37610  1.0000 0.1226302568
H   H26       1.0  0.39280  0.70000  0.20890  1.0000 0.0946745034
H   H27       1.0  0.46340  0.70660  0.27140  1.0000 0.1226302568
H   H28       1.0  0.29830  0.89390  0.19550  1.0000 0.1416068151
H   H29       1.0  0.37200  0.85740  0.14750  1.0000 0.1226302568
H   H30       1.0  0.30130  0.85090  0.08500  1.0000 0.1127621521
H   H31       1.0  0.38970  0.78150  0.36130  1.0000 0.2485013808
H   H32       1.0  0.32450  0.77550  0.30360  1.0000 0.2417864445
H   H33       1.0  0.33880  0.55840  0.87610  1.0000 0.1226302568
H   H34       1.0  0.30000  0.60720  0.70890  1.0000 0.0946745034
H   H35       1.0  0.29340  0.53660  0.77140  1.0000 0.1226302568
H   H36       1.0  0.10610  0.70170  0.69550  1.0000 0.1416068151
H   H37       1.0  0.14260  0.62800  0.64750  1.0000 0.1226302568
H   H38       1.0  0.14910  0.69870  0.58500  1.0000 0.1127621521
H   H39       1.0  0.21850  0.61030  0.86130  1.0000 0.2485013808
H   H40       1.0  0.22450  0.67550  0.80360  1.0000 0.2417864445
H   H41       1.0  0.55840  0.33880  0.62390  1.0000 0.1226302568
H   H42       1.0  0.60720  0.30000  0.79110  1.0000 0.0946745034
H   H43       1.0  0.53660  0.29340  0.72860  1.0000 0.1226302568
H   H44       1.0  0.70170  0.10610  0.80450  1.0000 0.1416068151
H   H45       1.0  0.62800  0.14260  0.85250  1.0000 0.1226302568
H   H46       1.0  0.69870  0.14910  0.91500  1.0000 0.1127621521
H   H47       1.0  0.61030  0.21850  0.63870  1.0000 0.2485013808
H   H48       1.0  0.67550  0.22450  0.69640  1.0000 0.2417864445
H   H49       1.0  0.48220  0.25940  0.07160  1.0000 0.1416068151
H   H50       1.0  0.43030  0.33850  0.09860  1.0000 0.1486278604
H   H51       1.0  0.48400  0.33320  0.00790  1.0000 0.1127621521
H   H52       1.0  0.58420  0.32780  0.32610  1.0000 0.1127621521
H   H53       1.0  0.54440  0.38040  0.16060  1.0000 0.1000007446
H   H54       1.0  0.49080  0.38580  0.25130  1.0000 0.1308739062
H   H55       1.0  0.58800  0.25360  0.19840  1.0000 0.2287779953
H   H56       1.0  0.53830  0.25850  0.28250  1.0000 0.2609904128
H   H57       1.0  0.25940  0.48220  0.42840  1.0000 0.1416068151
H   H58       1.0  0.33850  0.43030  0.40140  1.0000 0.1486278604
H   H59       1.0  0.33320  0.48400  0.49210  1.0000 0.1127621521
H   H60       1.0  0.32780  0.58420  0.17390  1.0000 0.1127621521
H   H61       1.0  0.38040  0.54440  0.33940  1.0000 0.1000007446
H   H62       1.0  0.38580  0.49080  0.24870  1.0000 0.1308739062
H   H63       1.0  0.25360  0.58800  0.30160  1.0000 0.2287779953
H   H64       1.0  0.25850  0.53830  0.21750  1.0000 0.2609904128
H   H65       1.0  0.51780  0.74060  0.92840  1.0000 0.1416068151
H   H66       1.0  0.56970  0.66150  0.90140  1.0000 0.1486278604
H   H67       1.0  0.51600  0.66680  0.99210  1.0000 0.1127621521
H   H68       1.0  0.41580  0.67220  0.67390  1.0000 0.1127621521
H   H69       1.0  0.45560  0.61960  0.83940  1.0000 0.1000007446
H   H70       1.0  0.50920  0.61420  0.74870  1.0000 0.1308739062
H   H71       1.0  0.41200  0.74640  0.80160  1.0000 0.2287779953
H   H72       1.0  0.46170  0.74150  0.71750  1.0000 0.2609904128
H   H73       1.0  0.74060  0.51780  0.57160  1.0000 0.1416068151
H   H74       1.0  0.66150  0.56970  0.59860  1.0000 0.1486278604
H   H75       1.0  0.66680  0.51600  0.50790  1.0000 0.1127621521
H   H76       1.0  0.67220  0.41580  0.82610  1.0000 0.1127621521
H   H77       1.0  0.61960  0.45560  0.66060  1.0000 0.1000007446
H   H78       1.0  0.61420  0.50920  0.75130  1.0000 0.1308739062
H   H79       1.0  0.74640  0.41200  0.69840  1.0000 0.2287779953
H   H80       1.0  0.74150  0.46170  0.78250  1.0000 0.2609904128
H   H81       1.0  0.03320  0.82700  0.29700  1.0000 0.1308739062
H   H82       1.0  0.82700  0.03320  0.20300  1.0000 0.1308739062
H   H83       1.0  0.97240  0.82500  0.36300  1.0000 0.1226302568
H   H84       1.0  0.82500  0.97240  0.13700  1.0000 0.1226302568
H   H85       1.0  0.95480  0.84260  0.19720  1.0000 0.1308739062
H   H86       1.0  0.84260  0.95480  0.30280  1.0000 0.1308739062
H   H87       1.0  0.94200  0.95840  0.17320  1.0000 0.2609904128
H   H88       1.0  0.95840  0.94200  0.32680  1.0000 0.2609904128
H   H89       1.0  0.96680  0.17300  0.70300  1.0000 0.1308739062
H   H90       1.0  0.17300  0.96680  0.79700  1.0000 0.1308739062
H   H91       1.0  0.02760  0.17500  0.63700  1.0000 0.1226302568
H   H92       1.0  0.17500  0.02760  0.86300  1.0000 0.1226302568
H   H93       1.0  0.04520  0.15740  0.80280  1.0000 0.1308739062
H   H94       1.0  0.15740  0.04520  0.69720  1.0000 0.1308739062
H   H95       1.0  0.05800  0.04160  0.82680  1.0000 0.2609904128
H   H96       1.0  0.04160  0.05800  0.67320  1.0000 0.2609904128
H   H97       1.0  0.89020  0.52340  0.39580  1.0000 0.1551801766
H   H98       1.0  0.90610  0.44810  0.36070  1.0000 0.1308739062
H   H99       1.0  0.85010  0.48170  0.44660  1.0000 0.1226302568
H   H100      1.0  0.03040  0.31040  0.71490  1.0000 0.1416068151
H   H101      1.0  0.93880  0.34880  0.64440  1.0000 0.1226302568
H   H102      1.0  0.99480  0.31520  0.55850  1.0000 0.1226302568
H   H103      1.0  0.95910  0.44490  0.63050  1.0000 0.2670089359
H   H104      1.0  0.01110  0.41370  0.55080  1.0000 0.2670089359
H   H105      1.0  0.52340  0.89020  0.10420  1.0000 0.1551801766
H   H106      1.0  0.44810  0.90610  0.13930  1.0000 0.1308739062
H   H107      1.0  0.48170  0.85010  0.05340  1.0000 0.1226302568
H   H108      1.0  0.31040  0.03040  0.78510  1.0000 0.1416068151
H   H109      1.0  0.34880  0.93880  0.85560  1.0000 0.1226302568
H   H110      1.0  0.31520  0.99480  0.94150  1.0000 0.1226302568
H   H111      1.0  0.44490  0.95910  0.86950  1.0000 0.2670089359
H   H112      1.0  0.41370  0.01110  0.94920  1.0000 0.2670089359
H   H113      1.0  0.10980  0.47660  0.60420  1.0000 0.1551801766
H   H114      1.0  0.09390  0.55190  0.63930  1.0000 0.1308739062
H   H115      1.0  0.14990  0.51830  0.55340  1.0000 0.1226302568
H   H116      1.0  0.96960  0.68960  0.28510  1.0000 0.1416068151
H   H117      1.0  0.06120  0.65120  0.35560  1.0000 0.1226302568
H   H118      1.0  0.00520  0.68480  0.44150  1.0000 0.1226302568
H   H119      1.0  0.04090  0.55510  0.36950  1.0000 0.2670089359
H   H120      1.0  0.98890  0.58630  0.44920  1.0000 0.2670089359
H   H121      1.0  0.47660  0.10980  0.89580  1.0000 0.1551801766
H   H122      1.0  0.55190  0.09390  0.86070  1.0000 0.1308739062
H   H123      1.0  0.51830  0.14990  0.94660  1.0000 0.1226302568
H   H124      1.0  0.68960  0.96960  0.21490  1.0000 0.1416068151
H   H125      1.0  0.65120  0.06120  0.14440  1.0000 0.1226302568
H   H126      1.0  0.68480  0.00520  0.05850  1.0000 0.1226302568
H   H127      1.0  0.55510  0.04090  0.13050  1.0000 0.2670089359
H   H128      1.0  0.58630  0.98890  0.05080  1.0000 0.2670089359
C   C1        1.0  0.13050  0.16750  0.35020  1.0000 -0.2697080021
C   C2        1.0  0.16750  0.13050  0.14980  1.0000 -0.2697080021
C   C3        1.0  0.86950  0.83250  0.64980  1.0000 -0.2697080021
C   C4        1.0  0.83250  0.86950  0.85020  1.0000 -0.2697080021
C   C5        1.0  0.70560  0.42040  0.21110  1.0000 -0.2836576198
C   C6        1.0  0.85080  0.33260  0.33110  1.0000 -0.3268068974
C   C7        1.0  0.42040  0.70560  0.28890  1.0000 -0.2836576198
C   C8        1.0  0.33260  0.85080  0.16890  1.0000 -0.3268068974
C   C9        1.0  0.29440  0.57960  0.78890  1.0000 -0.2836576198
C   C10       1.0  0.14920  0.66740  0.66890  1.0000 -0.3268068974
C   C11       1.0  0.57960  0.29440  0.71110  1.0000 -0.2836576198
C   C12       1.0  0.66740  0.14920  0.83110  1.0000 -0.3268068974
C   C13       1.0  0.48010  0.30390  0.08830  1.0000 -0.2905974706
C   C14       1.0  0.53950  0.35070  0.23850  1.0000 -0.3213587945
C   C15       1.0  0.30390  0.48010  0.41170  1.0000 -0.2905974706
C   C16       1.0  0.35070  0.53950  0.26150  1.0000 -0.3213587945
C   C17       1.0  0.51990  0.69610  0.91170  1.0000 -0.2905974706
C   C18       1.0  0.46050  0.64930  0.76150  1.0000 -0.3213587945
C   C19       1.0  0.69610  0.51990  0.58830  1.0000 -0.2905974706
C   C20       1.0  0.64930  0.46050  0.73850  1.0000 -0.3213587945
C   C21       1.0  0.97751  0.85031  0.27950  1.0000 -0.3268068974
C   C22       1.0  0.85031  0.97751  0.22050  1.0000 -0.3268068974
C   C23       1.0  0.02249  0.14969  0.72050  1.0000 -0.3268068974
C   C24       1.0  0.14969  0.02249  0.77950  1.0000 -0.3268068974
C   C25       1.0  0.89722  0.47302  0.43090  1.0000 -0.2988214512
C   C26       1.0  0.98468  0.34188  0.62590  1.0000 -0.2905974706
C   C27       1.0  0.47302  0.89722  0.06910  1.0000 -0.2988214512
C   C28       1.0  0.34188  0.98468  0.87410  1.0000 -0.2905974706
C   C29       1.0  0.10278  0.52698  0.56910  1.0000 -0.2988214512
C   C30       1.0  0.01532  0.65812  0.37410  1.0000 -0.2905974706
C   C31       1.0  0.52698  0.10278  0.93090  1.0000 -0.2988214512
C   C32       1.0  0.65812  0.01532  0.12590  1.0000 -0.2905974706
S   S1        1.0  0.89796  0.63562  0.06018  1.0000 1.4378199185
S   S2        1.0  0.63562  0.89796  0.43982  1.0000 1.4378199185
S   S3        1.0  0.10204  0.36438  0.93982  1.0000 1.4378199185
S   S4        1.0  0.36438  0.10204  0.56018  1.0000 1.4378199185
S   S5        1.0  0.97630  0.09482  0.36271  1.0000 1.3377829994
S   S6        1.0  0.09482  0.97630  0.13729  1.0000 1.3297931756
S   S7        1.0  0.02370  0.90518  0.63729  1.0000 1.3297931756
S   S8        1.0  0.90518  0.02370  0.86271  1.0000 1.3377829994
S   S9        1.0  0.90823  0.59517  0.67432  1.0000 1.4630666579
S   S10       1.0  0.59517  0.90823  0.82568  1.0000 1.4630666579
S   S11       1.0  0.09177  0.40483  0.32568  1.0000 1.4630666579
S   S12       1.0  0.40483  0.09177  0.17432  1.0000 1.4630666579
S   S13       1.0  0.75274  0.55974  0.96414  1.0000 1.3626226689
S   S14       1.0  0.55974  0.75274  0.53586  1.0000 1.3626226689
S   S15       1.0  0.24726  0.44026  0.03586  1.0000 1.3626226689
S   S16       1.0  0.44026  0.24726  0.46414  1.0000 1.3626226689
S   S17       1.0  0.90943  0.31445  0.98524  1.0000 1.3087558355
S   S18       1.0  0.31445  0.90943  0.51476  1.0000 1.3015950526
S   S19       1.0  0.09057  0.68555  0.01476  1.0000 1.3015950526
S   S20       1.0  0.68555  0.09057  0.48524  1.0000 1.3087558355
S   S21       1.0  0.72740  0.22456  0.13589  1.0000 0.9233516361
S   S22       1.0  0.22456  0.72740  0.36411  1.0000 0.9266782011
S   S23       1.0  0.27260  0.77544  0.86411  1.0000 0.9266782011
S   S24       1.0  0.77544  0.27260  0.63589  1.0000 0.9233516361
N   N1        1.0  0.12820  0.12820  0.25000  1.0000 -0.079737911
N   N2        1.0  0.87180  0.87180  0.75000  1.0000 -0.079737911
N   N3        1.0  0.77900  0.36280  0.21670  1.0000 -0.0936173313
N   N4        1.0  0.36280  0.77900  0.28330  1.0000 -0.0936173313
N   N5        1.0  0.22100  0.63720  0.78330  1.0000 -0.0936173313
N   N6        1.0  0.63720  0.22100  0.71670  1.0000 -0.0936173313
N   N7        1.0  0.54168  0.28688  0.20810  1.0000 -0.1134775263
N   N8        1.0  0.28688  0.54168  0.29190  1.0000 -0.1134775263
N   N9        1.0  0.45832  0.71312  0.79190  1.0000 -0.1134775263
N   N10       1.0  0.71312  0.45832  0.70810  1.0000 -0.1134775263
N   N11       1.0  0.93554  0.93554  0.25000  1.0000 -0.079737911
N   N12       1.0  0.06446  0.06446  0.75000  1.0000 -0.079737911
N   N13       1.0  0.96741  0.42065  0.56590  1.0000 -0.0974446889
N   N14       1.0  0.42065  0.96741  0.93410  1.0000 -0.0974446889
N   N15       1.0  0.03259  0.57935  0.43410  1.0000 -0.0974446889
N   N16       1.0  0.57935  0.03259  0.06590  1.0000 -0.0974446889
O   O1        1.0  0.70260  0.53276  0.93520  1.0000 -0.6183432236
O   O2        1.0  0.53276  0.70260  0.56480  1.0000 -0.6183432236
O   O3        1.0  0.29740  0.46724  0.06480  1.0000 -0.6131902431
O   O4        1.0  0.46724  0.29740  0.43520  1.0000 -0.6131902431
O   O5        1.0  0.92166  0.51802  0.74530  1.0000 -0.7330977415
O   O6        1.0  0.51802  0.92166  0.75470  1.0000 -0.7330977415
O   O7        1.0  0.07834  0.48198  0.25470  1.0000 -0.7330977415
O   O8        1.0  0.48198  0.07834  0.24530  1.0000 -0.7330977415
O   O9        1.0  0.92983  0.56597  0.01170  1.0000 -0.8106458877
O   O10       1.0  0.56597  0.92983  0.48830  1.0000 -0.8106458877
O   O11       1.0  0.07017  0.43403  0.98830  1.0000 -0.8106458877
O   O12       1.0  0.43403  0.07017  0.51170  1.0000 -0.8106458877
O   O13       1.0  0.96616  0.16338  0.26200  1.0000 -0.6912789985
O   O14       1.0  0.16338  0.96616  0.23800  1.0000 -0.6912789985
O   O15       1.0  0.03384  0.83662  0.73800  1.0000 -0.6912789985
O   O16       1.0  0.83662  0.03384  0.76200  1.0000 -0.6912789985
O   O17       1.0  0.97144  0.59834  0.75730  1.0000 -0.7119446372
O   O18       1.0  0.59834  0.97144  0.74270  1.0000 -0.7119446372
O   O19       1.0  0.02856  0.40166  0.24270  1.0000 -0.7119446372
O   O20       1.0  0.40166  0.02856  0.25730  1.0000 -0.7119446372
O   O21       1.0  0.93641  0.06979  0.27300  1.0000 -0.7119446372
O   O22       1.0  0.06979  0.93641  0.22700  1.0000 -0.7119446372
O   O23       1.0  0.06359  0.93021  0.72700  1.0000 -0.7119446372
O   O24       1.0  0.93021  0.06359  0.77300  1.0000 -0.7119446372
O   O25       1.0  0.81825  0.70105  0.95280  1.0000 -0.6810269449
O   O26       1.0  0.70105  0.81825  0.54720  1.0000 -0.6810269449
O   O27       1.0  0.18175  0.29895  0.04720  1.0000 -0.6810269449
O   O28       1.0  0.29895  0.18175  0.45280  1.0000 -0.6810269449
O   O29       1.0  0.84003  0.31493  0.99580  1.0000 -0.7204314862
O   O30       1.0  0.31493  0.84003  0.50420  1.0000 -0.7204314862
O   O31       1.0  0.15997  0.68507  0.00420  1.0000 -0.7204314862
O   O32       1.0  0.68507  0.15997  0.49580  1.0000 -0.7204314862
O   O33       1.0  0.93950  0.11762  0.46890  1.0000 -0.700258771
O   O34       1.0  0.11762  0.93950  0.03110  1.0000 -0.700258771
O   O35       1.0  0.06050  0.88238  0.53110  1.0000 -0.700258771
O   O36       1.0  0.88238  0.06050  0.96890  1.0000 -0.700258771
O   O37       1.0  0.78403  0.56559  0.84380  1.0000 -0.7702035551
O   O38       1.0  0.56559  0.78403  0.65620  1.0000 -0.7702035551
O   O39       1.0  0.21597  0.43441  0.15620  1.0000 -0.7702035551
O   O40       1.0  0.43441  0.21597  0.34380  1.0000 -0.7702035551
O   O41       1.0  0.82410  0.50120  0.09610  1.0000 -0.6743335519
O   O42       1.0  0.50120  0.82410  0.40390  1.0000 -0.6743335519
O   O43       1.0  0.17590  0.49880  0.90390  1.0000 -0.6743335519
O   O44       1.0  0.49880  0.17590  0.59610  1.0000 -0.6743335519
O   O45       1.0  0.90850  0.60246  0.52790  1.0000 -0.6183432236
O   O46       1.0  0.60246  0.90850  0.97210  1.0000 -0.6183432236
O   O47       1.0  0.09150  0.39754  0.47210  1.0000 -0.6183432236
O   O48       1.0  0.39754  0.09150  0.02790  1.0000 -0.6183432236
O   O49       1.0  0.06168  0.03148  0.44190  1.0000 -0.6810269449
O   O50       1.0  0.03148  0.06168  0.05810  1.0000 -0.6810269449
O   O51       1.0  0.93832  0.96852  0.55810  1.0000 -0.6810269449
O   O52       1.0  0.96852  0.93832  0.94190  1.0000 -0.6810269449
O   O53       1.0  0.83057  0.66055  0.66790  1.0000 -0.7119446372
O   O54       1.0  0.66055  0.83057  0.83210  1.0000 -0.7119446372
O   O55       1.0  0.16943  0.33945  0.33210  1.0000 -0.700258771
O   O56       1.0  0.33945  0.16943  0.16790  1.0000 -0.700258771
O   O57       1.0  0.95298  0.65868  0.05840  1.0000 -0.6912789985
O   O58       1.0  0.65868  0.95298  0.44160  1.0000 -0.6912789985
O   O59       1.0  0.04702  0.34132  0.94160  1.0000 -0.6912789985
O   O60       1.0  0.34132  0.04702  0.55840  1.0000 -0.6912789985
O   O61       1.0  0.94692  0.32360  0.11240  1.0000 -0.6597050274
O   O62       1.0  0.32360  0.94692  0.38760  1.0000 -0.6597050274
O   O63       1.0  0.05308  0.67640  0.88760  1.0000 -0.6597050274
O   O64       1.0  0.67640  0.05308  0.61240  1.0000 -0.6597050274
O   O65       1.0  0.96508  0.23762  0.97490  1.0000 -0.6597050274
O   O66       1.0  0.23762  0.96508  0.52510  1.0000 -0.6597050274
O   O67       1.0  0.03492  0.76238  0.02510  1.0000 -0.6597050274
O   O68       1.0  0.76238  0.03492  0.47490  1.0000 -0.6597050274
O   O69       1.0  0.89510  0.61458  0.20190  1.0000 -0.5557158981
O   O70       1.0  0.61458  0.89510  0.29810  1.0000 -0.5557158981
O   O71       1.0  0.10490  0.38542  0.79810  1.0000 -0.5557158981
O   O72       1.0  0.38542  0.10490  0.70190  1.0000 -0.5557158981
O   O73       1.0  0.70882  0.63996  0.96770  1.0000 -0.6597050274
O   O74       1.0  0.63996  0.70882  0.53230  1.0000 -0.6597050274
O   O75       1.0  0.29118  0.36004  0.03230  1.0000 -0.6597050274
O   O76       1.0  0.36004  0.29118  0.46770  1.0000 -0.6597050274
O   O77       1.0  0.88256  0.38368  0.85830  1.0000 -0.6912789985
O   O78       1.0  0.38368  0.88256  0.64170  1.0000 -0.6912789985
O   O79       1.0  0.11744  0.61632  0.14170  1.0000 -0.6912789985
O   O80       1.0  0.61632  0.11744  0.35830  1.0000 -0.6912789985
O   O81       1.0  0.77212  0.20992  0.05170  1.0000 -0.5880002771
O   O82       1.0  0.20992  0.77212  0.44830  1.0000 -0.5880002771
O   O83       1.0  0.22788  0.79008  0.94830  1.0000 -0.5880002771
O   O84       1.0  0.79008  0.22788  0.55170  1.0000 -0.5880002771
O   O85       1.0  0.75410  0.23230  0.27610  1.0000 -0.2163683717
O   O86       1.0  0.23230  0.75410  0.22390  1.0000 -0.2142121439
O   O87       1.0  0.24590  0.76770  0.72390  1.0000 -0.2163683717
O   O88       1.0  0.76770  0.24590  0.77610  1.0000 -0.2163683717
O   O89       1.0  0.75930  0.13730  0.23110  1.0000 -0.1837355737
O   O90       1.0  0.13730  0.75930  0.26890  1.0000 -0.1861915458
O   O91       1.0  0.24070  0.86270  0.76890  1.0000 -0.1861915458
O   O92       1.0  0.86270  0.24070  0.73110  1.0000 -0.1837355737
O   O93       1.0  0.64610  0.27950  0.05810  1.0000 0.1982029471
O   O94       1.0  0.27950  0.64610  0.44190  1.0000 0.1982029471
O   O95       1.0  0.35390  0.72050  0.94190  1.0000 0.1982029471
O   O96       1.0  0.72050  0.35390  0.55810  1.0000 0.1982029471
O   O97       1.0  0.81540  0.24440  0.77990  1.0000 0.1127621521
O   O98       1.0  0.24440  0.81540  0.72010  1.0000 0.1127621521
O   O99       1.0  0.18460  0.75560  0.22010  1.0000 0.1127621521
O   O100      1.0  0.75560  0.18460  0.27990  1.0000 0.1127621521
O   O101      1.0  0.77800  0.34140  0.58890  1.0000 -0.1487398838
O   O102      1.0  0.34140  0.77800  0.91110  1.0000 -0.1487398838
O   O103      1.0  0.22200  0.65860  0.41110  1.0000 -0.1487398838
O   O104      1.0  0.65860  0.22200  0.08890  1.0000 -0.1487398838
O   O105      1.0  0.68120  0.32660  0.58330  1.0000 -0.2427299712
O   O106      1.0  0.32660  0.68120  0.91670  1.0000 -0.2427299712
O   O107      1.0  0.31880  0.67340  0.41670  1.0000 -0.2427299712
O   O108      1.0  0.67340  0.31880  0.08330  1.0000 -0.2427299712
