# DDEC6 charges by PACMAN v1.1 (https://github.com/mtap-research/PACMAN-charge/)
data_2013[Zn][rtl]3[ION]1
_chemical_formula_sum              "Zn12 P8 H72 C84 N4 O56"
_cell_length_a       17.4866
_cell_length_b       17.4866
_cell_length_c       17.4866
_cell_angle_alpha    116.309
_cell_angle_beta     116.309
_cell_angle_gamma    96.522

_symmetry_space_group_name_H-M    "P 1"
_symmetry_Int_Tables_number       1

loop_
  _symmetry_equiv_pos_as_xyz
  'x, y, z'

loop_
  _atom_site_type_symbol
  _atom_site_label
  _atom_site_symmetry_multiplicity
  _atom_site_fract_x
  _atom_site_fract_y
  _atom_site_fract_z
  _atom_site_occupancy
  _atom_site_charge
Zn  Zn1       1.0  0.24970  0.62500  0.12470  1.0000 1.0017156252
Zn  Zn2       1.0  0.37500  0.49970  0.62470  1.0000 1.0017156252
Zn  Zn3       1.0  0.50030  0.12500  0.87530  1.0000 1.0017156252
Zn  Zn4       1.0  0.87500  0.75030  0.37530  1.0000 1.0017156252
Zn  Zn5       1.0  0.49017  0.44931  0.49202  1.0000 0.9914920503
Zn  Zn6       1.0  0.55069  0.04271  0.04086  1.0000 0.9914920503
Zn  Zn7       1.0  0.95729  0.99815  0.50798  1.0000 0.9914920503
Zn  Zn8       1.0  0.00185  0.50983  0.95914  1.0000 0.9914920503
Zn  Zn9       1.0  0.25983  0.25185  0.45914  1.0000 0.9914920503
Zn  Zn10      1.0  0.74815  0.20729  0.00798  1.0000 0.9914920503
Zn  Zn11      1.0  0.79271  0.80069  0.54086  1.0000 0.9914920503
Zn  Zn12      1.0  0.19931  0.74017  0.99202  1.0000 0.9914920503
P   P1        1.0  0.27959  0.38304  0.38561  1.0000 1.2799027511
P   P2        1.0  0.61696  0.00257  0.89655  1.0000 1.2799027511
P   P3        1.0  0.99743  0.89398  0.61439  1.0000 1.2799027511
P   P4        1.0  0.10602  0.72041  0.10345  1.0000 1.2799027511
P   P5        1.0  0.47041  0.35602  0.60345  1.0000 1.2799027511
P   P6        1.0  0.64398  0.24743  0.11439  1.0000 1.2799027511
P   P7        1.0  0.75257  0.86696  0.39655  1.0000 1.2799027511
P   P8        1.0  0.13304  0.52959  0.88561  1.0000 1.2799027511
H   H1        1.0  0.26970  0.46980  0.27550  1.0000 0.1415520607
H   H2        1.0  0.53020  0.80570  0.79990  1.0000 0.1415520607
H   H3        1.0  0.19430  0.99420  0.72450  1.0000 0.1415520607
H   H4        1.0  0.00580  0.73030  0.20010  1.0000 0.1415520607
H   H5        1.0  0.48030  0.25580  0.70010  1.0000 0.1415520607
H   H6        1.0  0.74420  0.44430  0.22450  1.0000 0.1415520607
H   H7        1.0  0.55570  0.78020  0.29990  1.0000 0.1415520607
H   H8        1.0  0.21980  0.51970  0.77550  1.0000 0.1415520607
H   H9        1.0  0.99880  0.38230  0.07030  1.0000 0.1415520607
H   H10       1.0  0.61770  0.68800  0.61650  1.0000 0.1415520607
H   H11       1.0  0.31200  0.92850  0.92970  1.0000 0.1415520607
H   H12       1.0  0.07150  0.00120  0.38350  1.0000 0.1415520607
H   H13       1.0  0.75120  0.32150  0.88350  1.0000 0.1415520607
H   H14       1.0  0.67850  0.56200  0.42970  1.0000 0.1415520607
H   H15       1.0  0.43800  0.86770  0.11650  1.0000 0.1415520607
H   H16       1.0  0.13230  0.24880  0.57030  1.0000 0.1415520607
H   H17       1.0  0.08390  0.29550  0.25960  1.0000 0.1415520607
H   H18       1.0  0.70450  0.96410  0.78840  1.0000 0.1415520607
H   H19       1.0  0.03590  0.82430  0.74040  1.0000 0.1415520607
H   H20       1.0  0.17570  0.91610  0.21160  1.0000 0.1415520607
H   H21       1.0  0.66610  0.42570  0.71160  1.0000 0.1415520607
H   H22       1.0  0.57430  0.28590  0.24040  1.0000 0.1415520607
H   H23       1.0  0.71410  0.95450  0.28840  1.0000 0.1415520607
H   H24       1.0  0.04550  0.33390  0.75960  1.0000 0.1415520607
H   H25       1.0  0.74250  0.03480  0.61050  1.0000 0.1170465544
H   H26       1.0  0.00750  0.11800  0.79230  1.0000 0.1170465544
H   H27       1.0  0.80160  0.10900  0.61100  1.0000 0.1170465544
H   H28       1.0  0.94840  0.05940  0.80740  1.0000 0.1170465544
H   H29       1.0  0.78250  0.20110  0.71140  1.0000 0.1104909084
H   H30       1.0  0.96750  0.17890  0.91860  1.0000 0.1104909084
H   H31       1.0  0.74410  0.12970  0.72860  1.0000 0.1170465544
H   H32       1.0  0.00590  0.23450  0.88560  1.0000 0.1170465544
H   H33       1.0  0.85290  0.20980  0.87770  1.0000 0.1104909084
H   H34       1.0  0.89710  0.27480  0.85690  1.0000 0.1104909084
H   H35       1.0  0.83940  0.00520  0.67180  1.0000 0.2679476016
H   H36       1.0  0.91060  0.08240  0.66580  1.0000 0.2679476016
H   H37       1.0  0.86800  0.25750  0.29230  1.0000 0.1170465544
H   H38       1.0  0.78480  0.99250  0.11050  1.0000 0.1170465544
H   H39       1.0  0.80940  0.19840  0.30740  1.0000 0.1170465544
H   H40       1.0  0.85900  0.05160  0.11100  1.0000 0.1170465544
H   H41       1.0  0.92890  0.21750  0.41860  1.0000 0.1104909084
H   H42       1.0  0.95110  0.03250  0.21140  1.0000 0.1104909084
H   H43       1.0  0.98450  0.25590  0.38560  1.0000 0.1170465544
H   H44       1.0  0.87970  0.99410  0.22860  1.0000 0.1170465544
H   H45       1.0  0.02480  0.14710  0.35690  1.0000 0.1104909084
H   H46       1.0  0.95980  0.10290  0.37770  1.0000 0.1104909084
H   H47       1.0  0.83240  0.16060  0.16580  1.0000 0.2679476016
H   H48       1.0  0.75520  0.08940  0.17180  1.0000 0.2679476016
H   H49       1.0  0.42430  0.13200  0.38950  1.0000 0.1170465544
H   H50       1.0  0.32570  0.21520  0.20770  1.0000 0.1170465544
H   H51       1.0  0.49800  0.19060  0.38900  1.0000 0.1170465544
H   H52       1.0  0.25200  0.14100  0.19260  1.0000 0.1170465544
H   H53       1.0  0.48970  0.07110  0.28860  1.0000 0.1104909084
H   H54       1.0  0.26030  0.04890  0.08140  1.0000 0.1104909084
H   H55       1.0  0.40110  0.01550  0.27140  1.0000 0.1170465544
H   H56       1.0  0.34890  0.12030  0.11440  1.0000 0.1170465544
H   H57       1.0  0.33210  0.97520  0.12230  1.0000 0.1104909084
H   H58       1.0  0.41790  0.04020  0.14310  1.0000 0.1104909084
H   H59       1.0  0.33340  0.16760  0.32820  1.0000 0.2679476016
H   H60       1.0  0.41660  0.24480  0.33420  1.0000 0.2679476016
H   H61       1.0  0.96520  0.57570  0.70770  1.0000 0.1170465544
H   H62       1.0  0.88200  0.67430  0.88950  1.0000 0.1170465544
H   H63       1.0  0.89100  0.50200  0.69260  1.0000 0.1170465544
H   H64       1.0  0.94060  0.74800  0.88900  1.0000 0.1170465544
H   H65       1.0  0.79890  0.51030  0.58140  1.0000 0.1104909084
H   H66       1.0  0.82110  0.73970  0.78860  1.0000 0.1104909084
H   H67       1.0  0.87030  0.59890  0.61440  1.0000 0.1170465544
H   H68       1.0  0.76550  0.65110  0.77140  1.0000 0.1170465544
H   H69       1.0  0.79020  0.66790  0.64310  1.0000 0.1104909084
H   H70       1.0  0.72520  0.58210  0.62230  1.0000 0.1104909084
H   H71       1.0  0.99480  0.66667  0.83420  1.0000 0.2679476016
H   H72       1.0  0.91760  0.58340  0.82820  1.0000 0.2679476016
C   C1        1.0  0.19090  0.38150  0.28140  1.0000 -0.1758428193
C   C2        1.0  0.61850  0.89990  0.80940  1.0000 -0.1758428193
C   C3        1.0  0.10010  0.90950  0.71860  1.0000 -0.1758428193
C   C4        1.0  0.09050  0.80910  0.19060  1.0000 -0.1758428193
C   C5        1.0  0.55910  0.34050  0.69060  1.0000 -0.1758428193
C   C6        1.0  0.65950  0.35010  0.21860  1.0000 -0.1758428193
C   C7        1.0  0.64990  0.86850  0.30940  1.0000 -0.1758428193
C   C8        1.0  0.13150  0.44090  0.78140  1.0000 -0.1758428193
C   C9        1.0  0.20890  0.43440  0.24610  1.0000 -0.0597733673
C   C10       1.0  0.56560  0.81170  0.77450  1.0000 -0.0597733673
C   C11       1.0  0.18830  0.96280  0.75390  1.0000 -0.0597733673
C   C12       1.0  0.03720  0.79110  0.22550  1.0000 -0.0597733673
C   C13       1.0  0.54110  0.28720  0.72550  1.0000 -0.0597733673
C   C14       1.0  0.71280  0.43830  0.25390  1.0000 -0.0597733673
C   C15       1.0  0.56170  0.81560  0.27450  1.0000 -0.0597733673
C   C16       1.0  0.18440  0.45890  0.74610  1.0000 -0.0597733673
C   C17       1.0  0.13800  0.43510  0.16790  1.0000 -0.0223044888
C   C18       1.0  0.56490  0.73280  0.70290  1.0000 -0.0223044888
C   C19       1.0  0.26720  0.97010  0.83210  1.0000 -0.0223044888
C   C20       1.0  0.02990  0.86200  0.29710  1.0000 -0.0223044888
C   C21       1.0  0.61200  0.27990  0.79710  1.0000 -0.0223044888
C   C22       1.0  0.72010  0.51720  0.33210  1.0000 -0.0223044888
C   C23       1.0  0.48280  0.81490  0.20290  1.0000 -0.0223044888
C   C24       1.0  0.18510  0.38800  0.66790  1.0000 -0.0223044888
C   C25       1.0  0.04630  0.38230  0.12320  1.0000 -0.0908775679
C   C26       1.0  0.61770  0.74090  0.66400  1.0000 -0.0908775679
C   C27       1.0  0.25910  0.92310  0.87680  1.0000 -0.0908775679
C   C28       1.0  0.07690  0.95370  0.33600  1.0000 -0.0908775679
C   C29       1.0  0.70370  0.32690  0.83600  1.0000 -0.0908775679
C   C30       1.0  0.67310  0.50910  0.37680  1.0000 -0.0908775679
C   C31       1.0  0.49090  0.86770  0.16400  1.0000 -0.0908775679
C   C32       1.0  0.13230  0.29630  0.62320  1.0000 -0.0908775679
C   C33       1.0  0.02570  0.33040  0.15710  1.0000 -0.0291749937
C   C34       1.0  0.66960  0.82670  0.69530  1.0000 -0.0291749937
C   C35       1.0  0.17330  0.86860  0.84290  1.0000 -0.0291749937
C   C36       1.0  0.13140  0.97430  0.30470  1.0000 -0.0291749937
C   C37       1.0  0.72430  0.38140  0.80470  1.0000 -0.0291749937
C   C38       1.0  0.61860  0.42330  0.34290  1.0000 -0.0291749937
C   C39       1.0  0.57670  0.91960  0.19530  1.0000 -0.0291749937
C   C40       1.0  0.08040  0.27570  0.65710  1.0000 -0.0291749937
C   C41       1.0  0.09790  0.33030  0.23640  1.0000 -0.0662851087
C   C42       1.0  0.66970  0.90610  0.76760  1.0000 -0.0662851087
C   C43       1.0  0.09390  0.86150  0.76360  1.0000 -0.0662851087
C   C44       1.0  0.13850  0.90210  0.23240  1.0000 -0.0662851087
C   C45       1.0  0.65210  0.38850  0.73240  1.0000 -0.0662851087
C   C46       1.0  0.61150  0.34390  0.26360  1.0000 -0.0662851087
C   C47       1.0  0.65610  0.91970  0.26760  1.0000 -0.0662851087
C   C48       1.0  0.08030  0.34790  0.73640  1.0000 -0.0662851087
C   C49       1.0  0.97330  0.84320  0.33670  1.0000 0.6034055599
C   C50       1.0  0.15680  0.49350  0.13010  1.0000 0.6034055599
C   C51       1.0  0.50650  0.63660  0.66330  1.0000 0.6034055599
C   C52       1.0  0.36340  0.02670  0.86990  1.0000 0.6034055599
C   C53       1.0  0.77670  0.61340  0.36990  1.0000 0.6034055599
C   C54       1.0  0.38660  0.75650  0.16330  1.0000 0.6034055599
C   C55       1.0  0.24350  0.40680  0.63010  1.0000 0.6034055599
C   C56       1.0  0.59320  0.22330  0.83670  1.0000 0.6034055599
C   C57       1.0  0.92910  0.27500  0.11310  1.0000 0.5489910492
C   C58       1.0  0.72500  0.83810  0.65410  1.0000 0.5489910492
C   C59       1.0  0.16190  0.81600  0.88690  1.0000 0.5489910492
C   C60       1.0  0.18400  0.07090  0.34590  1.0000 0.5489910492
C   C61       1.0  0.82090  0.43400  0.84590  1.0000 0.5489910492
C   C62       1.0  0.56600  0.41190  0.38690  1.0000 0.5489910492
C   C63       1.0  0.58810  0.97500  0.15410  1.0000 0.5489910492
C   C64       1.0  0.02500  0.17910  0.61310  1.0000 0.5489910492
C   C65       1.0  0.80020  0.08770  0.65330  1.0000 -0.0502531631
C   C66       1.0  0.94980  0.10310  0.78750  1.0000 -0.0502531631
C   C67       1.0  0.79650  0.15760  0.73030  1.0000 -0.1758428193
C   C68       1.0  0.95350  0.18380  0.86110  1.0000 -0.1758428193
C   C69       1.0  0.87500  0.21110  0.83610  1.0000 -0.1457176036
C   C70       1.0  0.85310  0.19980  0.28750  1.0000 -0.0502531631
C   C71       1.0  0.83770  0.05020  0.15330  1.0000 -0.0502531631
C   C72       1.0  0.93380  0.20350  0.36110  1.0000 -0.1758428193
C   C73       1.0  0.90760  0.04650  0.23030  1.0000 -0.1758428193
C   C74       1.0  0.96110  0.12500  0.33610  1.0000 -0.1457176036
C   C75       1.0  0.43440  0.14690  0.34670  1.0000 -0.0502531631
C   C76       1.0  0.31560  0.16230  0.21250  1.0000 -0.0502531631
C   C77       1.0  0.42730  0.06620  0.26970  1.0000 -0.1758428193
C   C78       1.0  0.32270  0.09240  0.13890  1.0000 -0.1758428193
C   C79       1.0  0.37500  0.03890  0.16390  1.0000 -0.1457176036
C   C80       1.0  0.91230  0.56560  0.71250  1.0000 -0.0502531631
C   C81       1.0  0.89690  0.68440  0.84670  1.0000 -0.0502531631
C   C82       1.0  0.84240  0.57270  0.63890  1.0000 -0.1758428193
C   C83       1.0  0.81620  0.67730  0.76970  1.0000 -0.1758428193
C   C84       1.0  0.78890  0.62500  0.66390  1.0000 -0.1457176036
N   N1        1.0  0.87500  0.05430  0.67930  1.0000 -0.2234719
N   N2        1.0  0.80430  0.12500  0.17930  1.0000 -0.2234719
N   N3        1.0  0.37500  0.19570  0.32070  1.0000 -0.2234719
N   N4        1.0  0.94570  0.62500  0.82070  1.0000 -0.2234719
O   O1        1.0  0.18720  0.70440  0.16600  1.0000 -0.7620622418
O   O2        1.0  0.29560  0.46160  0.48280  1.0000 -0.7620622418
O   O3        1.0  0.53840  0.02120  0.83400  1.0000 -0.7620622418
O   O4        1.0  0.97880  0.81280  0.51720  1.0000 -0.7620622418
O   O5        1.0  0.56280  0.22880  0.01720  1.0000 -0.7620622418
O   O6        1.0  0.77120  0.78840  0.33400  1.0000 -0.7620622418
O   O7        1.0  0.21160  0.54560  0.98280  1.0000 -0.7620622418
O   O8        1.0  0.45440  0.43720  0.66600  1.0000 -0.7620622418
O   O9        1.0  0.36290  0.39700  0.37970  1.0000 -0.7410648516
O   O10       1.0  0.60300  0.98270  0.96590  1.0000 -0.7410648516
O   O11       1.0  0.01730  0.98320  0.62030  1.0000 -0.7410648516
O   O12       1.0  0.01680  0.63710  0.03410  1.0000 -0.7410648516
O   O13       1.0  0.38710  0.26680  0.53410  1.0000 -0.7410648516
O   O14       1.0  0.73320  0.26730  0.12030  1.0000 -0.7410648516
O   O15       1.0  0.73270  0.85300  0.46590  1.0000 -0.7410648516
O   O16       1.0  0.14700  0.61290  0.87970  1.0000 -0.7410648516
O   O17       1.0  0.12370  0.75520  0.04490  1.0000 -0.7620622418
O   O18       1.0  0.24480  0.28970  0.36850  1.0000 -0.7620622418
O   O19       1.0  0.71030  0.07880  0.95510  1.0000 -0.7620622418
O   O20       1.0  0.92120  0.87630  0.63150  1.0000 -0.7620622418
O   O21       1.0  0.62630  0.17120  0.13150  1.0000 -0.7620622418
O   O22       1.0  0.82880  0.96030  0.45510  1.0000 -0.7620622418
O   O23       1.0  0.03970  0.49480  0.86850  1.0000 -0.7620622418
O   O24       1.0  0.50520  0.37370  0.54490  1.0000 -0.7620622418
O   O25       1.0  0.96780  0.91020  0.39580  1.0000 -0.5363732404
O   O26       1.0  0.08980  0.48560  0.05760  1.0000 -0.5363732404
O   O27       1.0  0.51440  0.57200  0.60420  1.0000 -0.5363732404
O   O28       1.0  0.42800  0.03220  0.94240  1.0000 -0.5363732404
O   O29       1.0  0.78220  0.67800  0.44240  1.0000 -0.5363732404
O   O30       1.0  0.32200  0.76440  0.10420  1.0000 -0.5363732404
O   O31       1.0  0.23560  0.33980  0.55760  1.0000 -0.5363732404
O   O32       1.0  0.66020  0.21780  0.89580  1.0000 -0.5363732404
O   O33       1.0  0.93530  0.76050  0.30500  1.0000 -0.4969471036
O   O34       1.0  0.23950  0.54450  0.17480  1.0000 -0.4969471036
O   O35       1.0  0.45550  0.63030  0.69500  1.0000 -0.4969471036
O   O36       1.0  0.36970  0.06470  0.82520  1.0000 -0.4969471036
O   O37       1.0  0.81470  0.61970  0.32520  1.0000 -0.4969471036
O   O38       1.0  0.38030  0.70550  0.19500  1.0000 -0.4969471036
O   O39       1.0  0.29450  0.48950  0.67480  1.0000 -0.4969471036
O   O40       1.0  0.51050  0.18530  0.80500  1.0000 -0.4969471036
O   O41       1.0  0.86560  0.28380  0.04740  1.0000 -0.5263160146
O   O42       1.0  0.71620  0.76360  0.58180  1.0000 -0.5263160146
O   O43       1.0  0.23640  0.81820  0.95260  1.0000 -0.5263160146
O   O44       1.0  0.18180  0.13440  0.41820  1.0000 -0.5263160146
O   O45       1.0  0.88440  0.43180  0.91820  1.0000 -0.5263160146
O   O46       1.0  0.56820  0.48640  0.45260  1.0000 -0.5263160146
O   O47       1.0  0.51360  0.96620  0.08180  1.0000 -0.5263160146
O   O48       1.0  0.03380  0.11560  0.54740  1.0000 -0.5263160146
O   O49       1.0  0.22640  0.08800  0.31300  1.0000 -0.5095997131
O   O50       1.0  0.91200  0.22500  0.13840  1.0000 -0.5095997131
O   O51       1.0  0.77500  0.91340  0.68700  1.0000 -0.5095997131
O   O52       1.0  0.08660  0.77360  0.86160  1.0000 -0.5095997131
O   O53       1.0  0.52360  0.33660  0.36160  1.0000 -0.5095997131
O   O54       1.0  0.66340  0.02500  0.18700  1.0000 -0.5095997131
O   O55       1.0  0.97500  0.16200  0.63840  1.0000 -0.5095997131
O   O56       1.0  0.83800  0.47640  0.81300  1.0000 -0.5095997131
