# DDEC6 charges by PACMAN v1.1 (https://github.com/mtap-research/PACMAN-charge/)
data_2013[Cu][neb]3[ION]1
_chemical_formula_sum              "Cu8 H64 C64 N32 Cl4 O16"
_cell_length_a       10.837
_cell_length_b       18.131
_cell_length_c       17.561
_cell_angle_alpha    90
_cell_angle_beta     104.301
_cell_angle_gamma    90

_symmetry_space_group_name_H-M    "P 1"
_symmetry_Int_Tables_number       1

loop_
  _symmetry_equiv_pos_as_xyz
  'x, y, z'

loop_
  _atom_site_type_symbol
  _atom_site_label
  _atom_site_symmetry_multiplicity
  _atom_site_fract_x
  _atom_site_fract_y
  _atom_site_fract_z
  _atom_site_occupancy
  _atom_site_charge
Cu  Cu1       1.0  0.04442  0.85955  0.37494  1.0000 0.1719287484
Cu  Cu2       1.0  0.95558  0.35955  0.12506  1.0000 0.1719287484
Cu  Cu3       1.0  0.95558  0.14045  0.62506  1.0000 0.1719287484
Cu  Cu4       1.0  0.04442  0.64045  0.87494  1.0000 0.1719287484
Cu  Cu5       1.0  0.44728  0.86731  0.13003  1.0000 0.23216556
Cu  Cu6       1.0  0.55272  0.36731  0.36997  1.0000 0.23216556
Cu  Cu7       1.0  0.55272  0.13269  0.86997  1.0000 0.23216556
Cu  Cu8       1.0  0.44728  0.63269  0.63003  1.0000 0.23216556
H   H1        1.0  0.30990  0.91630  0.37620  1.0000 0.1100040343
H   H2        1.0  0.69010  0.41630  0.12380  1.0000 0.1100040343
H   H3        1.0  0.69010  0.08370  0.62380  1.0000 0.1100040343
H   H4        1.0  0.30990  0.58370  0.87620  1.0000 0.1100040343
H   H5        1.0  0.44700  0.91680  0.29530  1.0000 0.1182084892
H   H6        1.0  0.55300  0.41680  0.20470  1.0000 0.1182084892
H   H7        1.0  0.55300  0.08320  0.70470  1.0000 0.1182084892
H   H8        1.0  0.44700  0.58320  0.79530  1.0000 0.1182084892
H   H9        1.0  0.16340  0.86090  0.11670  1.0000 0.1100040343
H   H10       1.0  0.83660  0.36090  0.38330  1.0000 0.1100040343
H   H11       1.0  0.83660  0.13910  0.88330  1.0000 0.1100040343
H   H12       1.0  0.16340  0.63910  0.61670  1.0000 0.1100040343
H   H13       1.0  0.02720  0.85920  0.19840  1.0000 0.1100040343
H   H14       1.0  0.97280  0.35920  0.30160  1.0000 0.1100040343
H   H15       1.0  0.97280  0.14080  0.80160  1.0000 0.1100040343
H   H16       1.0  0.02720  0.64080  0.69840  1.0000 0.1100040343
H   H17       1.0  0.87420  0.95210  0.26870  1.0000 0.1182084892
H   H18       1.0  0.12580  0.45210  0.23130  1.0000 0.1182084892
H   H19       1.0  0.12580  0.04790  0.73130  1.0000 0.1182084892
H   H20       1.0  0.87420  0.54790  0.76870  1.0000 0.1182084892
H   H21       1.0  0.67540  0.95540  0.18330  1.0000 0.1100040343
H   H22       1.0  0.32460  0.45540  0.31670  1.0000 0.1100040343
H   H23       1.0  0.32460  0.04460  0.81670  1.0000 0.1100040343
H   H24       1.0  0.67540  0.54460  0.68330  1.0000 0.1100040343
H   H25       1.0  0.61340  0.75160  0.24190  1.0000 0.1250844448
H   H26       1.0  0.38660  0.25160  0.25810  1.0000 0.1250844448
H   H27       1.0  0.38660  0.24840  0.75810  1.0000 0.1250844448
H   H28       1.0  0.61340  0.74840  0.74190  1.0000 0.1250844448
H   H29       1.0  0.81550  0.74770  0.32470  1.0000 0.1182084892
H   H30       1.0  0.18450  0.24770  0.17530  1.0000 0.1182084892
H   H31       1.0  0.18450  0.25230  0.67530  1.0000 0.1182084892
H   H32       1.0  0.81550  0.75230  0.82470  1.0000 0.1182084892
H   H33       1.0  0.86810  0.90260  0.47140  1.0000 0.1182084892
H   H34       1.0  0.13190  0.40260  0.02860  1.0000 0.1182084892
H   H35       1.0  0.13190  0.09740  0.52860  1.0000 0.1182084892
H   H36       1.0  0.86810  0.59740  0.97140  1.0000 0.1182084892
H   H37       1.0  0.15780  0.01070  0.43840  1.0000 0.1100040343
H   H38       1.0  0.84220  0.51070  0.06160  1.0000 0.1100040343
H   H39       1.0  0.84220  0.98930  0.56160  1.0000 0.1100040343
H   H40       1.0  0.15780  0.48930  0.93840  1.0000 0.1100040343
H   H41       1.0  0.19100  0.72010  0.36980  1.0000 0.1182084892
H   H42       1.0  0.80900  0.22010  0.13020  1.0000 0.1182084892
H   H43       1.0  0.80900  0.27990  0.63020  1.0000 0.1182084892
H   H44       1.0  0.19100  0.77990  0.86980  1.0000 0.1182084892
H   H45       1.0  0.33930  0.64820  0.45440  1.0000 0.1182084892
H   H46       1.0  0.66070  0.14820  0.04560  1.0000 0.1182084892
H   H47       1.0  0.66070  0.35180  0.54560  1.0000 0.1182084892
H   H48       1.0  0.33930  0.85180  0.95440  1.0000 0.1182084892
H   H49       1.0  0.31860  0.77910  0.62900  1.0000 0.1182084892
H   H50       1.0  0.68140  0.27910  0.87100  1.0000 0.1182084892
H   H51       1.0  0.68140  0.22090  0.37100  1.0000 0.1182084892
H   H52       1.0  0.31860  0.72090  0.12900  1.0000 0.1182084892
H   H53       1.0  0.16760  0.84900  0.54530  1.0000 0.1100040343
H   H54       1.0  0.83240  0.34900  0.95470  1.0000 0.1100040343
H   H55       1.0  0.83240  0.15100  0.45470  1.0000 0.1100040343
H   H56       1.0  0.16760  0.65100  0.04530  1.0000 0.1100040343
H   H57       1.0  0.34420  0.01990  0.06540  1.0000 0.1182084892
H   H58       1.0  0.65580  0.51990  0.43460  1.0000 0.1182084892
H   H59       1.0  0.65580  0.98010  0.93460  1.0000 0.1182084892
H   H60       1.0  0.34420  0.48010  0.56540  1.0000 0.1182084892
H   H61       1.0  0.37500  0.10290  0.97140  1.0000 0.1100040343
H   H62       1.0  0.62500  0.60290  0.52860  1.0000 0.1100040343
H   H63       1.0  0.62500  0.89710  0.02860  1.0000 0.1100040343
H   H64       1.0  0.37500  0.39710  0.47140  1.0000 0.1100040343
C   C1        1.0  0.27770  0.90360  0.32250  1.0000 -0.0021453308
C   C2        1.0  0.72230  0.40360  0.17750  1.0000 -0.0021453308
C   C3        1.0  0.72230  0.09640  0.67750  1.0000 -0.0021453308
C   C4        1.0  0.27770  0.59640  0.82250  1.0000 -0.0021453308
C   C5        1.0  0.36030  0.90390  0.27390  1.0000 0.0282086678
C   C6        1.0  0.63970  0.40390  0.22610  1.0000 0.0282086678
C   C7        1.0  0.63970  0.09610  0.72610  1.0000 0.0282086678
C   C8        1.0  0.36030  0.59610  0.77390  1.0000 0.0282086678
C   C9        1.0  0.19650  0.87148  0.17090  1.0000 0.0091583888
C   C10       1.0  0.80350  0.37148  0.32910  1.0000 0.0091583888
C   C11       1.0  0.80350  0.12852  0.82910  1.0000 0.0091583888
C   C12       1.0  0.19650  0.62852  0.67090  1.0000 0.0091583888
C   C13       1.0  0.11440  0.87076  0.21990  1.0000 -0.0100082923
C   C14       1.0  0.88560  0.37076  0.28010  1.0000 -0.0100082923
C   C15       1.0  0.88560  0.12924  0.78010  1.0000 -0.0100082923
C   C16       1.0  0.11440  0.62924  0.71990  1.0000 -0.0100082923
C   C17       1.0  0.82170  0.90950  0.26340  1.0000 -0.0100082923
C   C18       1.0  0.17830  0.40950  0.23660  1.0000 -0.0100082923
C   C19       1.0  0.17830  0.09050  0.73660  1.0000 -0.0100082923
C   C20       1.0  0.82170  0.59050  0.76340  1.0000 -0.0100082923
C   C21       1.0  0.70220  0.91160  0.21250  1.0000 0.0210777263
C   C22       1.0  0.29780  0.41160  0.28750  1.0000 0.0210777263
C   C23       1.0  0.29780  0.08840  0.78750  1.0000 0.0210777263
C   C24       1.0  0.70220  0.58840  0.71250  1.0000 0.0210777263
C   C25       1.0  0.66650  0.79380  0.24580  1.0000 0.0210777263
C   C26       1.0  0.33350  0.29380  0.25420  1.0000 0.0210777263
C   C27       1.0  0.33350  0.20620  0.75420  1.0000 0.0210777263
C   C28       1.0  0.66650  0.70620  0.74580  1.0000 0.0210777263
C   C29       1.0  0.78780  0.79160  0.29620  1.0000 0.0022185082
C   C30       1.0  0.21220  0.29160  0.20380  1.0000 0.0022185082
C   C31       1.0  0.21220  0.20840  0.70380  1.0000 0.0022185082
C   C32       1.0  0.78780  0.70840  0.79620  1.0000 0.0022185082
C   C33       1.0  0.92580  0.94290  0.48250  1.0000 -0.0021453308
C   C34       1.0  0.07420  0.44290  0.01750  1.0000 -0.0021453308
C   C35       1.0  0.07420  0.05710  0.51750  1.0000 -0.0021453308
C   C36       1.0  0.92580  0.55710  0.98250  1.0000 -0.0021453308
C   C37       1.0  0.09060  0.00440  0.46380  1.0000 -0.0100082923
C   C38       1.0  0.90940  0.50440  0.03620  1.0000 -0.0100082923
C   C39       1.0  0.90940  0.99560  0.53620  1.0000 -0.0100082923
C   C40       1.0  0.09060  0.49560  0.96380  1.0000 -0.0100082923
C   C41       1.0  0.21530  0.73280  0.42390  1.0000 0.0022185082
C   C42       1.0  0.78470  0.23280  0.07610  1.0000 0.0091583888
C   C43       1.0  0.78470  0.26720  0.57610  1.0000 0.0022185082
C   C44       1.0  0.21530  0.76720  0.92390  1.0000 0.0022185082
C   C45       1.0  0.30520  0.69000  0.47460  1.0000 0.0210777263
C   C46       1.0  0.69480  0.19000  0.02540  1.0000 0.0210777263
C   C47       1.0  0.69480  0.31000  0.52540  1.0000 0.0210777263
C   C48       1.0  0.30520  0.81000  0.97460  1.0000 0.0210777263
C   C49       1.0  0.29270  0.76540  0.57520  1.0000 0.0091583888
C   C50       1.0  0.70730  0.26540  0.92480  1.0000 0.0091583888
C   C51       1.0  0.70730  0.23460  0.42480  1.0000 0.0091583888
C   C52       1.0  0.29270  0.73460  0.07520  1.0000 0.0091583888
C   C53       1.0  0.20220  0.80740  0.52500  1.0000 0.0091583888
C   C54       1.0  0.79780  0.30740  0.97500  1.0000 0.0091583888
C   C55       1.0  0.79780  0.19260  0.47500  1.0000 0.0091583888
C   C56       1.0  0.20220  0.69260  0.02500  1.0000 0.0091583888
C   C57       1.0  0.40910  0.01072  0.03888  1.0000 0.0282086678
C   C58       1.0  0.59090  0.51072  0.46112  1.0000 0.0282086678
C   C59       1.0  0.59090  0.98928  0.96112  1.0000 0.0282086678
C   C60       1.0  0.40910  0.48928  0.53888  1.0000 0.0282086678
C   C61       1.0  0.42790  0.06050  0.98260  1.0000 0.0210777263
C   C62       1.0  0.57210  0.56050  0.51740  1.0000 0.0210777263
C   C63       1.0  0.57210  0.93950  0.01740  1.0000 0.0210777263
C   C64       1.0  0.42790  0.43950  0.48260  1.0000 0.0210777263
N   N1        1.0  0.15430  0.88601  0.29718  1.0000 -0.1815920153
N   N2        1.0  0.84570  0.38601  0.20282  1.0000 -0.185102746
N   N3        1.0  0.84570  0.11399  0.70282  1.0000 -0.1815920153
N   N4        1.0  0.15430  0.61399  0.79718  1.0000 -0.1815920153
N   N5        1.0  0.32180  0.88666  0.19701  1.0000 -0.1815920153
N   N6        1.0  0.67820  0.38666  0.30299  1.0000 -0.1815920153
N   N7        1.0  0.67820  0.11334  0.80299  1.0000 -0.1815920153
N   N8        1.0  0.32180  0.61334  0.69701  1.0000 -0.1815920153
N   N9        1.0  0.86610  0.84918  0.30549  1.0000 -0.185102746
N   N10       1.0  0.13390  0.34918  0.19451  1.0000 -0.185102746
N   N11       1.0  0.13390  0.15082  0.69451  1.0000 -0.185102746
N   N12       1.0  0.86610  0.65082  0.80549  1.0000 -0.185102746
N   N13       1.0  0.62230  0.85328  0.20287  1.0000 -0.185102746
N   N14       1.0  0.37770  0.35328  0.29713  1.0000 -0.185102746
N   N15       1.0  0.37770  0.14672  0.79713  1.0000 -0.1815920153
N   N16       1.0  0.62230  0.64672  0.70287  1.0000 -0.185102746
N   N17       1.0  0.01770  0.94652  0.44664  1.0000 -0.1680622736
N   N18       1.0  0.98230  0.44652  0.05336  1.0000 -0.1680622736
N   N19       1.0  0.98230  0.05348  0.55336  1.0000 -0.1680622736
N   N20       1.0  0.01770  0.55348  0.94664  1.0000 -0.1680622736
N   N21       1.0  0.16160  0.79159  0.44878  1.0000 -0.1815920153
N   N22       1.0  0.83840  0.29159  0.05122  1.0000 -0.1815920153
N   N23       1.0  0.83840  0.20841  0.55122  1.0000 -0.1815920153
N   N24       1.0  0.16160  0.70841  0.94878  1.0000 -0.1815920153
N   N25       1.0  0.34540  0.70571  0.55098  1.0000 -0.1815920153
N   N26       1.0  0.65460  0.20571  0.94902  1.0000 -0.1815920153
N   N27       1.0  0.65460  0.29429  0.44902  1.0000 -0.1815920153
N   N28       1.0  0.34540  0.79429  0.05098  1.0000 -0.1815920153
N   N29       1.0  0.48110  0.94982  0.05644  1.0000 -0.1815920153
N   N30       1.0  0.51890  0.44982  0.44356  1.0000 -0.1815920153
N   N31       1.0  0.51890  0.05018  0.94356  1.0000 -0.1815920153
N   N32       1.0  0.48110  0.55018  0.55644  1.0000 -0.1815920153
Cl  Cl1       1.0  0.37320  0.60725  0.25933  1.0000 1.2389975785
Cl  Cl2       1.0  0.62680  0.10725  0.24067  1.0000 1.2389975785
Cl  Cl3       1.0  0.62680  0.39275  0.74067  1.0000 1.2389975785
Cl  Cl4       1.0  0.37320  0.89275  0.75933  1.0000 1.2389975785
O   O1        1.0  0.42130  0.67980  0.26110  1.0000 -0.5498471304
O   O2        1.0  0.47430  0.55420  0.25620  1.0000 -0.5498471304
O   O3        1.0  0.33300  0.59147  0.32915  1.0000 -0.5402097869
O   O4        1.0  0.27100  0.59500  0.19138  1.0000 -0.5402097869
O   O5        1.0  0.57870  0.17980  0.23890  1.0000 -0.5498471304
O   O6        1.0  0.52570  0.05420  0.24380  1.0000 -0.5498471304
O   O7        1.0  0.66700  0.09147  0.17085  1.0000 -0.5402097869
O   O8        1.0  0.72900  0.09500  0.30862  1.0000 -0.5402097869
O   O9        1.0  0.57870  0.32020  0.73890  1.0000 -0.5402097869
O   O10       1.0  0.52570  0.44580  0.74380  1.0000 -0.5498471304
O   O11       1.0  0.66700  0.40853  0.67085  1.0000 -0.5402097869
O   O12       1.0  0.72900  0.40500  0.80862  1.0000 -0.5402097869
O   O13       1.0  0.42130  0.82020  0.76110  1.0000 -0.5498471304
O   O14       1.0  0.47430  0.94580  0.75620  1.0000 -0.5498471304
O   O15       1.0  0.33300  0.90853  0.82915  1.0000 -0.5402097869
O   O16       1.0  0.27100  0.90500  0.69138  1.0000 -0.5402097869
