# DDEC6 charges by PACMAN v1.1 (https://github.com/mtap-research/PACMAN-charge/)
data_2013[Cu][pts]3[ION]1
_chemical_formula_sum              "Cu4 H80 C80 N20 F16"
_cell_length_a       9.636
_cell_length_b       11.2931
_cell_length_c       22.176
_cell_angle_alpha    90
_cell_angle_beta     90
_cell_angle_gamma    90

_symmetry_space_group_name_H-M    "P 1"
_symmetry_Int_Tables_number       1

loop_
  _symmetry_equiv_pos_as_xyz
  'x, y, z'

loop_
  _atom_site_type_symbol
  _atom_site_label
  _atom_site_symmetry_multiplicity
  _atom_site_fract_x
  _atom_site_fract_y
  _atom_site_fract_z
  _atom_site_occupancy
  _atom_site_charge
Cu  Cu1       1.0  0.00000  0.99140  0.25000  1.0000 0.6366920792
Cu  Cu2       1.0  0.50000  0.50860  0.25000  1.0000 0.6366920792
Cu  Cu3       1.0  0.00000  0.00860  0.75000  1.0000 0.6366920792
Cu  Cu4       1.0  0.50000  0.49140  0.75000  1.0000 0.6366920792
H   H1        1.0  0.76150  0.06990  0.12160  1.0000 0.0988259018
H   H2        1.0  0.73850  0.43010  0.12160  1.0000 0.0988259018
H   H3        1.0  0.83930  0.14250  0.17340  1.0000 0.0884608947
H   H4        1.0  0.66070  0.35750  0.17340  1.0000 0.0884608947
H   H5        1.0  0.87090  0.18210  0.04100  1.0000 0.0988259018
H   H6        1.0  0.62910  0.31790  0.04100  1.0000 0.0988259018
H   H7        1.0  0.96060  0.23220  0.09590  1.0000 0.0884608947
H   H8        1.0  0.53940  0.26780  0.09590  1.0000 0.0884608947
H   H9        1.0  0.62480  0.19030  0.21800  1.0000 0.1362521075
H   H10       1.0  0.87520  0.30970  0.21800  1.0000 0.1362521075
H   H11       1.0  0.54460  0.12200  0.16520  1.0000 0.1318904631
H   H12       1.0  0.95540  0.37800  0.16520  1.0000 0.1318904631
H   H13       1.0  0.63870  0.04960  0.21190  1.0000 0.1454698466
H   H14       1.0  0.86130  0.45040  0.21190  1.0000 0.1454698466
H   H15       1.0  0.82430  0.38120  0.01110  1.0000 0.1318904631
H   H16       1.0  0.67570  0.11880  0.01110  1.0000 0.1318904631
H   H17       1.0  0.92740  0.42550  0.06300  1.0000 0.1318904631
H   H18       1.0  0.57260  0.07450  0.06300  1.0000 0.1318904631
H   H19       1.0  0.98580  0.34870  0.00790  1.0000 0.1244810246
H   H20       1.0  0.51420  0.15130  0.00790  1.0000 0.1244810246
H   H21       1.0  0.23850  0.06990  0.37840  1.0000 0.0988259018
H   H22       1.0  0.26150  0.43010  0.37840  1.0000 0.0988259018
H   H23       1.0  0.16070  0.14250  0.32660  1.0000 0.0884608947
H   H24       1.0  0.33930  0.35750  0.32660  1.0000 0.0884608947
H   H25       1.0  0.12910  0.18210  0.45900  1.0000 0.0988259018
H   H26       1.0  0.37090  0.31790  0.45900  1.0000 0.0988259018
H   H27       1.0  0.03940  0.23220  0.40410  1.0000 0.0884608947
H   H28       1.0  0.46060  0.26780  0.40410  1.0000 0.0884608947
H   H29       1.0  0.37520  0.19030  0.28200  1.0000 0.1362521075
H   H30       1.0  0.12480  0.30970  0.28200  1.0000 0.1362521075
H   H31       1.0  0.45540  0.12200  0.33480  1.0000 0.1318904631
H   H32       1.0  0.04460  0.37800  0.33480  1.0000 0.1318904631
H   H33       1.0  0.36130  0.04960  0.28810  1.0000 0.1454698466
H   H34       1.0  0.13870  0.45040  0.28810  1.0000 0.1454698466
H   H35       1.0  0.17570  0.38120  0.48890  1.0000 0.1318904631
H   H36       1.0  0.32430  0.11880  0.48890  1.0000 0.1318904631
H   H37       1.0  0.07260  0.42550  0.43700  1.0000 0.1318904631
H   H38       1.0  0.42740  0.07450  0.43700  1.0000 0.1318904631
H   H39       1.0  0.01420  0.34870  0.49210  1.0000 0.1244810246
H   H40       1.0  0.48580  0.15130  0.49210  1.0000 0.1244810246
H   H41       1.0  0.23850  0.93010  0.87840  1.0000 0.0988259018
H   H42       1.0  0.26150  0.56990  0.87840  1.0000 0.0988259018
H   H43       1.0  0.16070  0.85750  0.82660  1.0000 0.0884608947
H   H44       1.0  0.33930  0.64250  0.82660  1.0000 0.0884608947
H   H45       1.0  0.12910  0.81790  0.95900  1.0000 0.0988259018
H   H46       1.0  0.37090  0.68210  0.95900  1.0000 0.0988259018
H   H47       1.0  0.03940  0.76780  0.90410  1.0000 0.0884608947
H   H48       1.0  0.46060  0.73220  0.90410  1.0000 0.0884608947
H   H49       1.0  0.37520  0.80970  0.78200  1.0000 0.1362521075
H   H50       1.0  0.12480  0.69030  0.78200  1.0000 0.1362521075
H   H51       1.0  0.45540  0.87800  0.83480  1.0000 0.1318904631
H   H52       1.0  0.04460  0.62200  0.83480  1.0000 0.1318904631
H   H53       1.0  0.36130  0.95040  0.78810  1.0000 0.1454698466
H   H54       1.0  0.13870  0.54960  0.78810  1.0000 0.1454698466
H   H55       1.0  0.17570  0.61880  0.98890  1.0000 0.1318904631
H   H56       1.0  0.32430  0.88120  0.98890  1.0000 0.1318904631
H   H57       1.0  0.07260  0.57450  0.93700  1.0000 0.1318904631
H   H58       1.0  0.42740  0.92550  0.93700  1.0000 0.1318904631
H   H59       1.0  0.01420  0.65130  0.99210  1.0000 0.1244810246
H   H60       1.0  0.48580  0.84870  0.99210  1.0000 0.1244810246
H   H61       1.0  0.76150  0.93010  0.62160  1.0000 0.0988259018
H   H62       1.0  0.73850  0.56990  0.62160  1.0000 0.0988259018
H   H63       1.0  0.83930  0.85750  0.67340  1.0000 0.0884608947
H   H64       1.0  0.66070  0.64250  0.67340  1.0000 0.0884608947
H   H65       1.0  0.87090  0.81790  0.54100  1.0000 0.0988259018
H   H66       1.0  0.62910  0.68210  0.54100  1.0000 0.0988259018
H   H67       1.0  0.96060  0.76780  0.59590  1.0000 0.0884608947
H   H68       1.0  0.53940  0.73220  0.59590  1.0000 0.0884608947
H   H69       1.0  0.62480  0.80970  0.71800  1.0000 0.1362521075
H   H70       1.0  0.87520  0.69030  0.71800  1.0000 0.1362521075
H   H71       1.0  0.54460  0.87800  0.66520  1.0000 0.1318904631
H   H72       1.0  0.95540  0.62200  0.66520  1.0000 0.1318904631
H   H73       1.0  0.63870  0.95040  0.71190  1.0000 0.1454698466
H   H74       1.0  0.86130  0.54960  0.71190  1.0000 0.1454698466
H   H75       1.0  0.82430  0.61880  0.51110  1.0000 0.1318904631
H   H76       1.0  0.67570  0.88120  0.51110  1.0000 0.1318904631
H   H77       1.0  0.92740  0.57450  0.56300  1.0000 0.1318904631
H   H78       1.0  0.57260  0.92550  0.56300  1.0000 0.1318904631
H   H79       1.0  0.98580  0.65130  0.50790  1.0000 0.1244810246
H   H80       1.0  0.51420  0.84870  0.50790  1.0000 0.1244810246
C   C1        1.0  0.25000  0.75000  0.63583  1.0000 -0.1813899852
C   C2        1.0  0.75000  0.75000  0.86417  1.0000 -0.1813899852
C   C3        1.0  0.75000  0.25000  0.36417  1.0000 -0.1813899852
C   C4        1.0  0.25000  0.25000  0.13583  1.0000 -0.1813899852
C   C5        1.0  0.25000  0.75000  0.43775  1.0000 -0.099672833
C   C6        1.0  0.75000  0.75000  0.06225  1.0000 -0.099672833
C   C7        1.0  0.75000  0.25000  0.56225  1.0000 -0.099672833
C   C8        1.0  0.25000  0.25000  0.93775  1.0000 -0.099672833
C   C9        1.0  0.30220  0.65670  0.53495  1.0000 0.0988259018
C   C10       1.0  0.69780  0.65670  0.96505  1.0000 0.0988259018
C   C11       1.0  0.80220  0.84330  0.96505  1.0000 0.0988259018
C   C12       1.0  0.19780  0.84330  0.53495  1.0000 0.0988259018
C   C13       1.0  0.69780  0.34330  0.46505  1.0000 0.0988259018
C   C14       1.0  0.30220  0.34330  0.03495  1.0000 0.0988259018
C   C15       1.0  0.19780  0.15670  0.03495  1.0000 0.0988259018
C   C16       1.0  0.80220  0.15670  0.46505  1.0000 0.0988259018
C   C17       1.0  0.30430  0.65780  0.47272  1.0000 0.1065011792
C   C18       1.0  0.69570  0.65780  0.02728  1.0000 0.1065011792
C   C19       1.0  0.80430  0.84220  0.02728  1.0000 0.1065011792
C   C20       1.0  0.19570  0.84220  0.47272  1.0000 0.1065011792
C   C21       1.0  0.69570  0.34220  0.52728  1.0000 0.1065011792
C   C22       1.0  0.30430  0.34220  0.97272  1.0000 0.1065011792
C   C23       1.0  0.19570  0.15780  0.97272  1.0000 0.1065011792
C   C24       1.0  0.80430  0.15780  0.52728  1.0000 0.1065011792
C   C25       1.0  0.17160  0.82910  0.33719  1.0000 0.306681531
C   C26       1.0  0.82840  0.82910  0.16281  1.0000 0.306681531
C   C27       1.0  0.67160  0.67090  0.16281  1.0000 0.306681531
C   C28       1.0  0.32840  0.67090  0.33719  1.0000 0.306681531
C   C29       1.0  0.82840  0.17090  0.66281  1.0000 0.306681531
C   C30       1.0  0.17160  0.17090  0.83719  1.0000 0.306681531
C   C31       1.0  0.32840  0.32910  0.83719  1.0000 0.306681531
C   C32       1.0  0.67160  0.32910  0.66281  1.0000 0.306681531
C   C33       1.0  0.17750  0.83430  0.66994  1.0000 0.2863750331
C   C34       1.0  0.82250  0.83430  0.83006  1.0000 0.2863750331
C   C35       1.0  0.67750  0.66570  0.83006  1.0000 0.2863750331
C   C36       1.0  0.32250  0.66570  0.66994  1.0000 0.2863750331
C   C37       1.0  0.82250  0.16570  0.33006  1.0000 0.2863750331
C   C38       1.0  0.17750  0.16570  0.16994  1.0000 0.2863750331
C   C39       1.0  0.32250  0.33430  0.16994  1.0000 0.2863750331
C   C40       1.0  0.67750  0.33430  0.33006  1.0000 0.2863750331
C   C41       1.0  0.25000  0.75000  0.37190  1.0000 -0.2008273281
C   C42       1.0  0.75000  0.75000  0.12810  1.0000 -0.2008273281
C   C43       1.0  0.75000  0.25000  0.62810  1.0000 -0.2008273281
C   C44       1.0  0.25000  0.25000  0.87190  1.0000 -0.2008273281
C   C45       1.0  0.25000  0.75000  0.56982  1.0000 -0.099672833
C   C46       1.0  0.75000  0.75000  0.93018  1.0000 -0.099672833
C   C47       1.0  0.75000  0.25000  0.43018  1.0000 -0.099672833
C   C48       1.0  0.25000  0.25000  0.06982  1.0000 -0.099672833
C   C49       1.0  0.75440  0.14000  0.14830  1.0000 -0.0744190491
C   C50       1.0  0.74560  0.36000  0.14830  1.0000 -0.0744190491
C   C51       1.0  0.87920  0.24850  0.06999  1.0000 -0.0744190491
C   C52       1.0  0.62080  0.25150  0.06999  1.0000 -0.0744190491
C   C53       1.0  0.62950  0.12410  0.18951  1.0000 -0.4123491771
C   C54       1.0  0.87050  0.37590  0.18951  1.0000 -0.4123491771
C   C55       1.0  0.90660  0.36090  0.03488  1.0000 -0.4235290713
C   C56       1.0  0.59340  0.13910  0.03488  1.0000 -0.4235290713
C   C57       1.0  0.24560  0.14000  0.35170  1.0000 -0.0744190491
C   C58       1.0  0.25440  0.36000  0.35170  1.0000 -0.0744190491
C   C59       1.0  0.12080  0.24850  0.43001  1.0000 -0.0744190491
C   C60       1.0  0.37920  0.25150  0.43001  1.0000 -0.0744190491
C   C61       1.0  0.37050  0.12410  0.31049  1.0000 -0.4123491771
C   C62       1.0  0.12950  0.37590  0.31049  1.0000 -0.4123491771
C   C63       1.0  0.09340  0.36090  0.46512  1.0000 -0.4235290713
C   C64       1.0  0.40660  0.13910  0.46512  1.0000 -0.4235290713
C   C65       1.0  0.24560  0.86000  0.85170  1.0000 -0.0744190491
C   C66       1.0  0.25440  0.64000  0.85170  1.0000 -0.0744190491
C   C67       1.0  0.12080  0.75150  0.93001  1.0000 -0.0751580722
C   C68       1.0  0.37920  0.74850  0.93001  1.0000 -0.0751580722
C   C69       1.0  0.37050  0.87590  0.81049  1.0000 -0.4123491771
C   C70       1.0  0.12950  0.62410  0.81049  1.0000 -0.4123491771
C   C71       1.0  0.09340  0.63910  0.96512  1.0000 -0.4235290713
C   C72       1.0  0.40660  0.86090  0.96512  1.0000 -0.4235290713
C   C73       1.0  0.75440  0.86000  0.64830  1.0000 -0.0744190491
C   C74       1.0  0.74560  0.64000  0.64830  1.0000 -0.0744190491
C   C75       1.0  0.87920  0.75150  0.56999  1.0000 -0.0744190491
C   C76       1.0  0.62080  0.74850  0.56999  1.0000 -0.0751580722
C   C77       1.0  0.62950  0.87590  0.68951  1.0000 -0.4123491771
C   C78       1.0  0.87050  0.62410  0.68951  1.0000 -0.4123491771
C   C79       1.0  0.90660  0.63910  0.53488  1.0000 -0.4235290713
C   C80       1.0  0.59340  0.86090  0.53488  1.0000 -0.4235290713
N   N1        1.0  0.11800  0.90020  0.70031  1.0000 -0.4487707294
N   N2        1.0  0.88200  0.90020  0.79969  1.0000 -0.4487707294
N   N3        1.0  0.61800  0.59980  0.79969  1.0000 -0.4487707294
N   N4        1.0  0.38200  0.59980  0.70031  1.0000 -0.4487707294
N   N5        1.0  0.88200  0.09980  0.29969  1.0000 -0.4487707294
N   N6        1.0  0.11800  0.09980  0.20031  1.0000 -0.4487707294
N   N7        1.0  0.38200  0.40020  0.20031  1.0000 -0.4487707294
N   N8        1.0  0.61800  0.40020  0.29969  1.0000 -0.4487707294
N   N9        1.0  0.10980  0.89020  0.30517  1.0000 -0.4428053588
N   N10       1.0  0.89020  0.89020  0.19483  1.0000 -0.4428053588
N   N11       1.0  0.60980  0.60980  0.19483  1.0000 -0.4428053588
N   N12       1.0  0.39020  0.60980  0.30517  1.0000 -0.4428053588
N   N13       1.0  0.89020  0.10980  0.69483  1.0000 -0.4428053588
N   N14       1.0  0.10980  0.10980  0.80517  1.0000 -0.4428053588
N   N15       1.0  0.39020  0.39020  0.80517  1.0000 -0.4428053588
N   N16       1.0  0.60980  0.39020  0.69483  1.0000 -0.4428053588
N   N17       1.0  0.75000  0.25000  0.10952  1.0000 0.1606941991
N   N18       1.0  0.25000  0.25000  0.39048  1.0000 0.1606941991
N   N19       1.0  0.25000  0.75000  0.89048  1.0000 0.1606941991
N   N20       1.0  0.75000  0.75000  0.60952  1.0000 0.1606941991
F   F1        1.0  0.35390  0.56017  0.56251  1.0000 -0.1065008543
F   F2        1.0  0.64610  0.56017  0.93749  1.0000 -0.1065008543
F   F3        1.0  0.85390  0.93983  0.93749  1.0000 -0.1065008543
F   F4        1.0  0.14610  0.93983  0.56251  1.0000 -0.1065008543
F   F5        1.0  0.64610  0.43983  0.43749  1.0000 -0.1065008543
F   F6        1.0  0.35390  0.43983  0.06251  1.0000 -0.1065008543
F   F7        1.0  0.14610  0.06017  0.06251  1.0000 -0.1065008543
F   F8        1.0  0.85390  0.06017  0.43749  1.0000 -0.1065008543
F   F9        1.0  0.36117  0.56326  0.44515  1.0000 -0.099672833
F   F10       1.0  0.63883  0.56326  0.05485  1.0000 -0.099672833
F   F11       1.0  0.86117  0.93674  0.05485  1.0000 -0.099672833
F   F12       1.0  0.13883  0.93674  0.44515  1.0000 -0.099672833
F   F13       1.0  0.63883  0.43674  0.55485  1.0000 -0.099672833
F   F14       1.0  0.36117  0.43674  0.94515  1.0000 -0.099672833
F   F15       1.0  0.13883  0.06326  0.94515  1.0000 -0.099672833
F   F16       1.0  0.86117  0.06326  0.55485  1.0000 -0.099672833
