# DDEC6 charges by PACMAN v1.1 (https://github.com/mtap-research/PACMAN-charge/)
data_2013[Sm][dia]3[ION]1
_chemical_formula_sum              "Sm4 H96 C96 N16 Cl12 O80"
_cell_length_a       20.4692
_cell_length_b       20.4692
_cell_length_c       24.287
_cell_angle_alpha    54.9037
_cell_angle_beta     125.096
_cell_angle_gamma    111.369

_symmetry_space_group_name_H-M    "P 1"
_symmetry_Int_Tables_number       1

loop_
  _symmetry_equiv_pos_as_xyz
  'x, y, z'

loop_
  _atom_site_type_symbol
  _atom_site_label
  _atom_site_symmetry_multiplicity
  _atom_site_fract_x
  _atom_site_fract_y
  _atom_site_fract_z
  _atom_site_occupancy
  _atom_site_charge
Sm  Sm1       1.0  0.38438  0.86946  0.78022  1.0000 2.0137846404
Sm  Sm2       1.0  0.13054  0.61562  0.28022  1.0000 2.0137846404
Sm  Sm3       1.0  0.86946  0.38438  0.71978  1.0000 2.0137846404
Sm  Sm4       1.0  0.61562  0.13054  0.21978  1.0000 2.0137846404
H   H1        1.0  0.22820  0.01500  0.58780  1.0000 0.1608659679
H   H2        1.0  0.98500  0.77180  0.08780  1.0000 0.1608659679
H   H3        1.0  0.16020  0.13200  0.51230  1.0000 0.1519766528
H   H4        1.0  0.86800  0.83980  0.01230  1.0000 0.1519766528
H   H5        1.0  0.36450  0.24110  0.59830  1.0000 0.1608659679
H   H6        1.0  0.75890  0.63550  0.09830  1.0000 0.1608659679
H   H7        1.0  0.48880  0.17580  0.69140  1.0000 0.1608659679
H   H8        1.0  0.82420  0.51120  0.19140  1.0000 0.1608659679
H   H9        1.0  0.47530  0.08610  0.74590  1.0000 0.1699967292
H   H10       1.0  0.91390  0.52470  0.24590  1.0000 0.1699967292
H   H11       1.0  0.48920  0.10820  0.67980  1.0000 0.1699967292
H   H12       1.0  0.89180  0.51080  0.17980  1.0000 0.1699967292
H   H13       1.0  0.30360  0.33840  0.55100  1.0000 0.1519766528
H   H14       1.0  0.66160  0.69640  0.05100  1.0000 0.1519766528
H   H15       1.0  0.24030  0.45510  0.47290  1.0000 0.1519766528
H   H16       1.0  0.54490  0.75970  0.97290  1.0000 0.1519766528
H   H17       1.0  0.11060  0.24660  0.42410  1.0000 0.1519766528
H   H18       1.0  0.75340  0.88940  0.92410  1.0000 0.1519766528
H   H19       1.0  0.99600  0.42180  0.29920  1.0000 0.1608659679
H   H20       1.0  0.57820  0.00400  0.79920  1.0000 0.1519766528
H   H21       1.0  0.01010  0.36270  0.28600  1.0000 0.1608659679
H   H22       1.0  0.63730  0.98990  0.78600  1.0000 0.1608659679
H   H23       1.0  0.97590  0.32990  0.34140  1.0000 0.1608659679
H   H24       1.0  0.67010  0.02410  0.84140  1.0000 0.1608659679
H   H25       1.0  0.41610  0.80730  0.96620  1.0000 0.1519766528
H   H26       1.0  0.19270  0.58390  0.46620  1.0000 0.1519766528
H   H27       1.0  0.37110  0.79890  0.04260  1.0000 0.1519766528
H   H28       1.0  0.20110  0.62890  0.54260  1.0000 0.1519766528
H   H29       1.0  0.18320  0.67220  0.95620  1.0000 0.1519766528
H   H30       1.0  0.32780  0.81680  0.45620  1.0000 0.1519766528
H   H31       1.0  0.24590  0.69390  0.83520  1.0000 0.1608659679
H   H32       1.0  0.30610  0.75410  0.33520  1.0000 0.1608659679
H   H33       1.0  0.21260  0.62020  0.88920  1.0000 0.1699967292
H   H34       1.0  0.37980  0.78740  0.38920  1.0000 0.1699967292
H   H35       1.0  0.16310  0.69690  0.82340  1.0000 0.1699967292
H   H36       1.0  0.30310  0.83690  0.32340  1.0000 0.1699967292
H   H37       1.0  0.35010  0.74930  0.13140  1.0000 0.1519766528
H   H38       1.0  0.25070  0.64990  0.63140  1.0000 0.1519766528
H   H39       1.0  0.09220  0.67720  0.08130  1.0000 0.1699967292
H   H40       1.0  0.32280  0.90780  0.58130  1.0000 0.1699967292
H   H41       1.0  0.12650  0.68230  0.00800  1.0000 0.1699967292
H   H42       1.0  0.31770  0.87350  0.50800  1.0000 0.1699967292
H   H43       1.0  0.30240  0.73860  0.25320  1.0000 0.1608659679
H   H44       1.0  0.26140  0.69760  0.75320  1.0000 0.1608659679
H   H45       1.0  0.37210  0.71110  0.26280  1.0000 0.1766412527
H   H46       1.0  0.28890  0.62790  0.76280  1.0000 0.1766412527
H   H47       1.0  0.34900  0.80060  0.20760  1.0000 0.1699967292
H   H48       1.0  0.19940  0.65100  0.70760  1.0000 0.1699967292
H   H49       1.0  0.01500  0.22820  0.91220  1.0000 0.1608659679
H   H50       1.0  0.77180  0.98500  0.41220  1.0000 0.1608659679
H   H51       1.0  0.13200  0.16020  0.98770  1.0000 0.1519766528
H   H52       1.0  0.83980  0.86800  0.48770  1.0000 0.1519766528
H   H53       1.0  0.24110  0.36450  0.90170  1.0000 0.1608659679
H   H54       1.0  0.63550  0.75890  0.40170  1.0000 0.1608659679
H   H55       1.0  0.17580  0.48880  0.80860  1.0000 0.1608659679
H   H56       1.0  0.51120  0.82420  0.30860  1.0000 0.1608659679
H   H57       1.0  0.08610  0.47530  0.75410  1.0000 0.1699967292
H   H58       1.0  0.52470  0.91390  0.25410  1.0000 0.1699967292
H   H59       1.0  0.10820  0.48920  0.82020  1.0000 0.1699967292
H   H60       1.0  0.51080  0.89180  0.32020  1.0000 0.1699967292
H   H61       1.0  0.33840  0.30360  0.94900  1.0000 0.1519766528
H   H62       1.0  0.69640  0.66160  0.44900  1.0000 0.1519766528
H   H63       1.0  0.45510  0.24030  0.02710  1.0000 0.1519766528
H   H64       1.0  0.75970  0.54490  0.52710  1.0000 0.1519766528
H   H65       1.0  0.24660  0.11060  0.07590  1.0000 0.1519766528
H   H66       1.0  0.88940  0.75340  0.57590  1.0000 0.1519766528
H   H67       1.0  0.42180  0.99600  0.20080  1.0000 0.1519766528
H   H68       1.0  0.00400  0.57820  0.70080  1.0000 0.1519766528
H   H69       1.0  0.36270  0.01010  0.21400  1.0000 0.1608659679
H   H70       1.0  0.98990  0.63730  0.71400  1.0000 0.1608659679
H   H71       1.0  0.32990  0.97590  0.15860  1.0000 0.1608659679
H   H72       1.0  0.02410  0.67010  0.65860  1.0000 0.1608659679
H   H73       1.0  0.80730  0.41610  0.53380  1.0000 0.1519766528
H   H74       1.0  0.58390  0.19270  0.03380  1.0000 0.1519766528
H   H75       1.0  0.79890  0.37110  0.45740  1.0000 0.1519766528
H   H76       1.0  0.62890  0.20110  0.95740  1.0000 0.1519766528
H   H77       1.0  0.67220  0.18320  0.54380  1.0000 0.1608659679
H   H78       1.0  0.81680  0.32780  0.04380  1.0000 0.1608659679
H   H79       1.0  0.69390  0.24590  0.66480  1.0000 0.1608659679
H   H80       1.0  0.75410  0.30610  0.16480  1.0000 0.1608659679
H   H81       1.0  0.62020  0.21260  0.61080  1.0000 0.1699967292
H   H82       1.0  0.78740  0.37980  0.11080  1.0000 0.1699967292
H   H83       1.0  0.69690  0.16310  0.67660  1.0000 0.1699967292
H   H84       1.0  0.83690  0.30310  0.17660  1.0000 0.1699967292
H   H85       1.0  0.74930  0.35010  0.36860  1.0000 0.1519766528
H   H86       1.0  0.64990  0.25070  0.86860  1.0000 0.1519766528
H   H87       1.0  0.67720  0.09220  0.41870  1.0000 0.1699967292
H   H88       1.0  0.90780  0.32280  0.91870  1.0000 0.1699967292
H   H89       1.0  0.68230  0.12650  0.49200  1.0000 0.1699967292
H   H90       1.0  0.87350  0.31770  0.99200  1.0000 0.1699967292
H   H91       1.0  0.73860  0.30240  0.24680  1.0000 0.1608659679
H   H92       1.0  0.69760  0.26140  0.74680  1.0000 0.1608659679
H   H93       1.0  0.71110  0.37210  0.23720  1.0000 0.1766412527
H   H94       1.0  0.62790  0.28890  0.73720  1.0000 0.1766412527
H   H95       1.0  0.80060  0.34900  0.29240  1.0000 0.1699967292
H   H96       1.0  0.65100  0.19940  0.79240  1.0000 0.1699967292
C   C1        1.0  0.25560  0.06160  0.59030  1.0000 0.0380137283
C   C2        1.0  0.93840  0.74440  0.09030  1.0000 0.0380137283
C   C3        1.0  0.21500  0.13260  0.54460  1.0000 -0.130422446
C   C4        1.0  0.86740  0.78500  0.04460  1.0000 -0.130422446
C   C5        1.0  0.25350  0.20110  0.54660  1.0000 0.0984964174
C   C6        1.0  0.79890  0.74650  0.04660  1.0000 0.0984964174
C   C7        1.0  0.33520  0.19500  0.59590  1.0000 -0.171448215
C   C8        1.0  0.80500  0.66480  0.09590  1.0000 -0.171448215
C   C9        1.0  0.37470  0.13050  0.63930  1.0000 0.1883046319
C   C10       1.0  0.86950  0.62530  0.13930  1.0000 0.1883046319
C   C11       1.0  0.46560  0.12460  0.69430  1.0000 -0.4671675232
C   C12       1.0  0.87540  0.53440  0.19430  1.0000 -0.4671675232
C   C13       1.0  0.21460  0.27640  0.49870  1.0000 0.1063263201
C   C14       1.0  0.72360  0.78540  0.99870  1.0000 0.1063263201
C   C15       1.0  0.25190  0.34170  0.51090  1.0000 -0.1380998841
C   C16       1.0  0.65830  0.74810  0.01090  1.0000 -0.1380998841
C   C17       1.0  0.21330  0.41150  0.46450  1.0000 -0.0184627754
C   C18       1.0  0.58850  0.78670  0.96450  1.0000 -0.0184627754
C   C19       1.0  0.09750  0.35830  0.39040  1.0000 0.2143739545
C   C20       1.0  0.64170  0.90250  0.89040  1.0000 0.2143739545
C   C21       1.0  0.13690  0.28810  0.43590  1.0000 -0.2027866348
C   C22       1.0  0.71190  0.86310  0.93590  1.0000 -0.2027866348
C   C23       1.0  0.01180  0.36920  0.32290  1.0000 -0.4783825941
C   C24       1.0  0.63080  0.98820  0.82290  1.0000 -0.4783825941
C   C25       1.0  0.36790  0.77970  0.96410  1.0000 0.027458276
C   C26       1.0  0.22030  0.63210  0.46410  1.0000 0.027458276
C   C27       1.0  0.34210  0.77390  0.01230  1.0000 -0.1185642547
C   C28       1.0  0.22610  0.65790  0.51230  1.0000 -0.1185642547
C   C29       1.0  0.27310  0.72970  0.00980  1.0000 0.0905017321
C   C30       1.0  0.27030  0.72690  0.50980  1.0000 0.0905017321
C   C31       1.0  0.23140  0.70060  0.95950  1.0000 -0.1805921226
C   C32       1.0  0.29940  0.76860  0.45950  1.0000 -0.1805921226
C   C33       1.0  0.25610  0.71050  0.91350  1.0000 0.2010885485
C   C34       1.0  0.28950  0.74390  0.41350  1.0000 0.2010885485
C   C35       1.0  0.21600  0.67760  0.86070  1.0000 -0.450427201
C   C36       1.0  0.32240  0.78400  0.36070  1.0000 -0.450427201
C   C37       1.0  0.24830  0.72070  0.06000  1.0000 0.0984964174
C   C38       1.0  0.27930  0.75170  0.56000  1.0000 0.0984964174
C   C39       1.0  0.29690  0.73470  0.12000  1.0000 -0.1380998841
C   C40       1.0  0.26530  0.70310  0.62000  1.0000 -0.1452346212
C   C41       1.0  0.27360  0.72880  0.16650  1.0000 0.1883046319
C   C42       1.0  0.27120  0.72640  0.66650  1.0000 0.1883046319
C   C43       1.0  0.14500  0.69180  0.09080  1.0000 -0.0330932318
C   C44       1.0  0.30820  0.85500  0.59080  1.0000 -0.0330932318
C   C45       1.0  0.16420  0.69540  0.04700  1.0000 -0.1380998841
C   C46       1.0  0.30460  0.83580  0.54700  1.0000 -0.1380998841
C   C47       1.0  0.32870  0.74610  0.22730  1.0000 -0.4294233407
C   C48       1.0  0.25390  0.67130  0.72730  1.0000 -0.4294233407
C   C49       1.0  0.06160  0.25560  0.90970  1.0000 0.0380137283
C   C50       1.0  0.74440  0.93840  0.40970  1.0000 0.0380137283
C   C51       1.0  0.13260  0.21500  0.95540  1.0000 -0.130422446
C   C52       1.0  0.78500  0.86740  0.45540  1.0000 -0.130422446
C   C53       1.0  0.20110  0.25350  0.95340  1.0000 0.0984964174
C   C54       1.0  0.74650  0.79890  0.45340  1.0000 0.0984964174
C   C55       1.0  0.19500  0.33520  0.90410  1.0000 -0.171448215
C   C56       1.0  0.66480  0.80500  0.40410  1.0000 -0.171448215
C   C57       1.0  0.13050  0.37470  0.86070  1.0000 0.1883046319
C   C58       1.0  0.62530  0.86950  0.36070  1.0000 0.1883046319
C   C59       1.0  0.12460  0.46560  0.80570  1.0000 -0.4671675232
C   C60       1.0  0.53440  0.87540  0.30570  1.0000 -0.4671675232
C   C61       1.0  0.27640  0.21460  0.00130  1.0000 0.1063263201
C   C62       1.0  0.78540  0.72360  0.50130  1.0000 0.1063263201
C   C63       1.0  0.34170  0.25190  0.98910  1.0000 -0.1380998841
C   C64       1.0  0.74810  0.65830  0.48910  1.0000 -0.1380998841
C   C65       1.0  0.41150  0.21330  0.03550  1.0000 -0.0184627754
C   C66       1.0  0.78670  0.58850  0.53550  1.0000 -0.0184627754
C   C67       1.0  0.35830  0.09750  0.10960  1.0000 0.2143739545
C   C68       1.0  0.90250  0.64170  0.60960  1.0000 0.2143739545
C   C69       1.0  0.28810  0.13690  0.06410  1.0000 -0.2027866348
C   C70       1.0  0.86310  0.71190  0.56410  1.0000 -0.2027866348
C   C71       1.0  0.36920  0.01180  0.17710  1.0000 -0.4783825941
C   C72       1.0  0.98820  0.63080  0.67710  1.0000 -0.4783825941
C   C73       1.0  0.77970  0.36790  0.53590  1.0000 0.027458276
C   C74       1.0  0.63210  0.22030  0.03590  1.0000 0.027458276
C   C75       1.0  0.77390  0.34210  0.48770  1.0000 -0.1185642547
C   C76       1.0  0.65790  0.22610  0.98770  1.0000 -0.1185642547
C   C77       1.0  0.72970  0.27310  0.49020  1.0000 0.0905017321
C   C78       1.0  0.72690  0.27030  0.99020  1.0000 0.0905017321
C   C79       1.0  0.70060  0.23140  0.54050  1.0000 -0.1805921226
C   C80       1.0  0.76860  0.29940  0.04050  1.0000 -0.1805921226
C   C81       1.0  0.71050  0.25610  0.58650  1.0000 0.2010885485
C   C82       1.0  0.74390  0.28950  0.08650  1.0000 0.2010885485
C   C83       1.0  0.67760  0.21600  0.63930  1.0000 -0.450427201
C   C84       1.0  0.78400  0.32240  0.13930  1.0000 -0.450427201
C   C85       1.0  0.72070  0.24830  0.44000  1.0000 0.0984964174
C   C86       1.0  0.75170  0.27930  0.94000  1.0000 0.0984964174
C   C87       1.0  0.73470  0.29690  0.38000  1.0000 -0.1380998841
C   C88       1.0  0.70310  0.26530  0.88000  1.0000 -0.1452346212
C   C89       1.0  0.72880  0.27360  0.33350  1.0000 0.1883046319
C   C90       1.0  0.72640  0.27120  0.83350  1.0000 0.1883046319
C   C91       1.0  0.69180  0.14500  0.40920  1.0000 -0.0330932318
C   C92       1.0  0.85500  0.30820  0.90920  1.0000 -0.0330932318
C   C93       1.0  0.69540  0.16420  0.45300  1.0000 -0.1380998841
C   C94       1.0  0.83580  0.30460  0.95300  1.0000 -0.1380998841
C   C95       1.0  0.74610  0.32870  0.27270  1.0000 -0.4294233407
C   C96       1.0  0.67130  0.25390  0.77270  1.0000 -0.4294233407
N   N1        1.0  0.33230  0.06290  0.63580  1.0000 0.2300277286
N   N2        1.0  0.93710  0.66770  0.13580  1.0000 0.2300277286
N   N3        1.0  0.13720  0.41880  0.40680  1.0000 0.2493889266
N   N4        1.0  0.58120  0.86280  0.90680  1.0000 0.2493889266
N   N5        1.0  0.32860  0.74960  0.92110  1.0000 0.2010885485
N   N6        1.0  0.25040  0.67140  0.42110  1.0000 0.2010885485
N   N7        1.0  0.19590  0.70770  0.14870  1.0000 0.2442080648
N   N8        1.0  0.29230  0.80410  0.64870  1.0000 0.2442080648
N   N9        1.0  0.06290  0.33230  0.86420  1.0000 0.2300277286
N   N10       1.0  0.66770  0.93710  0.36420  1.0000 0.2300277286
N   N11       1.0  0.41880  0.13720  0.09320  1.0000 0.2493889266
N   N12       1.0  0.86280  0.58120  0.59320  1.0000 0.2493889266
N   N13       1.0  0.74960  0.32860  0.57890  1.0000 0.2010885485
N   N14       1.0  0.67140  0.25040  0.07890  1.0000 0.2010885485
N   N15       1.0  0.70770  0.19590  0.35130  1.0000 0.2442080648
N   N16       1.0  0.80410  0.29230  0.85130  1.0000 0.2442080648
Cl  Cl1       1.0  0.92430  0.14850  0.42640  1.0000 1.2266054087
Cl  Cl2       1.0  0.14850  0.92430  0.07360  1.0000 1.2266054087
Cl  Cl3       1.0  0.07570  0.85150  0.57360  1.0000 1.2266054087
Cl  Cl4       1.0  0.85150  0.07570  0.92640  1.0000 1.2266054087
Cl  Cl5       1.0  0.92330  0.52090  0.05240  1.0000 1.1813119584
Cl  Cl6       1.0  0.52090  0.92330  0.44760  1.0000 1.1881266369
Cl  Cl7       1.0  0.07670  0.47910  0.94760  1.0000 1.1881266369
Cl  Cl8       1.0  0.47910  0.07670  0.55240  1.0000 1.1881266369
Cl  Cl9       1.0  0.71680  0.55040  0.24470  1.0000 1.1127842599
Cl  Cl10      1.0  0.55040  0.71680  0.25530  1.0000 1.1127842599
Cl  Cl11      1.0  0.28320  0.44960  0.75530  1.0000 1.1127842599
Cl  Cl12      1.0  0.44960  0.28320  0.74470  1.0000 1.1127842599
O   O1        1.0  0.36950  0.99590  0.67620  1.0000 -0.4783825941
O   O2        1.0  0.00410  0.63050  0.17620  1.0000 -0.4783825941
O   O3        1.0  0.10320  0.48580  0.36560  1.0000 -0.4294233407
O   O4        1.0  0.51420  0.89680  0.86560  1.0000 -0.4294233407
O   O5        1.0  0.35940  0.75820  0.88060  1.0000 -0.4671675232
O   O6        1.0  0.24180  0.64060  0.38060  1.0000 -0.4671675232
O   O7        1.0  0.17360  0.70800  0.19030  1.0000 -0.4783825941
O   O8        1.0  0.29200  0.82640  0.69030  1.0000 -0.4783825941
O   O9        1.0  0.38110  0.94710  0.82510  1.0000 -0.569044388
O   O10       1.0  0.05290  0.61890  0.32510  1.0000 -0.5789405372
O   O11       1.0  0.24530  0.88630  0.73620  1.0000 -0.3683729238
O   O12       1.0  0.11370  0.75470  0.23620  1.0000 -0.3624962506
O   O13       1.0  0.46520  0.89400  0.72180  1.0000 -0.2508939868
O   O14       1.0  0.10600  0.53480  0.22180  1.0000 -0.242450229
O   O15       1.0  0.44750  0.74790  0.83940  1.0000 -0.5867935287
O   O16       1.0  0.25210  0.55250  0.33940  1.0000 -0.5789405372
O   O17       1.0  0.99590  0.36950  0.82380  1.0000 -0.4783825941
O   O18       1.0  0.63050  0.00410  0.32380  1.0000 -0.4783825941
O   O19       1.0  0.48580  0.10320  0.13440  1.0000 -0.4294233407
O   O20       1.0  0.89680  0.51420  0.63440  1.0000 -0.4294233407
O   O21       1.0  0.75820  0.35940  0.61940  1.0000 -0.4630255765
O   O22       1.0  0.64060  0.24180  0.11940  1.0000 -0.4630255765
O   O23       1.0  0.70800  0.17360  0.30970  1.0000 -0.4783825941
O   O24       1.0  0.82640  0.29200  0.80970  1.0000 -0.4783825941
O   O25       1.0  0.94710  0.38110  0.67490  1.0000 -0.5789405372
O   O26       1.0  0.61890  0.05290  0.17490  1.0000 -0.569044388
O   O27       1.0  0.88630  0.24530  0.76380  1.0000 -0.3683729238
O   O28       1.0  0.75470  0.11370  0.26380  1.0000 -0.3683729238
O   O29       1.0  0.89400  0.46520  0.77820  1.0000 -0.2508939868
O   O30       1.0  0.53480  0.10600  0.27820  1.0000 -0.2508939868
O   O31       1.0  0.74790  0.44750  0.66060  1.0000 -0.5867935287
O   O32       1.0  0.55250  0.25210  0.16060  1.0000 -0.5867935287
O   O33       1.0  0.88430  0.07490  0.44810  1.0000 -0.4113843805
O   O34       1.0  0.89140  0.18620  0.34610  1.0000 -0.4113843805
O   O35       1.0  0.91900  0.19980  0.44240  1.0000 -0.4294233407
O   O36       1.0  0.00500  0.14020  0.46500  1.0000 -0.4169203288
O   O37       1.0  0.07490  0.88430  0.05190  1.0000 -0.4113843805
O   O38       1.0  0.18620  0.89140  0.15390  1.0000 -0.4027621613
O   O39       1.0  0.19980  0.91900  0.05760  1.0000 -0.4294233407
O   O40       1.0  0.14020  0.00500  0.03500  1.0000 -0.4169203288
O   O41       1.0  0.11570  0.92510  0.55190  1.0000 -0.4113843805
O   O42       1.0  0.10860  0.81380  0.65390  1.0000 -0.4027621613
O   O43       1.0  0.08100  0.80020  0.55760  1.0000 -0.4294233407
O   O44       1.0  0.99500  0.85980  0.53500  1.0000 -0.4169203288
O   O45       1.0  0.92510  0.11570  0.94810  1.0000 -0.4113843805
O   O46       1.0  0.81380  0.10860  0.84610  1.0000 -0.4027621613
O   O47       1.0  0.80020  0.08100  0.94240  1.0000 -0.4294233407
O   O48       1.0  0.85980  0.99500  0.96500  1.0000 -0.4169203288
O   O49       1.0  0.90680  0.47620  0.01900  1.0000 -0.4169203288
O   O50       1.0  0.85060  0.53320  0.03300  1.0000 -0.4169203288
O   O51       1.0  0.96600  0.58800  0.04300  1.0000 -0.3683729238
O   O52       1.0  0.95840  0.47660  0.13660  1.0000 -0.3920866094
O   O53       1.0  0.47620  0.90680  0.48100  1.0000 -0.4169203288
O   O54       1.0  0.53320  0.85060  0.46700  1.0000 -0.4113843805
O   O55       1.0  0.58800  0.96600  0.45700  1.0000 -0.3683729238
O   O56       1.0  0.47660  0.95840  0.36340  1.0000 -0.3920866094
O   O57       1.0  0.09320  0.52380  0.98100  1.0000 -0.4169203288
O   O58       1.0  0.14940  0.46680  0.96700  1.0000 -0.4113843805
O   O59       1.0  0.03400  0.41200  0.95700  1.0000 -0.3683729238
O   O60       1.0  0.04160  0.52340  0.86340  1.0000 -0.3920866094
O   O61       1.0  0.52380  0.09320  0.51900  1.0000 -0.4169203288
O   O62       1.0  0.46680  0.14940  0.53300  1.0000 -0.4169203288
O   O63       1.0  0.41200  0.03400  0.54300  1.0000 -0.3683729238
O   O64       1.0  0.52340  0.04160  0.63660  1.0000 -0.3920866094
O   O65       1.0  0.68120  0.52740  0.18900  1.0000 -0.4294233407
O   O66       1.0  0.70080  0.49340  0.29900  1.0000 -0.3624962506
O   O67       1.0  0.79980  0.57120  0.26880  1.0000 -0.4432689017
O   O68       1.0  0.68090  0.61610  0.21050  1.0000 -0.3624962506
O   O69       1.0  0.52740  0.68120  0.31100  1.0000 -0.4294233407
O   O70       1.0  0.49340  0.70080  0.20100  1.0000 -0.3624962506
O   O71       1.0  0.57120  0.79980  0.23120  1.0000 -0.450427201
O   O72       1.0  0.61610  0.68090  0.28950  1.0000 -0.3683729238
O   O73       1.0  0.31880  0.47260  0.81100  1.0000 -0.4294233407
O   O74       1.0  0.29920  0.50660  0.70100  1.0000 -0.3624962506
O   O75       1.0  0.20020  0.42880  0.73120  1.0000 -0.4432689017
O   O76       1.0  0.31910  0.38390  0.78950  1.0000 -0.3683729238
O   O77       1.0  0.47260  0.31880  0.68900  1.0000 -0.4294233407
O   O78       1.0  0.50660  0.29920  0.79900  1.0000 -0.3624962506
O   O79       1.0  0.42880  0.20020  0.76880  1.0000 -0.450427201
O   O80       1.0  0.38390  0.31910  0.71050  1.0000 -0.3624962506
