# DDEC6 charges by PACMAN v1.1 (https://github.com/mtap-research/PACMAN-charge/)
data_2013[Nd][dia]3[ION]1
_chemical_formula_sum              "Nd4 H96 C96 N16 Cl12 O80"
_cell_length_a       20.5381
_cell_length_b       20.5381
_cell_length_c       24.3984
_cell_angle_alpha    54.9907
_cell_angle_beta     125.009
_cell_angle_gamma    111.296

_symmetry_space_group_name_H-M    "P 1"
_symmetry_Int_Tables_number       1

loop_
  _symmetry_equiv_pos_as_xyz
  'x, y, z'

loop_
  _atom_site_type_symbol
  _atom_site_label
  _atom_site_symmetry_multiplicity
  _atom_site_fract_x
  _atom_site_fract_y
  _atom_site_fract_z
  _atom_site_occupancy
  _atom_site_charge
Nd  Nd1       1.0  0.10466  0.65000  0.71967  1.0000 2.0052504914
Nd  Nd2       1.0  0.35000  0.89534  0.21967  1.0000 2.0052504914
Nd  Nd3       1.0  0.65000  0.10466  0.78033  1.0000 2.0052504914
Nd  Nd4       1.0  0.89534  0.35000  0.28033  1.0000 2.0052504914
H   H1        1.0  0.07240  0.73760  0.52420  1.0000 0.1589528682
H   H2        1.0  0.26240  0.92760  0.02420  1.0000 0.1589528682
H   H3        1.0  0.11030  0.75110  0.44810  1.0000 0.1589528682
H   H4        1.0  0.24890  0.88970  0.94810  1.0000 0.1589528682
H   H5        1.0  0.33080  0.81460  0.57510  1.0000 0.1529137735
H   H6        1.0  0.18540  0.66920  0.07510  1.0000 0.1529137735
H   H7        1.0  0.30810  0.76510  0.72120  1.0000 0.1692658381
H   H8        1.0  0.23490  0.69190  0.22120  1.0000 0.1692658381
H   H9        1.0  0.36170  0.82230  0.68250  1.0000 0.1692658381
H   H10       1.0  0.17770  0.63830  0.18250  1.0000 0.1692658381
H   H11       1.0  0.29090  0.85570  0.66550  1.0000 0.1692658381
H   H12       1.0  0.14430  0.70910  0.16550  1.0000 0.1692658381
H   H13       1.0  0.35580  0.85660  0.48560  1.0000 0.1589528682
H   H14       1.0  0.14340  0.64420  0.98560  1.0000 0.1589528682
H   H15       1.0  0.39570  0.86390  0.41230  1.0000 0.1589528682
H   H16       1.0  0.13610  0.60430  0.91230  1.0000 0.1589528682
H   H17       1.0  0.15930  0.73350  0.40400  1.0000 0.1529137735
H   H18       1.0  0.26650  0.84070  0.90400  1.0000 0.1529137735
H   H19       1.0  0.21650  0.69110  0.32270  1.0000 0.1692658381
H   H20       1.0  0.30890  0.78350  0.82270  1.0000 0.1692658381
H   H21       1.0  0.13840  0.69600  0.31720  1.0000 0.1589528682
H   H22       1.0  0.30400  0.86160  0.81720  1.0000 0.1589528682
H   H23       1.0  0.16650  0.76710  0.25840  1.0000 0.1792030821
H   H24       1.0  0.23290  0.83350  0.75840  1.0000 0.1792030821
H   H25       1.0  0.24130  0.48850  0.92090  1.0000 0.1692658381
H   H26       1.0  0.51150  0.75870  0.42090  1.0000 0.1692658381
H   H27       1.0  0.30790  0.37530  0.99540  1.0000 0.1589528682
H   H28       1.0  0.62470  0.69210  0.49540  1.0000 0.1589528682
H   H29       1.0  0.12060  0.28020  0.86810  1.0000 0.1529137735
H   H30       1.0  0.71980  0.87940  0.36810  1.0000 0.1529137735
H   H31       1.0  0.02050  0.45170  0.72590  1.0000 0.1692658381
H   H32       1.0  0.54830  0.97950  0.22590  1.0000 0.1692658381
H   H33       1.0  0.00770  0.35930  0.75760  1.0000 0.1692658381
H   H34       1.0  0.64070  0.99230  0.25760  1.0000 0.1692658381
H   H35       1.0  0.98630  0.39990  0.78300  1.0000 0.1692658381
H   H36       1.0  0.60010  0.01370  0.28300  1.0000 0.1692658381
H   H37       1.0  0.15890  0.16990  0.95810  1.0000 0.1529137735
H   H38       1.0  0.83010  0.84110  0.45810  1.0000 0.1529137735
H   H39       1.0  0.22110  0.05030  0.03480  1.0000 0.1589528682
H   H40       1.0  0.94970  0.77890  0.53480  1.0000 0.1529137735
H   H41       1.0  0.37070  0.27350  0.04120  1.0000 0.1589528682
H   H42       1.0  0.72650  0.62930  0.54120  1.0000 0.1589528682
H   H43       1.0  0.47910  0.10970  0.13410  1.0000 0.1692658381
H   H44       1.0  0.89030  0.52090  0.63410  1.0000 0.1692658381
H   H45       1.0  0.49220  0.19640  0.12140  1.0000 0.1692658381
H   H46       1.0  0.80360  0.50780  0.62140  1.0000 0.1692658381
H   H47       1.0  0.47530  0.12510  0.18810  1.0000 0.1792030821
H   H48       1.0  0.87490  0.52470  0.68810  1.0000 0.1792030821
H   H49       1.0  0.73760  0.07240  0.97580  1.0000 0.1589528682
H   H50       1.0  0.92760  0.26240  0.47580  1.0000 0.1589528682
H   H51       1.0  0.75110  0.11030  0.05190  1.0000 0.1589528682
H   H52       1.0  0.88970  0.24890  0.55190  1.0000 0.1589528682
H   H53       1.0  0.81460  0.33080  0.92490  1.0000 0.1529137735
H   H54       1.0  0.66920  0.18540  0.42490  1.0000 0.1529137735
H   H55       1.0  0.76510  0.30810  0.77880  1.0000 0.1692658381
H   H56       1.0  0.69190  0.23490  0.27880  1.0000 0.1692658381
H   H57       1.0  0.82230  0.36170  0.81750  1.0000 0.1692658381
H   H58       1.0  0.63830  0.17770  0.31750  1.0000 0.1692658381
H   H59       1.0  0.85570  0.29090  0.83450  1.0000 0.1692658381
H   H60       1.0  0.70910  0.14430  0.33450  1.0000 0.1692658381
H   H61       1.0  0.85660  0.35580  0.01440  1.0000 0.1589528682
H   H62       1.0  0.64420  0.14340  0.51440  1.0000 0.1589528682
H   H63       1.0  0.86390  0.39570  0.08770  1.0000 0.1589528682
H   H64       1.0  0.60430  0.13610  0.58770  1.0000 0.1589528682
H   H65       1.0  0.73350  0.15930  0.09600  1.0000 0.1529137735
H   H66       1.0  0.84070  0.26650  0.59600  1.0000 0.1529137735
H   H67       1.0  0.69110  0.21650  0.17730  1.0000 0.1692658381
H   H68       1.0  0.78350  0.30890  0.67730  1.0000 0.1692658381
H   H69       1.0  0.69600  0.13840  0.18280  1.0000 0.1589528682
H   H70       1.0  0.86160  0.30400  0.68280  1.0000 0.1589528682
H   H71       1.0  0.76710  0.16650  0.24160  1.0000 0.1792030821
H   H72       1.0  0.83350  0.23290  0.74160  1.0000 0.1792030821
H   H73       1.0  0.48850  0.24130  0.57910  1.0000 0.1692658381
H   H74       1.0  0.75870  0.51150  0.07910  1.0000 0.1692658381
H   H75       1.0  0.37530  0.30790  0.50460  1.0000 0.1589528682
H   H76       1.0  0.69210  0.62470  0.00460  1.0000 0.1589528682
H   H77       1.0  0.28020  0.12060  0.63190  1.0000 0.1589528682
H   H78       1.0  0.87940  0.71980  0.13190  1.0000 0.1529137735
H   H79       1.0  0.45170  0.02050  0.77410  1.0000 0.1692658381
H   H80       1.0  0.97950  0.54830  0.27410  1.0000 0.1692658381
H   H81       1.0  0.35930  0.00770  0.74240  1.0000 0.1692658381
H   H82       1.0  0.99230  0.64070  0.24240  1.0000 0.1692658381
H   H83       1.0  0.39990  0.98630  0.71700  1.0000 0.1692658381
H   H84       1.0  0.01370  0.60010  0.21700  1.0000 0.1692658381
H   H85       1.0  0.16990  0.15890  0.54190  1.0000 0.1529137735
H   H86       1.0  0.84110  0.83010  0.04190  1.0000 0.1529137735
H   H87       1.0  0.05030  0.22110  0.46520  1.0000 0.1529137735
H   H88       1.0  0.77890  0.94970  0.96520  1.0000 0.1589528682
H   H89       1.0  0.27350  0.37070  0.45880  1.0000 0.1589528682
H   H90       1.0  0.62930  0.72650  0.95880  1.0000 0.1589528682
H   H91       1.0  0.10970  0.47910  0.36590  1.0000 0.1692658381
H   H92       1.0  0.52090  0.89030  0.86590  1.0000 0.1692658381
H   H93       1.0  0.19640  0.49220  0.37860  1.0000 0.1692658381
H   H94       1.0  0.50780  0.80360  0.87860  1.0000 0.1692658381
H   H95       1.0  0.12510  0.47530  0.31190  1.0000 0.1792030821
H   H96       1.0  0.52470  0.87490  0.81190  1.0000 0.1792030821
C   C1        1.0  0.12470  0.75430  0.53360  1.0000 -0.0267049566
C   C2        1.0  0.24570  0.87530  0.03360  1.0000 -0.0267049566
C   C3        1.0  0.14720  0.76160  0.48870  1.0000 -0.1393313257
C   C4        1.0  0.23840  0.85280  0.98870  1.0000 -0.1393313257
C   C5        1.0  0.22670  0.78510  0.50250  1.0000 0.1169114263
C   C6        1.0  0.21490  0.77330  0.00250  1.0000 0.1169114263
C   C7        1.0  0.27790  0.79990  0.56400  1.0000 -0.1965566276
C   C8        1.0  0.20010  0.72210  0.06400  1.0000 -0.1965566276
C   C9        1.0  0.25380  0.79360  0.60970  1.0000 0.2199676957
C   C10       1.0  0.20640  0.74620  0.10970  1.0000 0.2199676957
C   C11       1.0  0.30850  0.81070  0.67570  1.0000 -0.4730758839
C   C12       1.0  0.18930  0.69150  0.17570  1.0000 -0.4730758839
C   C13       1.0  0.25380  0.79260  0.45440  1.0000 0.0970225634
C   C14       1.0  0.20740  0.74620  0.95440  1.0000 0.0970225634
C   C15       1.0  0.32410  0.83250  0.45480  1.0000 -0.1393313257
C   C16       1.0  0.16750  0.67590  0.95480  1.0000 -0.1393313257
C   C17       1.0  0.34780  0.83700  0.41110  1.0000 0.0063687813
C   C18       1.0  0.16300  0.65220  0.91110  1.0000 0.0063687813
C   C19       1.0  0.23150  0.76290  0.36220  1.0000 0.2127931678
C   C20       1.0  0.23710  0.76850  0.86220  1.0000 0.2127931678
C   C21       1.0  0.20790  0.75930  0.40640  1.0000 -0.1603839087
C   C22       1.0  0.24070  0.79210  0.90640  1.0000 -0.1603839087
C   C23       1.0  0.18390  0.72590  0.31040  1.0000 -0.4767667114
C   C24       1.0  0.27410  0.81610  0.81040  1.0000 -0.4767667114
C   C25       1.0  0.21720  0.44580  0.91110  1.0000 0.0063687813
C   C26       1.0  0.55420  0.78280  0.41110  1.0000 0.0063687813
C   C27       1.0  0.25650  0.37830  0.95530  1.0000 -0.1333498178
C   C28       1.0  0.62170  0.74350  0.45530  1.0000 -0.1333498178
C   C29       1.0  0.22050  0.31150  0.94140  1.0000 0.1075138265
C   C30       1.0  0.68850  0.77950  0.44140  1.0000 0.1075138265
C   C31       1.0  0.14540  0.32160  0.87990  1.0000 -0.1603839087
C   C32       1.0  0.67840  0.85460  0.37990  1.0000 -0.1655345334
C   C33       1.0  0.10440  0.39100  0.83430  1.0000 0.2199676957
C   C34       1.0  0.60900  0.89560  0.33430  1.0000 0.2199676957
C   C35       1.0  0.02250  0.40130  0.76950  1.0000 -0.462691102
C   C36       1.0  0.59870  0.97750  0.26950  1.0000 -0.462691102
C   C37       1.0  0.25920  0.23580  0.99060  1.0000 0.0970225634
C   C38       1.0  0.76420  0.74080  0.49060  1.0000 0.0970225634
C   C39       1.0  0.21370  0.16830  0.98900  1.0000 -0.1333498178
C   C40       1.0  0.83170  0.78630  0.48900  1.0000 -0.1333498178
C   C41       1.0  0.25190  0.09650  0.03510  1.0000 -0.0069436886
C   C42       1.0  0.90350  0.74810  0.53510  1.0000 -0.0069436886
C   C43       1.0  0.37600  0.15740  0.08470  1.0000 0.2199676957
C   C44       1.0  0.84260  0.62400  0.58470  1.0000 0.2199676957
C   C45       1.0  0.33930  0.22830  0.03900  1.0000 -0.188650634
C   C46       1.0  0.77170  0.66070  0.53900  1.0000 -0.188650634
C   C47       1.0  0.46360  0.14620  0.13680  1.0000 -0.4730758839
C   C48       1.0  0.85380  0.53640  0.63680  1.0000 -0.462691102
C   C49       1.0  0.75430  0.12470  0.96640  1.0000 -0.0267049566
C   C50       1.0  0.87530  0.24570  0.46640  1.0000 -0.0267049566
C   C51       1.0  0.76160  0.14720  0.01130  1.0000 -0.1333498178
C   C52       1.0  0.85280  0.23840  0.51130  1.0000 -0.1333498178
C   C53       1.0  0.78510  0.22670  0.99750  1.0000 0.1169114263
C   C54       1.0  0.77330  0.21490  0.49750  1.0000 0.1169114263
C   C55       1.0  0.79990  0.27790  0.93600  1.0000 -0.1965566276
C   C56       1.0  0.72210  0.20010  0.43600  1.0000 -0.1965566276
C   C57       1.0  0.79360  0.25380  0.89030  1.0000 0.2199676957
C   C58       1.0  0.74620  0.20640  0.39030  1.0000 0.2199676957
C   C59       1.0  0.81070  0.30850  0.82430  1.0000 -0.4730758839
C   C60       1.0  0.69150  0.18930  0.32430  1.0000 -0.4730758839
C   C61       1.0  0.79260  0.25380  0.04560  1.0000 0.0970225634
C   C62       1.0  0.74620  0.20740  0.54560  1.0000 0.0970225634
C   C63       1.0  0.83250  0.32410  0.04520  1.0000 -0.1393313257
C   C64       1.0  0.67590  0.16750  0.54520  1.0000 -0.1393313257
C   C65       1.0  0.83700  0.34780  0.08890  1.0000 0.0063687813
C   C66       1.0  0.65220  0.16300  0.58890  1.0000 0.0063687813
C   C67       1.0  0.76290  0.23150  0.13780  1.0000 0.2127931678
C   C68       1.0  0.76850  0.23710  0.63780  1.0000 0.2127931678
C   C69       1.0  0.75930  0.20790  0.09360  1.0000 -0.1603839087
C   C70       1.0  0.79210  0.24070  0.59360  1.0000 -0.1603839087
C   C71       1.0  0.72590  0.18390  0.18960  1.0000 -0.4767667114
C   C72       1.0  0.81610  0.27410  0.68960  1.0000 -0.4767667114
C   C73       1.0  0.44580  0.21720  0.58890  1.0000 0.0041998086
C   C74       1.0  0.78280  0.55420  0.08890  1.0000 0.0063687813
C   C75       1.0  0.37830  0.25650  0.54470  1.0000 -0.1333498178
C   C76       1.0  0.74350  0.62170  0.04470  1.0000 -0.1333498178
C   C77       1.0  0.31150  0.22050  0.55860  1.0000 0.1075138265
C   C78       1.0  0.77950  0.68850  0.05860  1.0000 0.1075138265
C   C79       1.0  0.32160  0.14540  0.62010  1.0000 -0.1603839087
C   C80       1.0  0.85460  0.67840  0.12010  1.0000 -0.1603839087
C   C81       1.0  0.39100  0.10440  0.66570  1.0000 0.2199676957
C   C82       1.0  0.89560  0.60900  0.16570  1.0000 0.2199676957
C   C83       1.0  0.40130  0.02250  0.73050  1.0000 -0.462691102
C   C84       1.0  0.97750  0.59870  0.23050  1.0000 -0.462691102
C   C85       1.0  0.23580  0.25920  0.50940  1.0000 0.0970225634
C   C86       1.0  0.74080  0.76420  0.00940  1.0000 0.0970225634
C   C87       1.0  0.16830  0.21370  0.51100  1.0000 -0.1333498178
C   C88       1.0  0.78630  0.83170  0.01100  1.0000 -0.1333498178
C   C89       1.0  0.09650  0.25190  0.46490  1.0000 -0.0049135665
C   C90       1.0  0.74810  0.90350  0.96490  1.0000 -0.0069436886
C   C91       1.0  0.15740  0.37600  0.41530  1.0000 0.2199676957
C   C92       1.0  0.62400  0.84260  0.91530  1.0000 0.2199676957
C   C93       1.0  0.22830  0.33930  0.46100  1.0000 -0.188650634
C   C94       1.0  0.66070  0.77170  0.96100  1.0000 -0.188650634
C   C95       1.0  0.14620  0.46360  0.36320  1.0000 -0.462691102
C   C96       1.0  0.53640  0.85380  0.86320  1.0000 -0.462691102
N   N1        1.0  0.17600  0.77080  0.59340  1.0000 0.2603783087
N   N2        1.0  0.22920  0.82400  0.09340  1.0000 0.2603783087
N   N3        1.0  0.30250  0.80290  0.36600  1.0000 0.2502787934
N   N4        1.0  0.19710  0.69750  0.86600  1.0000 0.2502787934
N   N5        1.0  0.14180  0.45060  0.85190  1.0000 0.2502787934
N   N6        1.0  0.54940  0.85820  0.35190  1.0000 0.2502787934
N   N7        1.0  0.32900  0.09260  0.07830  1.0000 0.2307489367
N   N8        1.0  0.90740  0.67100  0.57830  1.0000 0.2307489367
N   N9        1.0  0.77080  0.17600  0.90660  1.0000 0.2603783087
N   N10       1.0  0.82400  0.22920  0.40660  1.0000 0.2603783087
N   N11       1.0  0.80290  0.30250  0.13400  1.0000 0.2502787934
N   N12       1.0  0.69750  0.19710  0.63400  1.0000 0.2502787934
N   N13       1.0  0.45060  0.14180  0.64810  1.0000 0.2502787934
N   N14       1.0  0.85820  0.54940  0.14810  1.0000 0.2502787934
N   N15       1.0  0.09260  0.32900  0.42170  1.0000 0.2307489367
N   N16       1.0  0.67100  0.90740  0.92170  1.0000 0.2307489367
Cl  Cl1       1.0  0.20428  0.02688  0.75583  1.0000 1.1592604743
Cl  Cl2       1.0  0.02688  0.20428  0.74417  1.0000 1.1592604743
Cl  Cl3       1.0  0.79572  0.97312  0.24417  1.0000 1.1592604743
Cl  Cl4       1.0  0.97312  0.79572  0.25583  1.0000 1.1592604743
Cl  Cl5       1.0  0.42559  0.00109  0.57504  1.0000 1.2380777375
Cl  Cl6       1.0  0.00109  0.42559  0.92496  1.0000 1.2380777375
Cl  Cl7       1.0  0.57441  0.99891  0.42496  1.0000 1.2380777375
Cl  Cl8       1.0  0.99891  0.57441  0.07504  1.0000 1.2380777375
Cl  Cl9       1.0  0.42780  0.62760  0.95020  1.0000 1.1592604743
Cl  Cl10      1.0  0.62760  0.42780  0.54980  1.0000 1.1592604743
Cl  Cl11      1.0  0.57220  0.37240  0.04980  1.0000 1.1592604743
Cl  Cl12      1.0  0.37240  0.57220  0.45020  1.0000 1.1592604743
O   O1        1.0  0.14900  0.76580  0.63310  1.0000 -0.4397205411
O   O2        1.0  0.23420  0.85100  0.13310  1.0000 -0.4397205411
O   O3        1.0  0.32850  0.80530  0.32550  1.0000 -0.4767667114
O   O4        1.0  0.19470  0.67150  0.82550  1.0000 -0.4767667114
O   O5        1.0  0.10240  0.51640  0.81070  1.0000 -0.4767667114
O   O6        1.0  0.48360  0.89760  0.31070  1.0000 -0.4767667114
O   O7        1.0  0.36150  0.02350  0.11690  1.0000 -0.450970699
O   O8        1.0  0.97650  0.63850  0.61690  1.0000 -0.450970699
O   O9        1.0  0.05620  0.77540  0.67440  1.0000 -0.5598746313
O   O10       1.0  0.22460  0.94380  0.17440  1.0000 -0.5598746313
O   O11       1.0  0.00830  0.62050  0.76420  1.0000 -0.4003806217
O   O12       1.0  0.37950  0.99170  0.26420  1.0000 -0.4003806217
O   O13       1.0  0.10910  0.58670  0.66020  1.0000 -0.6023302697
O   O14       1.0  0.41330  0.89090  0.16020  1.0000 -0.6023302697
O   O15       1.0  0.24360  0.61680  0.77760  1.0000 -0.3290198965
O   O16       1.0  0.38320  0.75640  0.27760  1.0000 -0.3290198965
O   O17       1.0  0.76580  0.14900  0.86690  1.0000 -0.4397205411
O   O18       1.0  0.85100  0.23420  0.36690  1.0000 -0.4397205411
O   O19       1.0  0.80530  0.32850  0.17450  1.0000 -0.4730758839
O   O20       1.0  0.67150  0.19470  0.67450  1.0000 -0.4767667114
O   O21       1.0  0.51640  0.10240  0.68930  1.0000 -0.4767667114
O   O22       1.0  0.89760  0.48360  0.18930  1.0000 -0.4767667114
O   O23       1.0  0.02350  0.36150  0.38310  1.0000 -0.450970699
O   O24       1.0  0.63850  0.97650  0.88310  1.0000 -0.450970699
O   O25       1.0  0.77540  0.05620  0.82560  1.0000 -0.5598746313
O   O26       1.0  0.94380  0.22460  0.32560  1.0000 -0.5598746313
O   O27       1.0  0.62050  0.00830  0.73580  1.0000 -0.4003806217
O   O28       1.0  0.99170  0.37950  0.23580  1.0000 -0.4003806217
O   O29       1.0  0.58670  0.10910  0.83980  1.0000 -0.6023302697
O   O30       1.0  0.89090  0.41330  0.33980  1.0000 -0.6089892013
O   O31       1.0  0.61680  0.24360  0.72240  1.0000 -0.3290198965
O   O32       1.0  0.75640  0.38320  0.22240  1.0000 -0.3290198965
O   O33       1.0  0.28140  0.00100  0.81340  1.0000 -0.462691102
O   O34       1.0  0.15830  0.96730  0.73400  1.0000 -0.4397205411
O   O35       1.0  0.20720  0.09900  0.69900  1.0000 -0.4003806217
O   O36       1.0  0.17100  0.03420  0.78610  1.0000 -0.3678274824
O   O37       1.0  0.00100  0.28140  0.68660  1.0000 -0.450970699
O   O38       1.0  0.96730  0.15830  0.76600  1.0000 -0.4397205411
O   O39       1.0  0.09900  0.20720  0.80100  1.0000 -0.4003806217
O   O40       1.0  0.03420  0.17100  0.71390  1.0000 -0.3678274824
O   O41       1.0  0.71860  0.99900  0.18660  1.0000 -0.450970699
O   O42       1.0  0.84170  0.03270  0.26600  1.0000 -0.4397205411
O   O43       1.0  0.79280  0.90100  0.30100  1.0000 -0.4003806217
O   O44       1.0  0.82900  0.96580  0.21390  1.0000 -0.3678274824
O   O45       1.0  0.99900  0.71860  0.31340  1.0000 -0.450970699
O   O46       1.0  0.03270  0.84170  0.23400  1.0000 -0.4397205411
O   O47       1.0  0.90100  0.79280  0.19900  1.0000 -0.4003806217
O   O48       1.0  0.96580  0.82900  0.28610  1.0000 -0.3678274824
O   O49       1.0  0.46850  0.95350  0.65640  1.0000 -0.4003806217
O   O50       1.0  0.39610  0.95610  0.53930  1.0000 -0.4224881603
O   O51       1.0  0.35960  0.02780  0.55810  1.0000 -0.4397205411
O   O52       1.0  0.47820  0.06140  0.55270  1.0000 -0.4003806217
O   O53       1.0  0.95350  0.46850  0.84360  1.0000 -0.4050260706
O   O54       1.0  0.95610  0.39610  0.96070  1.0000 -0.4224881603
O   O55       1.0  0.02780  0.35960  0.94190  1.0000 -0.4397205411
O   O56       1.0  0.06140  0.47820  0.94730  1.0000 -0.4003806217
O   O57       1.0  0.53150  0.04650  0.34360  1.0000 -0.4003806217
O   O58       1.0  0.60390  0.04390  0.46070  1.0000 -0.4224881603
O   O59       1.0  0.64040  0.97220  0.44190  1.0000 -0.4397205411
O   O60       1.0  0.52180  0.93860  0.44730  1.0000 -0.4003806217
O   O61       1.0  0.04650  0.53150  0.15640  1.0000 -0.4003806217
O   O62       1.0  0.04390  0.60390  0.03930  1.0000 -0.4224881603
O   O63       1.0  0.97220  0.64040  0.05810  1.0000 -0.4397205411
O   O64       1.0  0.93860  0.52180  0.05270  1.0000 -0.4003806217
O   O65       1.0  0.50700  0.61540  0.97750  1.0000 -0.4320614113
O   O66       1.0  0.37860  0.57140  0.95790  1.0000 -0.3191484584
O   O67       1.0  0.43600  0.68380  0.96960  1.0000 -0.450970699
O   O68       1.0  0.39080  0.67200  0.86730  1.0000 -0.3644189684
O   O69       1.0  0.61540  0.50700  0.52250  1.0000 -0.4320614113
O   O70       1.0  0.57140  0.37860  0.54210  1.0000 -0.3191484584
O   O71       1.0  0.68380  0.43600  0.53040  1.0000 -0.450970699
O   O72       1.0  0.67200  0.39080  0.63270  1.0000 -0.3644189684
O   O73       1.0  0.49300  0.38460  0.02250  1.0000 -0.4320614113
O   O74       1.0  0.62140  0.42860  0.04210  1.0000 -0.3191484584
O   O75       1.0  0.56400  0.31620  0.03040  1.0000 -0.450970699
O   O76       1.0  0.60920  0.32800  0.13270  1.0000 -0.3644189684
O   O77       1.0  0.38460  0.49300  0.47750  1.0000 -0.4320614113
O   O78       1.0  0.42860  0.62140  0.45790  1.0000 -0.3191484584
O   O79       1.0  0.31620  0.56400  0.46960  1.0000 -0.450970699
O   O80       1.0  0.32800  0.60920  0.36730  1.0000 -0.3644189684
