# DDEC6 charges by PACMAN v1.1 (https://github.com/mtap-research/PACMAN-charge/)
data_2013[Sm][ant]3[ION]1
_chemical_formula_sum              "Sm4 H72 C72 N4 O40"
_cell_length_a       11.0657
_cell_length_b       11.0657
_cell_length_c       16.6617
_cell_angle_alpha    90
_cell_angle_beta     90
_cell_angle_gamma    97.4284

_symmetry_space_group_name_H-M    "P 1"
_symmetry_Int_Tables_number       1

loop_
  _symmetry_equiv_pos_as_xyz
  'x, y, z'

loop_
  _atom_site_type_symbol
  _atom_site_label
  _atom_site_symmetry_multiplicity
  _atom_site_fract_x
  _atom_site_fract_y
  _atom_site_fract_z
  _atom_site_occupancy
  _atom_site_charge
Sm  Sm1       1.0  0.33199  0.66801  0.75000  1.0000 2.1013598387
Sm  Sm2       1.0  0.66801  0.33199  0.25000  1.0000 2.1013598387
Sm  Sm3       1.0  0.66213  0.66213  0.50000  1.0000 2.0615575259
Sm  Sm4       1.0  0.33787  0.33787  0.00000  1.0000 2.0615575259
H   H1        1.0  0.83050  0.72930  0.00740  1.0000 0.2421387118
H   H2        1.0  0.16950  0.27070  0.50740  1.0000 0.2421387118
H   H3        1.0  0.72930  0.83050  0.99260  1.0000 0.2421387118
H   H4        1.0  0.27070  0.16950  0.49260  1.0000 0.2421387118
H   H5        1.0  0.73700  0.62760  0.01270  1.0000 0.2597355618
H   H6        1.0  0.26300  0.37240  0.51270  1.0000 0.2597355618
H   H7        1.0  0.62760  0.73700  0.98730  1.0000 0.2597355618
H   H8        1.0  0.37240  0.26300  0.48730  1.0000 0.2597355618
H   H9        1.0  0.15830  0.71370  0.23740  1.0000 0.2597355618
H   H10       1.0  0.84170  0.28630  0.73740  1.0000 0.265082175
H   H11       1.0  0.71370  0.15830  0.76260  1.0000 0.2597355618
H   H12       1.0  0.28630  0.84170  0.26260  1.0000 0.2597355618
H   H13       1.0  0.25110  0.62130  0.23810  1.0000 0.2801348066
H   H14       1.0  0.74890  0.37870  0.73810  1.0000 0.2801348066
H   H15       1.0  0.62130  0.25110  0.76190  1.0000 0.2801348066
H   H16       1.0  0.37870  0.74890  0.26190  1.0000 0.2801348066
H   H17       1.0  0.87750  0.62230  0.69660  1.0000 0.1287366902
H   H18       1.0  0.12250  0.37770  0.19660  1.0000 0.1287366902
H   H19       1.0  0.62230  0.87750  0.30340  1.0000 0.1287366902
H   H20       1.0  0.37770  0.12250  0.80340  1.0000 0.1287366902
H   H21       1.0  0.96200  0.67620  0.92420  1.0000 0.1287366902
H   H22       1.0  0.03800  0.32380  0.42420  1.0000 0.1287366902
H   H23       1.0  0.67620  0.96200  0.07580  1.0000 0.1287366902
H   H24       1.0  0.32380  0.03800  0.57580  1.0000 0.1287366902
H   H25       1.0  0.62030  0.67590  0.85890  1.0000 0.1241762335
H   H26       1.0  0.37970  0.32410  0.35890  1.0000 0.1241762335
H   H27       1.0  0.67590  0.62030  0.14110  1.0000 0.1241762335
H   H28       1.0  0.32410  0.37970  0.64110  1.0000 0.1241762335
H   H29       1.0  0.10980  0.64080  0.55780  1.0000 0.1287366902
H   H30       1.0  0.89020  0.35920  0.05780  1.0000 0.1287366902
H   H31       1.0  0.64080  0.10980  0.44220  1.0000 0.1287366902
H   H32       1.0  0.35920  0.89020  0.94220  1.0000 0.1287366902
H   H33       1.0  0.02920  0.68060  0.32390  1.0000 0.1287366902
H   H34       1.0  0.97080  0.31940  0.82390  1.0000 0.1287366902
H   H35       1.0  0.68060  0.02920  0.67610  1.0000 0.1287366902
H   H36       1.0  0.31940  0.97080  0.17610  1.0000 0.1287366902
H   H37       1.0  0.36410  0.67230  0.39090  1.0000 0.1241762335
H   H38       1.0  0.63590  0.32770  0.89090  1.0000 0.1241762335
H   H39       1.0  0.67230  0.36410  0.60910  1.0000 0.1241762335
H   H40       1.0  0.32770  0.63590  0.10910  1.0000 0.1241762335
H   H41       1.0  0.57450  0.04470  0.82110  1.0000 0.187349761
H   H42       1.0  0.51430  0.94670  0.86170  1.0000 0.2490239088
H   H43       1.0  0.68650  0.87810  0.87490  1.0000 0.0915469745
H   H44       1.0  0.76390  0.98790  0.85290  1.0000 0.1041233317
H   H45       1.0  0.68740  0.90440  0.79030  1.0000 0.1287366902
H   H46       1.0  0.63620  0.04620  0.96510  1.0000 0.0915469745
H   H47       1.0  0.51390  0.07630  0.95760  1.0000 0.1241762335
H   H48       1.0  0.62210  0.14370  0.92380  1.0000 0.0915469745
H   H49       1.0  0.42550  0.95530  0.32110  1.0000 0.187349761
H   H50       1.0  0.48570  0.05330  0.36170  1.0000 0.2490239088
H   H51       1.0  0.31350  0.12190  0.37490  1.0000 0.0915469745
H   H52       1.0  0.23610  0.01210  0.35290  1.0000 0.1041233317
H   H53       1.0  0.31260  0.09560  0.29030  1.0000 0.1287366902
H   H54       1.0  0.36380  0.95380  0.46510  1.0000 0.0915469745
H   H55       1.0  0.48610  0.92370  0.45760  1.0000 0.1241762335
H   H56       1.0  0.37790  0.85630  0.42380  1.0000 0.0915469745
H   H57       1.0  0.04470  0.57450  0.17890  1.0000 0.187349761
H   H58       1.0  0.94670  0.51430  0.13830  1.0000 0.2490239088
H   H59       1.0  0.87810  0.68650  0.12510  1.0000 0.0915469745
H   H60       1.0  0.98790  0.76390  0.14710  1.0000 0.1041233317
H   H61       1.0  0.90440  0.68740  0.20970  1.0000 0.1287366902
H   H62       1.0  0.04620  0.63620  0.03490  1.0000 0.0915469745
H   H63       1.0  0.07630  0.51390  0.04240  1.0000 0.1241762335
H   H64       1.0  0.14370  0.62210  0.07620  1.0000 0.0915469745
H   H65       1.0  0.95530  0.42550  0.67890  1.0000 0.187349761
H   H66       1.0  0.05330  0.48570  0.63830  1.0000 0.2490239088
H   H67       1.0  0.12190  0.31350  0.62510  1.0000 0.0915469745
H   H68       1.0  0.01210  0.23610  0.64710  1.0000 0.1041233317
H   H69       1.0  0.09560  0.31260  0.70970  1.0000 0.1287366902
H   H70       1.0  0.95380  0.36380  0.53490  1.0000 0.0915469745
H   H71       1.0  0.92370  0.48610  0.54240  1.0000 0.1241762335
H   H72       1.0  0.85630  0.37790  0.57620  1.0000 0.0915469745
C   C1        1.0  0.63860  0.63360  0.70350  1.0000 0.6415983682
C   C2        1.0  0.36140  0.36640  0.20350  1.0000 0.6415983682
C   C3        1.0  0.63360  0.63860  0.29650  1.0000 0.6415983682
C   C4        1.0  0.36640  0.36140  0.79650  1.0000 0.6415983682
C   C5        1.0  0.07480  0.66420  0.78710  1.0000 0.5469018762
C   C6        1.0  0.92520  0.33580  0.28710  1.0000 0.5469018762
C   C7        1.0  0.66420  0.07480  0.21290  1.0000 0.5469018762
C   C8        1.0  0.33580  0.92520  0.71290  1.0000 0.5469018762
C   C9        1.0  0.73220  0.64040  0.76800  1.0000 -0.0233140401
C   C10       1.0  0.26780  0.35960  0.26800  1.0000 -0.0233140401
C   C11       1.0  0.64040  0.73220  0.23200  1.0000 -0.0233140401
C   C12       1.0  0.35960  0.26780  0.73200  1.0000 -0.0233140401
C   C13       1.0  0.85490  0.63730  0.74910  1.0000 -0.1594162117
C   C14       1.0  0.14510  0.36270  0.24910  1.0000 -0.1594162117
C   C15       1.0  0.63730  0.85490  0.25090  1.0000 -0.1594162117
C   C16       1.0  0.36270  0.14510  0.75090  1.0000 -0.1594162117
C   C17       1.0  0.94160  0.65640  0.80750  1.0000 0.0088140065
C   C18       1.0  0.05840  0.34360  0.30750  1.0000 0.0088140065
C   C19       1.0  0.65640  0.94160  0.19250  1.0000 0.0088140065
C   C20       1.0  0.34360  0.05840  0.69250  1.0000 0.0088140065
C   C21       1.0  0.90750  0.66790  0.88790  1.0000 -0.2267039175
C   C22       1.0  0.09250  0.33210  0.38790  1.0000 -0.2267039175
C   C23       1.0  0.66790  0.90750  0.11210  1.0000 -0.2267039175
C   C24       1.0  0.33210  0.09250  0.61210  1.0000 -0.2267039175
C   C25       1.0  0.78810  0.66570  0.90840  1.0000 0.0202407683
C   C26       1.0  0.21190  0.33430  0.40840  1.0000 0.0202407683
C   C27       1.0  0.66570  0.78810  0.09160  1.0000 0.0202407683
C   C28       1.0  0.33430  0.21190  0.59160  1.0000 0.0202407683
C   C29       1.0  0.69950  0.66290  0.84680  1.0000 -0.2535880561
C   C30       1.0  0.30050  0.33710  0.34680  1.0000 -0.2535880561
C   C31       1.0  0.66290  0.69950  0.15320  1.0000 -0.2535880561
C   C32       1.0  0.33710  0.30050  0.65320  1.0000 -0.2535880561
C   C33       1.0  0.34730  0.63250  0.54370  1.0000 0.6415983682
C   C34       1.0  0.65270  0.36750  0.04370  1.0000 0.6415983682
C   C35       1.0  0.63250  0.34730  0.45630  1.0000 0.6415983682
C   C36       1.0  0.36750  0.65270  0.95630  1.0000 0.6415983682
C   C37       1.0  0.91810  0.67910  0.46590  1.0000 0.5182093327
C   C38       1.0  0.08190  0.32090  0.96590  1.0000 0.5182093327
C   C39       1.0  0.67910  0.91810  0.53410  1.0000 0.5182093327
C   C40       1.0  0.32090  0.08190  0.03410  1.0000 0.5182093327
C   C41       1.0  0.25650  0.64470  0.48270  1.0000 -0.0723479743
C   C42       1.0  0.74350  0.35530  0.98270  1.0000 -0.0723479743
C   C43       1.0  0.64470  0.25650  0.51730  1.0000 -0.0723479743
C   C44       1.0  0.35530  0.74350  0.01730  1.0000 -0.0723479743
C   C45       1.0  0.13360  0.64860  0.50430  1.0000 -0.1454732622
C   C46       1.0  0.86640  0.35140  0.00430  1.0000 -0.1441145892
C   C47       1.0  0.64860  0.13360  0.49570  1.0000 -0.1454732622
C   C48       1.0  0.35140  0.86640  0.99570  1.0000 -0.1454732622
C   C49       1.0  0.04690  0.66430  0.44420  1.0000 0.0088140065
C   C50       1.0  0.95310  0.33570  0.94420  1.0000 0.0202407683
C   C51       1.0  0.66430  0.04690  0.55580  1.0000 0.0202407683
C   C52       1.0  0.33570  0.95310  0.05580  1.0000 0.0088140065
C   C53       1.0  0.08560  0.67200  0.36420  1.0000 -0.2410385291
C   C54       1.0  0.91440  0.32800  0.86420  1.0000 -0.2410385291
C   C55       1.0  0.67200  0.08560  0.63580  1.0000 -0.2410385291
C   C56       1.0  0.32800  0.91440  0.13580  1.0000 -0.2410385291
C   C57       1.0  0.20460  0.66720  0.34380  1.0000 0.0458364237
C   C58       1.0  0.79540  0.33280  0.84380  1.0000 0.0458364237
C   C59       1.0  0.66720  0.20460  0.65620  1.0000 0.0458364237
C   C60       1.0  0.33280  0.79540  0.15620  1.0000 0.0458364237
C   C61       1.0  0.28890  0.66310  0.40330  1.0000 -0.2221177722
C   C62       1.0  0.71110  0.33690  0.90330  1.0000 -0.2221177722
C   C63       1.0  0.66310  0.28890  0.59670  1.0000 -0.2221177722
C   C64       1.0  0.33690  0.71110  0.09670  1.0000 -0.2221177722
C   C65       1.0  0.68970  0.93430  0.84440  1.0000 -0.3225483129
C   C66       1.0  0.59280  0.07520  0.93410  1.0000 -0.3015456255
C   C67       1.0  0.31030  0.06570  0.34440  1.0000 -0.3225483129
C   C68       1.0  0.40720  0.92480  0.43410  1.0000 -0.3015456255
C   C69       1.0  0.93430  0.68970  0.15560  1.0000 -0.3225483129
C   C70       1.0  0.07520  0.59280  0.06590  1.0000 -0.3015456255
C   C71       1.0  0.06570  0.31030  0.65560  1.0000 -0.3225483129
C   C72       1.0  0.92480  0.40720  0.56590  1.0000 -0.3015456255
N   N1        1.0  0.58200  0.00120  0.85860  1.0000 -0.1594162117
N   N2        1.0  0.41800  0.99880  0.35860  1.0000 -0.1594162117
N   N3        1.0  0.00120  0.58200  0.14140  1.0000 -0.1594162117
N   N4        1.0  0.99880  0.41800  0.64140  1.0000 -0.1594162117
O   O1        1.0  0.66590  0.59730  0.63620  1.0000 -0.6429544742
O   O2        1.0  0.33410  0.40270  0.13620  1.0000 -0.6429544742
O   O3        1.0  0.59730  0.66590  0.36380  1.0000 -0.6429544742
O   O4        1.0  0.40270  0.33410  0.86380  1.0000 -0.6429544742
O   O5        1.0  0.53880  0.67020  0.72180  1.0000 -0.671475416
O   O6        1.0  0.46120  0.32980  0.22180  1.0000 -0.671475416
O   O7        1.0  0.67020  0.53880  0.27820  1.0000 -0.671475416
O   O8        1.0  0.32980  0.46120  0.77820  1.0000 -0.671475416
O   O9        1.0  0.10680  0.60400  0.72530  1.0000 -0.6518789584
O   O10       1.0  0.89320  0.39600  0.22530  1.0000 -0.6518789584
O   O11       1.0  0.60400  0.10680  0.27470  1.0000 -0.6518789584
O   O12       1.0  0.39600  0.89320  0.77470  1.0000 -0.6518789584
O   O13       1.0  0.15350  0.71350  0.83350  1.0000 -0.5930488015
O   O14       1.0  0.84650  0.28650  0.33350  1.0000 -0.5930488015
O   O15       1.0  0.71350  0.15350  0.16650  1.0000 -0.5930488015
O   O16       1.0  0.28650  0.84650  0.66650  1.0000 -0.5930488015
O   O17       1.0  0.76360  0.70400  0.98700  1.0000 -0.1176128256
O   O18       1.0  0.23640  0.29600  0.48700  1.0000 -0.1176128256
O   O19       1.0  0.70400  0.76360  0.01300  1.0000 -0.1176128256
O   O20       1.0  0.29600  0.23640  0.51300  1.0000 -0.1176128256
O   O21       1.0  0.45810  0.65010  0.52350  1.0000 -0.6824226434
O   O22       1.0  0.54190  0.34990  0.02350  1.0000 -0.6824226434
O   O23       1.0  0.65010  0.45810  0.47650  1.0000 -0.6824226434
O   O24       1.0  0.34990  0.54190  0.97650  1.0000 -0.6824226434
O   O25       1.0  0.31070  0.59990  0.61510  1.0000 -0.6969581152
O   O26       1.0  0.68930  0.40010  0.11510  1.0000 -0.6969581152
O   O27       1.0  0.59990  0.31070  0.38490  1.0000 -0.6969581152
O   O28       1.0  0.40010  0.68930  0.88490  1.0000 -0.6969581152
O   O29       1.0  0.84770  0.70070  0.41550  1.0000 -0.5201831217
O   O30       1.0  0.15230  0.29930  0.91550  1.0000 -0.5201831217
O   O31       1.0  0.70070  0.84770  0.58450  1.0000 -0.5201831217
O   O32       1.0  0.29930  0.15230  0.08450  1.0000 -0.5201831217
O   O33       1.0  0.88380  0.65340  0.53580  1.0000 -0.5722991581
O   O34       1.0  0.11620  0.34660  0.03580  1.0000 -0.5722991581
O   O35       1.0  0.65340  0.88380  0.46420  1.0000 -0.5722991581
O   O36       1.0  0.34660  0.11620  0.96420  1.0000 -0.5722991581
O   O37       1.0  0.23210  0.69530  0.26220  1.0000 -0.1176128256
O   O38       1.0  0.76790  0.30470  0.76220  1.0000 -0.1176128256
O   O39       1.0  0.69530  0.23210  0.73780  1.0000 -0.1176128256
O   O40       1.0  0.30470  0.76790  0.23780  1.0000 -0.1176128256
