# DDEC6 charges by PACMAN v1.1 (https://github.com/mtap-research/PACMAN-charge/)
data_2014[CoNd][pcu]3[ION]1
_chemical_formula_sum              "Nd3 Co1 H30 C18 N6 O24"
_cell_length_a       11.9084
_cell_length_b       11.9084
_cell_length_c       11.9084
_cell_angle_alpha    50.9211
_cell_angle_beta     50.9211
_cell_angle_gamma    50.9211

_symmetry_space_group_name_H-M    "P 1"
_symmetry_Int_Tables_number       1

loop_
  _symmetry_equiv_pos_as_xyz
  'x, y, z'

loop_
  _atom_site_type_symbol
  _atom_site_label
  _atom_site_symmetry_multiplicity
  _atom_site_fract_x
  _atom_site_fract_y
  _atom_site_fract_z
  _atom_site_occupancy
  _atom_site_charge
Nd  Nd1       1.0  0.00000  0.00000  0.00000  1.0000 2.0280347158
Nd  Nd2       1.0  0.13186  0.13186  0.13186  1.0000 2.1321432878
Nd  Nd3       1.0  0.86814  0.86814  0.86814  1.0000 2.1321432878
Co  Co1       1.0  0.50000  0.50000  0.50000  1.0000 0.6883831396
H   H1        1.0  0.96565  0.53759  0.77900  1.0000 0.1801323582
H   H2        1.0  0.53759  0.77900  0.96565  1.0000 0.1801323582
H   H3        1.0  0.77900  0.96565  0.53759  1.0000 0.1801323582
H   H4        1.0  0.03435  0.46241  0.22100  1.0000 0.1801323582
H   H5        1.0  0.46241  0.22100  0.03435  1.0000 0.1801323582
H   H6        1.0  0.22100  0.03435  0.46241  1.0000 0.1801323582
H   H7        1.0  0.78865  0.56829  0.85000  1.0000 0.1801323582
H   H8        1.0  0.56829  0.85000  0.78865  1.0000 0.1801323582
H   H9        1.0  0.85000  0.78865  0.56829  1.0000 0.1801323582
H   H10       1.0  0.21135  0.43171  0.15000  1.0000 0.1801323582
H   H11       1.0  0.43171  0.15000  0.21135  1.0000 0.1801323582
H   H12       1.0  0.15000  0.21135  0.43171  1.0000 0.1801323582
H   H13       1.0  0.28875  0.41079  0.72250  1.0000 0.2993534048
H   H14       1.0  0.41079  0.72250  0.28875  1.0000 0.2993534048
H   H15       1.0  0.72250  0.28875  0.41079  1.0000 0.2993534048
H   H16       1.0  0.71125  0.58921  0.27750  1.0000 0.2993534048
H   H17       1.0  0.58921  0.27750  0.71125  1.0000 0.2993534048
H   H18       1.0  0.27750  0.71125  0.58921  1.0000 0.2993534048
H   H19       1.0  0.22245  0.55949  0.61130  1.0000 0.2829236576
H   H20       1.0  0.55949  0.61130  0.22245  1.0000 0.2829236576
H   H21       1.0  0.61130  0.22245  0.55949  1.0000 0.2829236576
H   H22       1.0  0.77755  0.44051  0.38870  1.0000 0.2829236576
H   H23       1.0  0.44051  0.38870  0.77755  1.0000 0.2829236576
H   H24       1.0  0.38870  0.77755  0.44051  1.0000 0.2829236576
H   H25       1.0  0.30845  0.41599  0.58600  1.0000 0.2829236576
H   H26       1.0  0.41599  0.58600  0.30845  1.0000 0.2829236576
H   H27       1.0  0.58600  0.30845  0.41599  1.0000 0.2829236576
H   H28       1.0  0.69155  0.58401  0.41400  1.0000 0.2829236576
H   H29       1.0  0.58401  0.41400  0.69155  1.0000 0.2829236576
H   H30       1.0  0.41400  0.69155  0.58401  1.0000 0.2829236576
C   C1        1.0  0.93002  0.33450  0.90510  1.0000 0.700087278
C   C2        1.0  0.33450  0.90510  0.93002  1.0000 0.700087278
C   C3        1.0  0.90510  0.93002  0.33450  1.0000 0.700087278
C   C4        1.0  0.06998  0.66550  0.09490  1.0000 0.700087278
C   C5        1.0  0.66550  0.09490  0.06998  1.0000 0.700087278
C   C6        1.0  0.09490  0.06998  0.66550  1.0000 0.700087278
C   C7        1.0  0.88303  0.50084  0.87149  1.0000 -0.5223393153
C   C8        1.0  0.50084  0.87149  0.88303  1.0000 -0.5223393153
C   C9        1.0  0.87149  0.88303  0.50084  1.0000 -0.5223393153
C   C10       1.0  0.11697  0.49916  0.12851  1.0000 -0.5223393153
C   C11       1.0  0.49916  0.12851  0.11697  1.0000 -0.5223393153
C   C12       1.0  0.12851  0.11697  0.49916  1.0000 -0.5223393153
C   C13       1.0  0.85348  0.51113  0.01021  1.0000 0.6883831396
C   C14       1.0  0.51113  0.01021  0.85348  1.0000 0.6883831396
C   C15       1.0  0.01021  0.85348  0.51113  1.0000 0.6883831396
C   C16       1.0  0.14652  0.48887  0.98979  1.0000 0.6883831396
C   C17       1.0  0.48887  0.98979  0.14652  1.0000 0.6883831396
C   C18       1.0  0.98979  0.14652  0.48887  1.0000 0.6883831396
N   N1        1.0  0.30281  0.46701  0.62171  1.0000 -0.6908883761
N   N2        1.0  0.46701  0.62171  0.30281  1.0000 -0.6908883761
N   N3        1.0  0.62171  0.30281  0.46701  1.0000 -0.6908883761
N   N4        1.0  0.69719  0.53299  0.37829  1.0000 -0.6908883761
N   N5        1.0  0.53299  0.37829  0.69719  1.0000 -0.6908883761
N   N6        1.0  0.37829  0.69719  0.53299  1.0000 -0.6908883761
O   O1        1.0  0.83534  0.29818  0.93002  1.0000 -0.562724651
O   O2        1.0  0.29818  0.93002  0.83534  1.0000 -0.562724651
O   O3        1.0  0.93002  0.83534  0.29818  1.0000 -0.562724651
O   O4        1.0  0.16466  0.70182  0.06998  1.0000 -0.562724651
O   O5        1.0  0.70182  0.06998  0.16466  1.0000 -0.562724651
O   O6        1.0  0.06998  0.16466  0.70182  1.0000 -0.562724651
O   O7        1.0  0.06436  0.23169  0.91380  1.0000 -0.7255427948
O   O8        1.0  0.23169  0.91380  0.06436  1.0000 -0.7255427948
O   O9        1.0  0.91380  0.06436  0.23169  1.0000 -0.7255427948
O   O10       1.0  0.93564  0.76831  0.08620  1.0000 -0.7255427948
O   O11       1.0  0.76831  0.08620  0.93564  1.0000 -0.7255427948
O   O12       1.0  0.08620  0.93564  0.76831  1.0000 -0.7255427948
O   O13       1.0  0.88366  0.38586  0.12522  1.0000 -0.6062434625
O   O14       1.0  0.38586  0.12522  0.88366  1.0000 -0.6062434625
O   O15       1.0  0.12522  0.88366  0.38586  1.0000 -0.6062434625
O   O16       1.0  0.11634  0.61414  0.87478  1.0000 -0.6062434625
O   O17       1.0  0.61414  0.87478  0.11634  1.0000 -0.6062434625
O   O18       1.0  0.87478  0.11634  0.61414  1.0000 -0.6062434625
O   O19       1.0  0.79546  0.64620  0.00522  1.0000 -0.6696479927
O   O20       1.0  0.64620  0.00522  0.79546  1.0000 -0.6696479927
O   O21       1.0  0.00522  0.79546  0.64620  1.0000 -0.6696479927
O   O22       1.0  0.20454  0.35380  0.99478  1.0000 -0.6696479927
O   O23       1.0  0.35380  0.99478  0.20454  1.0000 -0.6696479927
O   O24       1.0  0.99478  0.20454  0.35380  1.0000 -0.6696479927
