# DDEC6 charges by PACMAN v1.1 (https://github.com/mtap-research/PACMAN-charge/)
data_2014[Cu][scu]3[ION]1
_chemical_formula_sum              "Cu8 H48 C52 N4 O36"
_cell_length_a       11.5934
_cell_length_b       10.5944
_cell_length_c       15.822
_cell_angle_alpha    90
_cell_angle_beta     106.13
_cell_angle_gamma    90

_symmetry_space_group_name_H-M    "P 1"
_symmetry_Int_Tables_number       1

loop_
  _symmetry_equiv_pos_as_xyz
  'x, y, z'

loop_
  _atom_site_type_symbol
  _atom_site_label
  _atom_site_symmetry_multiplicity
  _atom_site_fract_x
  _atom_site_fract_y
  _atom_site_fract_z
  _atom_site_occupancy
  _atom_site_charge
Cu  Cu1       1.0  0.98520  0.36323  0.99921  1.0000 0.9694705672
Cu  Cu2       1.0  0.01480  0.36323  0.50079  1.0000 0.9694705672
Cu  Cu3       1.0  0.01480  0.63677  0.00079  1.0000 0.9694705672
Cu  Cu4       1.0  0.98520  0.63677  0.49921  1.0000 0.9694705672
Cu  Cu5       1.0  0.85933  0.50242  0.81438  1.0000 0.9858949847
Cu  Cu6       1.0  0.14067  0.50242  0.68562  1.0000 0.9858949847
Cu  Cu7       1.0  0.14067  0.49758  0.18562  1.0000 0.9848070211
Cu  Cu8       1.0  0.85933  0.49758  0.31438  1.0000 0.9848070211
H   H1        1.0  0.94590  0.00450  0.87940  1.0000 0.1280764557
H   H2        1.0  0.05410  0.00450  0.62060  1.0000 0.1280764557
H   H3        1.0  0.05410  0.99550  0.12060  1.0000 0.1280764557
H   H4        1.0  0.94590  0.99550  0.37940  1.0000 0.1280764557
H   H5        1.0  0.06130  0.49500  0.90060  1.0000 0.3795921869
H   H6        1.0  0.93870  0.49500  0.59940  1.0000 0.3795921869
H   H7        1.0  0.93870  0.50500  0.09940  1.0000 0.3795921869
H   H8        1.0  0.06130  0.50500  0.40060  1.0000 0.3795921869
H   H9        1.0  0.50100  0.47970  0.85190  1.0000 0.1358370102
H   H10       1.0  0.49900  0.47970  0.64810  1.0000 0.1358370102
H   H11       1.0  0.49900  0.52030  0.14810  1.0000 0.1358370102
H   H12       1.0  0.50100  0.52030  0.35190  1.0000 0.1358370102
H   H13       1.0  0.69700  0.14850  0.08180  1.0000 0.2773127324
H   H14       1.0  0.30300  0.14850  0.41820  1.0000 0.2773127324
H   H15       1.0  0.74590  0.21600  0.01320  1.0000 0.3027337781
H   H16       1.0  0.25410  0.21600  0.48680  1.0000 0.3027337781
H   H17       1.0  0.74670  0.07440  0.02430  1.0000 0.2773127324
H   H18       1.0  0.25330  0.07440  0.47570  1.0000 0.2773127324
H   H19       1.0  0.54910  0.20770  0.96310  1.0000 0.0842494956
H   H20       1.0  0.45090  0.20770  0.53690  1.0000 0.0842494956
H   H21       1.0  0.55530  0.06910  0.96570  1.0000 0.0579342331
H   H22       1.0  0.44470  0.06910  0.53430  1.0000 0.0579342331
H   H23       1.0  0.65310  0.07050  0.85660  1.0000 0.1126767388
H   H24       1.0  0.34690  0.07050  0.64340  1.0000 0.1126767388
H   H25       1.0  0.64280  0.21340  0.85570  1.0000 0.1280764557
H   H26       1.0  0.35720  0.21340  0.64430  1.0000 0.1280764557
H   H27       1.0  0.45190  0.06520  0.80460  1.0000 0.1020144048
H   H28       1.0  0.54810  0.06520  0.69540  1.0000 0.1020144048
H   H29       1.0  0.45370  0.21050  0.79420  1.0000 0.1126767388
H   H30       1.0  0.54630  0.21050  0.70580  1.0000 0.1126767388
H   H31       1.0  0.30300  0.85150  0.91820  1.0000 0.2773127324
H   H32       1.0  0.69700  0.85150  0.58180  1.0000 0.2773127324
H   H33       1.0  0.25410  0.78400  0.98680  1.0000 0.3027337781
H   H34       1.0  0.74590  0.78400  0.51320  1.0000 0.3027337781
H   H35       1.0  0.25330  0.92560  0.97570  1.0000 0.2773127324
H   H36       1.0  0.74670  0.92560  0.52430  1.0000 0.2773127324
H   H37       1.0  0.45090  0.79230  0.03690  1.0000 0.0842494956
H   H38       1.0  0.54910  0.79230  0.46310  1.0000 0.0842494956
H   H39       1.0  0.44470  0.93090  0.03430  1.0000 0.0579342331
H   H40       1.0  0.55530  0.93090  0.46570  1.0000 0.0579342331
H   H41       1.0  0.34690  0.92950  0.14340  1.0000 0.1126767388
H   H42       1.0  0.65310  0.92950  0.35660  1.0000 0.1126767388
H   H43       1.0  0.35720  0.78660  0.14430  1.0000 0.1280764557
H   H44       1.0  0.64280  0.78660  0.35570  1.0000 0.1280764557
H   H45       1.0  0.54810  0.93480  0.19540  1.0000 0.1020144048
H   H46       1.0  0.45190  0.93480  0.30460  1.0000 0.1020144048
H   H47       1.0  0.54630  0.78950  0.20580  1.0000 0.1126767388
H   H48       1.0  0.45370  0.78950  0.29420  1.0000 0.1126767388
C   C1        1.0  0.98300  0.88900  0.78950  1.0000 -0.0404859384
C   C2        1.0  0.01700  0.88900  0.71050  1.0000 -0.0404859384
C   C3        1.0  0.01700  0.11100  0.21050  1.0000 -0.0404859384
C   C4        1.0  0.98300  0.11100  0.28950  1.0000 -0.0404859384
C   C5        1.0  0.98240  0.11830  0.78920  1.0000 -0.0243171797
C   C6        1.0  0.01760  0.11830  0.71080  1.0000 -0.0276178561
C   C7        1.0  0.01760  0.88170  0.21080  1.0000 -0.0276178561
C   C8        1.0  0.98240  0.88170  0.28920  1.0000 -0.0243171797
C   C9        1.0  0.96730  0.00320  0.82710  1.0000 -0.1374396802
C   C10       1.0  0.03270  0.00320  0.67290  1.0000 -0.1374396802
C   C11       1.0  0.03270  0.99680  0.17290  1.0000 -0.1374396802
C   C12       1.0  0.96730  0.99680  0.32710  1.0000 -0.1374396802
C   C13       1.0  0.96130  0.76920  0.83330  1.0000 0.5894948489
C   C14       1.0  0.03870  0.76920  0.66667  1.0000 0.5894948489
C   C15       1.0  0.03870  0.23080  0.16670  1.0000 0.5894948489
C   C16       1.0  0.96130  0.23080  0.33333  1.0000 0.5894948489
C   C17       1.0  0.95620  0.23640  0.83410  1.0000 0.5894948489
C   C18       1.0  0.04380  0.23640  0.66590  1.0000 0.5894948489
C   C19       1.0  0.04380  0.76360  0.16590  1.0000 0.5894948489
C   C20       1.0  0.95620  0.76360  0.33410  1.0000 0.5894948489
C   C21       1.0  0.60750  0.50440  0.06740  1.0000 -0.0404859384
C   C22       1.0  0.39250  0.50440  0.43260  1.0000 -0.0404859384
C   C23       1.0  0.39250  0.49560  0.93260  1.0000 -0.0404859384
C   C24       1.0  0.60750  0.49560  0.56740  1.0000 -0.0404859384
C   C25       1.0  0.61030  0.49410  0.98000  1.0000 -0.0276178561
C   C26       1.0  0.38970  0.49410  0.52000  1.0000 -0.0276178561
C   C27       1.0  0.38970  0.50590  0.02000  1.0000 -0.0276178561
C   C28       1.0  0.61030  0.50590  0.48000  1.0000 -0.0276178561
C   C29       1.0  0.50270  0.48980  0.91350  1.0000 -0.1474487566
C   C30       1.0  0.49730  0.48980  0.58650  1.0000 -0.1474487566
C   C31       1.0  0.49730  0.51020  0.08650  1.0000 -0.1474487566
C   C32       1.0  0.50270  0.51020  0.41350  1.0000 -0.1474487566
C   C33       1.0  0.72170  0.51720  0.14070  1.0000 0.5655864543
C   C34       1.0  0.27830  0.51720  0.35930  1.0000 0.5655864543
C   C35       1.0  0.27830  0.48280  0.85930  1.0000 0.5655864543
C   C36       1.0  0.72170  0.48280  0.64070  1.0000 0.5655864543
C   C37       1.0  0.72460  0.47670  0.95210  1.0000 0.5894948489
C   C38       1.0  0.27540  0.47670  0.54790  1.0000 0.5849918789
C   C39       1.0  0.27540  0.52330  0.04790  1.0000 0.5894948489
C   C40       1.0  0.72460  0.52330  0.45210  1.0000 0.5849918789
C   C41       1.0  0.59350  0.14020  0.95700  1.0000 -0.0276178561
C   C42       1.0  0.40650  0.14020  0.54300  1.0000 -0.0276178561
C   C43       1.0  0.61250  0.13880  0.86710  1.0000 -0.2029507951
C   C44       1.0  0.38750  0.13880  0.63290  1.0000 -0.2029507951
C   C45       1.0  0.49160  0.13540  0.79590  1.0000 -0.1573341944
C   C46       1.0  0.50840  0.13540  0.70410  1.0000 -0.1573341944
C   C47       1.0  0.40650  0.85980  0.04300  1.0000 -0.0276178561
C   C48       1.0  0.59350  0.85980  0.45700  1.0000 -0.0276178561
C   C49       1.0  0.38750  0.86120  0.13290  1.0000 -0.2029507951
C   C50       1.0  0.61250  0.86120  0.36710  1.0000 -0.2029507951
C   C51       1.0  0.50840  0.86460  0.20410  1.0000 -0.1573341944
C   C52       1.0  0.49160  0.86460  0.29590  1.0000 -0.1573341944
N   N1        1.0  0.70840  0.14770  0.02750  1.0000 -0.4734353729
N   N2        1.0  0.29160  0.14770  0.47250  1.0000 -0.4734353729
N   N3        1.0  0.29160  0.85230  0.97250  1.0000 -0.4734353729
N   N4        1.0  0.70840  0.85230  0.52750  1.0000 -0.4734353729
O   O1        1.0  0.89580  0.68630  0.78800  1.0000 -0.5215788616
O   O2        1.0  0.10420  0.68630  0.71200  1.0000 -0.5215788616
O   O3        1.0  0.10420  0.31370  0.21200  1.0000 -0.5215788616
O   O4        1.0  0.89580  0.31370  0.28800  1.0000 -0.5215788616
O   O5        1.0  0.01050  0.76680  0.91520  1.0000 -0.525781744
O   O6        1.0  0.98950  0.76680  0.58480  1.0000 -0.525781744
O   O7        1.0  0.98950  0.23320  0.08480  1.0000 -0.5215788616
O   O8        1.0  0.01050  0.23320  0.41520  1.0000 -0.5215788616
O   O9        1.0  0.89180  0.31950  0.78930  1.0000 -0.5142542356
O   O10       1.0  0.10820  0.31950  0.71070  1.0000 -0.5142542356
O   O11       1.0  0.10820  0.68050  0.21070  1.0000 -0.5142542356
O   O12       1.0  0.89180  0.68050  0.28930  1.0000 -0.5142542356
O   O13       1.0  0.99950  0.23390  0.91720  1.0000 -0.525781744
O   O14       1.0  0.00050  0.23390  0.58280  1.0000 -0.525781744
O   O15       1.0  0.00050  0.76610  0.08280  1.0000 -0.525781744
O   O16       1.0  0.99950  0.76610  0.41720  1.0000 -0.525781744
O   O17       1.0  0.99420  0.49840  0.91710  1.0000 -0.8259349697
O   O18       1.0  0.00580  0.49840  0.58290  1.0000 -0.8259349697
O   O19       1.0  0.00580  0.50160  0.08290  1.0000 -0.8259349697
O   O20       1.0  0.99420  0.50160  0.41710  1.0000 -0.8259349697
O   O21       1.0  0.71580  0.48750  0.21730  1.0000 -0.5357627207
O   O22       1.0  0.28420  0.48750  0.28270  1.0000 -0.5357627207
O   O23       1.0  0.28420  0.51250  0.78270  1.0000 -0.5357627207
O   O24       1.0  0.71580  0.51250  0.71730  1.0000 -0.5357627207
O   O25       1.0  0.81180  0.55780  0.12240  1.0000 -0.4986645736
O   O26       1.0  0.18820  0.55780  0.37760  1.0000 -0.4986645736
O   O27       1.0  0.18820  0.44220  0.87760  1.0000 -0.4986645736
O   O28       1.0  0.81180  0.44220  0.62240  1.0000 -0.4986645736
O   O29       1.0  0.74800  0.55950  0.90250  1.0000 -0.568294757
O   O30       1.0  0.25200  0.55950  0.59750  1.0000 -0.568294757
O   O31       1.0  0.25200  0.44050  0.09750  1.0000 -0.568294757
O   O32       1.0  0.74800  0.44050  0.40250  1.0000 -0.568294757
O   O33       1.0  0.78270  0.37720  0.97450  1.0000 -0.5903979772
O   O34       1.0  0.21730  0.37720  0.52550  1.0000 -0.5903979772
O   O35       1.0  0.21730  0.62280  0.02550  1.0000 -0.5903979772
O   O36       1.0  0.78270  0.62280  0.47450  1.0000 -0.5903979772
