# DDEC6 charges by PACMAN v1.1 (https://github.com/mtap-research/PACMAN-charge/)
data_2014[Cu][pcu]3[ION]1
_chemical_formula_sum              "Cu12 H76 C48 S6 N36 O64"
_cell_length_a       18.3054
_cell_length_b       18.3054
_cell_length_c       18.3054
_cell_angle_alpha    109.471
_cell_angle_beta     109.471
_cell_angle_gamma    109.471

_symmetry_space_group_name_H-M    "P 1"
_symmetry_Int_Tables_number       1

loop_
  _symmetry_equiv_pos_as_xyz
  'x, y, z'

loop_
  _atom_site_type_symbol
  _atom_site_label
  _atom_site_symmetry_multiplicity
  _atom_site_fract_x
  _atom_site_fract_y
  _atom_site_fract_z
  _atom_site_occupancy
  _atom_site_charge
Cu  Cu1       1.0  0.50018  0.38660  0.50018  1.0000 0.8025496916
Cu  Cu2       1.0  0.88642  0.00000  0.49982  1.0000 0.8025496916
Cu  Cu3       1.0  0.11358  0.61340  0.11358  1.0000 0.8025496916
Cu  Cu4       1.0  0.49982  0.00000  0.88642  1.0000 0.8025496916
Cu  Cu5       1.0  0.50018  0.50018  0.38660  1.0000 0.8025496916
Cu  Cu6       1.0  0.49982  0.88642  0.00000  1.0000 0.8025496916
Cu  Cu7       1.0  0.11358  0.11358  0.61340  1.0000 0.8025496916
Cu  Cu8       1.0  0.88642  0.49982  0.00000  1.0000 0.8025496916
Cu  Cu9       1.0  0.38660  0.50018  0.50018  1.0000 0.8025496916
Cu  Cu10      1.0  1.00000  0.49982  0.88642  1.0000 0.8025496916
Cu  Cu11      1.0  0.61340  0.11358  0.11358  1.0000 0.8025496916
Cu  Cu12      1.0  0.00000  0.88642  0.49982  1.0000 0.8025496916
H   H1        1.0  0.62810  0.31840  0.44930  1.0000 0.1497539497
H   H2        1.0  0.86910  0.17880  0.55070  1.0000 0.1497539497
H   H3        1.0  0.13090  0.68160  0.30970  1.0000 0.1497539497
H   H4        1.0  0.37190  0.82120  0.69030  1.0000 0.1497539497
H   H5        1.0  0.44930  0.62810  0.31840  1.0000 0.1497539497
H   H6        1.0  0.55070  0.86910  0.17880  1.0000 0.1497539497
H   H7        1.0  0.30970  0.13090  0.68160  1.0000 0.1497539497
H   H8        1.0  0.69030  0.37190  0.82120  1.0000 0.1497539497
H   H9        1.0  0.31840  0.44930  0.62810  1.0000 0.1497539497
H   H10       1.0  0.17880  0.55070  0.86910  1.0000 0.1497539497
H   H11       1.0  0.68160  0.30970  0.13090  1.0000 0.1497539497
H   H12       1.0  0.82120  0.69030  0.37190  1.0000 0.1497539497
H   H13       1.0  0.31840  0.62810  0.44930  1.0000 0.1497539497
H   H14       1.0  0.17880  0.86910  0.55070  1.0000 0.1497539497
H   H15       1.0  0.68160  0.13090  0.30970  1.0000 0.1497539497
H   H16       1.0  0.82120  0.37190  0.69030  1.0000 0.1497539497
H   H17       1.0  0.62810  0.44930  0.31840  1.0000 0.1497539497
H   H18       1.0  0.86910  0.55070  0.17880  1.0000 0.1497539497
H   H19       1.0  0.13090  0.30970  0.68160  1.0000 0.1497539497
H   H20       1.0  0.37190  0.69030  0.82120  1.0000 0.1497539497
H   H21       1.0  0.44930  0.31840  0.62810  1.0000 0.1497539497
H   H22       1.0  0.55070  0.17880  0.86910  1.0000 0.1497539497
H   H23       1.0  0.30970  0.68160  0.13090  1.0000 0.1497539497
H   H24       1.0  0.69030  0.82120  0.37190  1.0000 0.1497539497
H   H25       1.0  0.74010  0.33590  0.38840  1.0000 0.1737725652
H   H26       1.0  0.94750  0.35170  0.61160  1.0000 0.1737725652
H   H27       1.0  0.05250  0.66410  0.40420  1.0000 0.1737725652
H   H28       1.0  0.25990  0.64830  0.59580  1.0000 0.1737725652
H   H29       1.0  0.38840  0.74010  0.33590  1.0000 0.1737725652
H   H30       1.0  0.61160  0.94750  0.35170  1.0000 0.1737725652
H   H31       1.0  0.40420  0.05250  0.66410  1.0000 0.1737725652
H   H32       1.0  0.59580  0.25990  0.64830  1.0000 0.1737725652
H   H33       1.0  0.33590  0.38840  0.74010  1.0000 0.1737725652
H   H34       1.0  0.35170  0.61160  0.94750  1.0000 0.1737725652
H   H35       1.0  0.66410  0.40420  0.05250  1.0000 0.1737725652
H   H36       1.0  0.64830  0.59580  0.25990  1.0000 0.1737725652
H   H37       1.0  0.33590  0.74010  0.38840  1.0000 0.1737725652
H   H38       1.0  0.35170  0.94750  0.61160  1.0000 0.1737725652
H   H39       1.0  0.66410  0.05250  0.40420  1.0000 0.1737725652
H   H40       1.0  0.64830  0.25990  0.59580  1.0000 0.1737725652
H   H41       1.0  0.74010  0.38840  0.33590  1.0000 0.1737725652
H   H42       1.0  0.94750  0.61160  0.35170  1.0000 0.1737725652
H   H43       1.0  0.05250  0.40420  0.66410  1.0000 0.1737725652
H   H44       1.0  0.25990  0.59580  0.64830  1.0000 0.1737725652
H   H45       1.0  0.38840  0.33590  0.74010  1.0000 0.1737725652
H   H46       1.0  0.61160  0.35170  0.94750  1.0000 0.1737725652
H   H47       1.0  0.40420  0.66410  0.05250  1.0000 0.1737725652
H   H48       1.0  0.59580  0.64830  0.25990  1.0000 0.1737725652
H   H49       1.0  0.53400  0.53400  0.53400  1.0000 0.3697817093
H   H50       1.0  0.00000  0.00000  0.46600  1.0000 0.3697817093
H   H51       1.0  0.00000  0.46600  0.00000  1.0000 0.3697817093
H   H52       1.0  0.46600  0.00000  0.00000  1.0000 0.3697817093
H   H53       1.0  0.34380  0.23870  0.38990  1.0000 0.3517804013
H   H54       1.0  0.84880  0.95390  0.61010  1.0000 0.3517804013
H   H55       1.0  0.15120  0.76130  0.10510  1.0000 0.3517804013
H   H56       1.0  0.65620  0.04610  0.89490  1.0000 0.3517804013
H   H57       1.0  0.38990  0.34380  0.23870  1.0000 0.3517804013
H   H58       1.0  0.61010  0.84880  0.95390  1.0000 0.3517804013
H   H59       1.0  0.10510  0.15120  0.76130  1.0000 0.3517804013
H   H60       1.0  0.89490  0.65620  0.04610  1.0000 0.3517804013
H   H61       1.0  0.23870  0.38990  0.34380  1.0000 0.3517804013
H   H62       1.0  0.95390  0.61010  0.84880  1.0000 0.3517804013
H   H63       1.0  0.76130  0.10510  0.15120  1.0000 0.3517804013
H   H64       1.0  0.04610  0.89490  0.65620  1.0000 0.3517804013
H   H65       1.0  0.23870  0.34380  0.38990  1.0000 0.3517804013
H   H66       1.0  0.95390  0.84880  0.61010  1.0000 0.3517804013
H   H67       1.0  0.76130  0.15120  0.10510  1.0000 0.3517804013
H   H68       1.0  0.04610  0.65620  0.89490  1.0000 0.3517804013
H   H69       1.0  0.34380  0.38990  0.23870  1.0000 0.3517804013
H   H70       1.0  0.84880  0.61010  0.95390  1.0000 0.3517804013
H   H71       1.0  0.15120  0.10510  0.76130  1.0000 0.3517804013
H   H72       1.0  0.65620  0.89490  0.04610  1.0000 0.3517804013
H   H73       1.0  0.38990  0.23870  0.34380  1.0000 0.3517804013
H   H74       1.0  0.61010  0.95390  0.84880  1.0000 0.3517804013
H   H75       1.0  0.10510  0.76130  0.15120  1.0000 0.3517804013
H   H76       1.0  0.89490  0.04610  0.65620  1.0000 0.3517804013
C   C1        1.0  0.61890  0.35570  0.42760  1.0000 0.1568155504
C   C2        1.0  0.92810  0.19130  0.57240  1.0000 0.1568155504
C   C3        1.0  0.07190  0.64430  0.26320  1.0000 0.1568155504
C   C4        1.0  0.38110  0.80870  0.73680  1.0000 0.1568155504
C   C5        1.0  0.42760  0.61890  0.35570  1.0000 0.1568155504
C   C6        1.0  0.57240  0.92810  0.19130  1.0000 0.1568155504
C   C7        1.0  0.26320  0.07190  0.64430  1.0000 0.1568155504
C   C8        1.0  0.73680  0.38110  0.80870  1.0000 0.1568155504
C   C9        1.0  0.35570  0.42760  0.61890  1.0000 0.1568155504
C   C10       1.0  0.19130  0.57240  0.92810  1.0000 0.1568155504
C   C11       1.0  0.64430  0.26320  0.07190  1.0000 0.1568155504
C   C12       1.0  0.80870  0.73680  0.38110  1.0000 0.1568155504
C   C13       1.0  0.35570  0.61890  0.42760  1.0000 0.1568155504
C   C14       1.0  0.19130  0.92810  0.57240  1.0000 0.1568155504
C   C15       1.0  0.64430  0.07190  0.26320  1.0000 0.1568155504
C   C16       1.0  0.80870  0.38110  0.73680  1.0000 0.1568155504
C   C17       1.0  0.61890  0.42760  0.35570  1.0000 0.1568155504
C   C18       1.0  0.92810  0.57240  0.19130  1.0000 0.1568155504
C   C19       1.0  0.07190  0.26320  0.64430  1.0000 0.1568155504
C   C20       1.0  0.38110  0.73680  0.80870  1.0000 0.1568155504
C   C21       1.0  0.42760  0.35570  0.61890  1.0000 0.1568155504
C   C22       1.0  0.57240  0.19130  0.92810  1.0000 0.1568155504
C   C23       1.0  0.26320  0.64430  0.07190  1.0000 0.1568155504
C   C24       1.0  0.73680  0.80870  0.38110  1.0000 0.1568155504
C   C25       1.0  0.70300  0.34470  0.34470  1.0000 -0.2193840912
C   C26       1.0  0.00000  0.35830  0.65530  1.0000 -0.2193840912
C   C27       1.0  0.00000  0.65530  0.35830  1.0000 -0.2193840912
C   C28       1.0  0.29700  0.64170  0.64170  1.0000 -0.2193840912
C   C29       1.0  0.34470  0.70300  0.34470  1.0000 -0.2193840912
C   C30       1.0  0.65530  0.00000  0.35830  1.0000 -0.2193840912
C   C31       1.0  0.35830  1.00000  0.65530  1.0000 -0.2193840912
C   C32       1.0  0.64170  0.29700  0.64170  1.0000 -0.2193840912
C   C33       1.0  0.34470  0.34470  0.70300  1.0000 -0.2193840912
C   C34       1.0  0.35830  0.65530  0.00000  1.0000 -0.2193840912
C   C35       1.0  0.65530  0.35830  0.00000  1.0000 -0.2193840912
C   C36       1.0  0.64170  0.64170  0.29700  1.0000 -0.2193840912
C   C37       1.0  0.64340  0.25730  0.25730  1.0000 0.6217857367
C   C38       1.0  0.00000  0.38610  0.74270  1.0000 0.6217857367
C   C39       1.0  0.00000  0.74270  0.38610  1.0000 0.6217857367
C   C40       1.0  0.35660  0.61390  0.61390  1.0000 0.6217857367
C   C41       1.0  0.25730  0.64340  0.25730  1.0000 0.6217857367
C   C42       1.0  0.74270  0.00000  0.38610  1.0000 0.6217857367
C   C43       1.0  0.38610  1.00000  0.74270  1.0000 0.6217857367
C   C44       1.0  0.61390  0.35660  0.61390  1.0000 0.6217857367
C   C45       1.0  0.25730  0.25730  0.64340  1.0000 0.6217857367
C   C46       1.0  0.38610  0.74270  0.00000  1.0000 0.6217857367
C   C47       1.0  0.74270  0.38610  0.00000  1.0000 0.6217857367
C   C48       1.0  0.61390  0.61390  0.35660  1.0000 0.6217857367
S   S1        1.0  0.75000  0.50000  0.25000  1.0000 1.354752577
S   S2        1.0  0.25000  0.50000  0.75000  1.0000 1.3554218179
S   S3        1.0  0.50000  0.25000  0.75000  1.0000 1.354752577
S   S4        1.0  0.50000  0.75000  0.25000  1.0000 1.354752577
S   S5        1.0  0.25000  0.75000  0.50000  1.0000 1.3554218179
S   S6        1.0  0.75000  0.25000  0.50000  1.0000 1.354752577
N   N1        1.0  0.57166  0.39414  0.44028  1.0000 -0.2145976706
N   N2        1.0  0.95386  0.13138  0.55972  1.0000 -0.2145976706
N   N3        1.0  0.04614  0.60586  0.17752  1.0000 -0.2145976706
N   N4        1.0  0.42834  0.86862  0.82248  1.0000 -0.2145976706
N   N5        1.0  0.44028  0.57166  0.39414  1.0000 -0.2145976706
N   N6        1.0  0.55972  0.95386  0.13138  1.0000 -0.2145976706
N   N7        1.0  0.17752  0.04614  0.60586  1.0000 -0.2145976706
N   N8        1.0  0.82248  0.42834  0.86862  1.0000 -0.2145976706
N   N9        1.0  0.39414  0.44028  0.57166  1.0000 -0.2145976706
N   N10       1.0  0.13138  0.55972  0.95386  1.0000 -0.2145976706
N   N11       1.0  0.60586  0.17752  0.04614  1.0000 -0.2145976706
N   N12       1.0  0.86862  0.82248  0.42834  1.0000 -0.2145976706
N   N13       1.0  0.39414  0.57166  0.44028  1.0000 -0.2145976706
N   N14       1.0  0.13138  0.95386  0.55972  1.0000 -0.2145976706
N   N15       1.0  0.60586  0.04614  0.17752  1.0000 -0.2145976706
N   N16       1.0  0.86862  0.42834  0.82248  1.0000 -0.2145976706
N   N17       1.0  0.57166  0.44028  0.39414  1.0000 -0.2145976706
N   N18       1.0  0.95386  0.55972  0.13138  1.0000 -0.2145976706
N   N19       1.0  0.04614  0.17752  0.60586  1.0000 -0.2145976706
N   N20       1.0  0.42834  0.82248  0.86862  1.0000 -0.2145976706
N   N21       1.0  0.44028  0.39414  0.57166  1.0000 -0.2145976706
N   N22       1.0  0.55972  0.13138  0.95386  1.0000 -0.2145976706
N   N23       1.0  0.17752  0.60586  0.04614  1.0000 -0.2145976706
N   N24       1.0  0.82248  0.86862  0.42834  1.0000 -0.2145976706
N   N25       1.0  0.65108  0.37854  0.37854  1.0000 0.0684036529
N   N26       1.0  0.00000  0.27254  0.62146  1.0000 0.0684036529
N   N27       1.0  0.00000  0.62146  0.27254  1.0000 0.0684036529
N   N28       1.0  0.34892  0.72746  0.72746  1.0000 0.0684036529
N   N29       1.0  0.37854  0.65108  0.37854  1.0000 0.0684036529
N   N30       1.0  0.62146  0.00000  0.27254  1.0000 0.0684036529
N   N31       1.0  0.27254  0.00000  0.62146  1.0000 0.0684036529
N   N32       1.0  0.72746  0.34892  0.72746  1.0000 0.0684036529
N   N33       1.0  0.37854  0.37854  0.65108  1.0000 0.0684036529
N   N34       1.0  0.27254  0.62146  0.00000  1.0000 0.0684036529
N   N35       1.0  0.62146  0.27254  0.00000  1.0000 0.0684036529
N   N36       1.0  0.72746  0.72746  0.34892  1.0000 0.0684036529
O   O1        1.0  0.48640  0.48640  0.48640  1.0000 -0.7322113746
O   O2        1.0  0.00000  0.00000  0.51360  1.0000 -0.7322113746
O   O3        1.0  0.00000  0.51360  0.00000  1.0000 -0.7322113746
O   O4        1.0  0.51360  0.00000  0.00000  1.0000 -0.7322113746
O   O5        1.0  0.56070  0.22075  0.22075  1.0000 -0.532725874
O   O6        1.0  0.00000  0.33995  0.77925  1.0000 -0.532725874
O   O7        1.0  0.00000  0.77925  0.33995  1.0000 -0.532725874
O   O8        1.0  0.43930  0.66005  0.66005  1.0000 -0.532725874
O   O9        1.0  0.22075  0.56070  0.22075  1.0000 -0.532725874
O   O10       1.0  0.77925  0.00000  0.33995  1.0000 -0.532725874
O   O11       1.0  0.33995  0.00000  0.77925  1.0000 -0.532725874
O   O12       1.0  0.66005  0.43930  0.66005  1.0000 -0.532725874
O   O13       1.0  0.22075  0.22075  0.56070  1.0000 -0.532725874
O   O14       1.0  0.33995  0.77925  0.00000  1.0000 -0.532725874
O   O15       1.0  0.77925  0.33995  0.00000  1.0000 -0.532725874
O   O16       1.0  0.66005  0.66005  0.43930  1.0000 -0.532725874
O   O17       1.0  0.68666  0.22753  0.22753  1.0000 -0.5445523097
O   O18       1.0  0.00000  0.45913  0.77247  1.0000 -0.5445523097
O   O19       1.0  0.00000  0.77247  0.45913  1.0000 -0.5445523097
O   O20       1.0  0.31334  0.54087  0.54087  1.0000 -0.5445523097
O   O21       1.0  0.22753  0.68666  0.22753  1.0000 -0.5445523097
O   O22       1.0  0.77247  0.00000  0.45913  1.0000 -0.5445523097
O   O23       1.0  0.45913  0.00000  0.77247  1.0000 -0.5445523097
O   O24       1.0  0.54087  0.31334  0.54087  1.0000 -0.5445523097
O   O25       1.0  0.22753  0.22753  0.68666  1.0000 -0.5445523097
O   O26       1.0  0.45913  0.77247  0.00000  1.0000 -0.5445523097
O   O27       1.0  0.77247  0.45913  0.00000  1.0000 -0.5445523097
O   O28       1.0  0.54087  0.54087  0.31334  1.0000 -0.5445523097
O   O29       1.0  0.37500  0.27040  0.37500  1.0000 -0.6338880443
O   O30       1.0  0.89540  0.00000  0.62500  1.0000 -0.6338880443
O   O31       1.0  0.10460  0.72960  0.10460  1.0000 -0.6338880443
O   O32       1.0  0.62500  0.00000  0.89540  1.0000 -0.6338880443
O   O33       1.0  0.37500  0.37500  0.27040  1.0000 -0.6338880443
O   O34       1.0  0.62500  0.89540  0.00000  1.0000 -0.6338880443
O   O35       1.0  0.10460  0.10460  0.72960  1.0000 -0.6338880443
O   O36       1.0  0.89540  0.62500  0.00000  1.0000 -0.6338880443
O   O37       1.0  0.27040  0.37500  0.37500  1.0000 -0.6338880443
O   O38       1.0  0.00000  0.62500  0.89540  1.0000 -0.6338880443
O   O39       1.0  0.72960  0.10460  0.10460  1.0000 -0.6338880443
O   O40       1.0  0.00000  0.89540  0.62500  1.0000 -0.6338880443
O   O41       1.0  0.78060  0.54834  0.34634  1.0000 -0.676958147
O   O42       1.0  0.79800  0.45166  0.23226  1.0000 -0.676958147
O   O43       1.0  0.76774  0.56574  0.21940  1.0000 -0.676958147
O   O44       1.0  0.65366  0.43426  0.20200  1.0000 -0.676958147
O   O45       1.0  0.21940  0.56574  0.76774  1.0000 -0.676958147
O   O46       1.0  0.20200  0.43426  0.65366  1.0000 -0.676958147
O   O47       1.0  0.34634  0.54834  0.78060  1.0000 -0.676958147
O   O48       1.0  0.23226  0.45166  0.79800  1.0000 -0.676958147
O   O49       1.0  0.54834  0.34634  0.78060  1.0000 -0.676958147
O   O50       1.0  0.45166  0.23226  0.79800  1.0000 -0.676958147
O   O51       1.0  0.56574  0.21940  0.76774  1.0000 -0.676958147
O   O52       1.0  0.43426  0.20200  0.65366  1.0000 -0.676958147
O   O53       1.0  0.56574  0.76774  0.21940  1.0000 -0.676958147
O   O54       1.0  0.43426  0.65366  0.20200  1.0000 -0.676958147
O   O55       1.0  0.54834  0.78060  0.34634  1.0000 -0.676958147
O   O56       1.0  0.45166  0.79800  0.23226  1.0000 -0.676958147
O   O57       1.0  0.34634  0.78060  0.54834  1.0000 -0.676958147
O   O58       1.0  0.23226  0.79800  0.45166  1.0000 -0.676958147
O   O59       1.0  0.21940  0.76774  0.56574  1.0000 -0.676958147
O   O60       1.0  0.20200  0.65366  0.43426  1.0000 -0.676958147
O   O61       1.0  0.76774  0.21940  0.56574  1.0000 -0.676958147
O   O62       1.0  0.65366  0.20200  0.43426  1.0000 -0.676958147
O   O63       1.0  0.78060  0.34634  0.54834  1.0000 -0.676958147
O   O64       1.0  0.79800  0.23226  0.45166  1.0000 -0.676958147
