# DDEC6 charges by PACMAN v1.1 (https://github.com/mtap-research/PACMAN-charge/)
data_2014[CoCe][pcu]3[ION]1
_chemical_formula_sum              "Ce3 Co1 H30 C18 N6 O24"
_cell_length_a       11.918
_cell_length_b       11.918
_cell_length_c       11.918
_cell_angle_alpha    50.6846
_cell_angle_beta     50.6846
_cell_angle_gamma    50.6846

_symmetry_space_group_name_H-M    "P 1"
_symmetry_Int_Tables_number       1

loop_
  _symmetry_equiv_pos_as_xyz
  'x, y, z'

loop_
  _atom_site_type_symbol
  _atom_site_label
  _atom_site_symmetry_multiplicity
  _atom_site_fract_x
  _atom_site_fract_y
  _atom_site_fract_z
  _atom_site_occupancy
  _atom_site_charge
Ce  Ce1       1.0  0.00000  0.00000  0.00000  1.0000 1.85359068
Ce  Ce2       1.0  0.86807  0.86807  0.86807  1.0000 1.9696402081
Ce  Ce3       1.0  0.13193  0.13193  0.13193  1.0000 1.9696402081
Co  Co1       1.0  0.50000  0.50000  0.50000  1.0000 0.7196778186
H   H1        1.0  0.21395  0.43009  0.14850  1.0000 0.1727824338
H   H2        1.0  0.43009  0.14850  0.21395  1.0000 0.1727824338
H   H3        1.0  0.14850  0.21395  0.43009  1.0000 0.1727824338
H   H4        1.0  0.78605  0.56991  0.85150  1.0000 0.1727824338
H   H5        1.0  0.56991  0.85150  0.78605  1.0000 0.1727824338
H   H6        1.0  0.85150  0.78605  0.56991  1.0000 0.1727824338
H   H7        1.0  0.03635  0.46159  0.21960  1.0000 0.1756946423
H   H8        1.0  0.46159  0.21960  0.03635  1.0000 0.1756946423
H   H9        1.0  0.21960  0.03635  0.46159  1.0000 0.1756946423
H   H10       1.0  0.96365  0.53841  0.78040  1.0000 0.1756946423
H   H11       1.0  0.53841  0.78040  0.96365  1.0000 0.1756946423
H   H12       1.0  0.78040  0.96365  0.53841  1.0000 0.1756946423
H   H13       1.0  0.28995  0.40969  0.72240  1.0000 0.3034682401
H   H14       1.0  0.40969  0.72240  0.28995  1.0000 0.3034682401
H   H15       1.0  0.72240  0.28995  0.40969  1.0000 0.3034682401
H   H16       1.0  0.71005  0.59031  0.27760  1.0000 0.3034682401
H   H17       1.0  0.59031  0.27760  0.71005  1.0000 0.3034682401
H   H18       1.0  0.27760  0.71005  0.59031  1.0000 0.3034682401
H   H19       1.0  0.22315  0.55869  0.61080  1.0000 0.2884546894
H   H20       1.0  0.55869  0.61080  0.22315  1.0000 0.2884546894
H   H21       1.0  0.61080  0.22315  0.55869  1.0000 0.2884546894
H   H22       1.0  0.77685  0.44131  0.38920  1.0000 0.2884546894
H   H23       1.0  0.44131  0.38920  0.77685  1.0000 0.2884546894
H   H24       1.0  0.38920  0.77685  0.44131  1.0000 0.2884546894
H   H25       1.0  0.31065  0.41479  0.58530  1.0000 0.2884546894
H   H26       1.0  0.41479  0.58530  0.31065  1.0000 0.2884546894
H   H27       1.0  0.58530  0.31065  0.41479  1.0000 0.2884546894
H   H28       1.0  0.68935  0.58521  0.41470  1.0000 0.2884546894
H   H29       1.0  0.58521  0.41470  0.68935  1.0000 0.2884546894
H   H30       1.0  0.41470  0.68935  0.58521  1.0000 0.2884546894
C   C1        1.0  0.07274  0.66358  0.09429  1.0000 0.6837795504
C   C2        1.0  0.66358  0.09429  0.07274  1.0000 0.6837795504
C   C3        1.0  0.09429  0.07274  0.66358  1.0000 0.6837795504
C   C4        1.0  0.92726  0.33642  0.90571  1.0000 0.6837795504
C   C5        1.0  0.33642  0.90571  0.92726  1.0000 0.6837795504
C   C6        1.0  0.90571  0.92726  0.33642  1.0000 0.6837795504
C   C7        1.0  0.11930  0.49844  0.12695  1.0000 -0.5276799671
C   C8        1.0  0.49844  0.12695  0.11930  1.0000 -0.5276799671
C   C9        1.0  0.12695  0.11930  0.49844  1.0000 -0.5276799671
C   C10       1.0  0.88070  0.50156  0.87305  1.0000 -0.5276799671
C   C11       1.0  0.50156  0.87305  0.88070  1.0000 -0.5276799671
C   C12       1.0  0.87305  0.88070  0.50156  1.0000 -0.5276799671
C   C13       1.0  0.14860  0.48924  0.98865  1.0000 0.66952504
C   C14       1.0  0.48924  0.98865  0.14860  1.0000 0.66952504
C   C15       1.0  0.98865  0.14860  0.48924  1.0000 0.66952504
C   C16       1.0  0.85140  0.51076  0.01135  1.0000 0.66952504
C   C17       1.0  0.51076  0.01135  0.85140  1.0000 0.66952504
C   C18       1.0  0.01135  0.85140  0.51076  1.0000 0.66952504
N   N1        1.0  0.30419  0.46613  0.62124  1.0000 -0.7075963191
N   N2        1.0  0.46613  0.62124  0.30419  1.0000 -0.7075963191
N   N3        1.0  0.62124  0.30419  0.46613  1.0000 -0.7075963191
N   N4        1.0  0.69581  0.53387  0.37876  1.0000 -0.7075963191
N   N5        1.0  0.53387  0.37876  0.69581  1.0000 -0.7075963191
N   N6        1.0  0.37876  0.69581  0.53387  1.0000 -0.7075963191
O   O1        1.0  0.16685  0.69909  0.06970  1.0000 -0.5386804016
O   O2        1.0  0.69909  0.06970  0.16685  1.0000 -0.5386804016
O   O3        1.0  0.06970  0.16685  0.69909  1.0000 -0.5386804016
O   O4        1.0  0.83315  0.30091  0.93030  1.0000 -0.5386804016
O   O5        1.0  0.30091  0.93030  0.83315  1.0000 -0.5386804016
O   O6        1.0  0.93030  0.83315  0.30091  1.0000 -0.5386804016
O   O7        1.0  0.93884  0.76610  0.08640  1.0000 -0.6771290969
O   O8        1.0  0.76610  0.08640  0.93884  1.0000 -0.6771290969
O   O9        1.0  0.08640  0.93884  0.76610  1.0000 -0.6771290969
O   O10       1.0  0.06116  0.23390  0.91360  1.0000 -0.6771290969
O   O11       1.0  0.23390  0.91360  0.06116  1.0000 -0.6771290969
O   O12       1.0  0.91360  0.06116  0.23390  1.0000 -0.6771290969
O   O13       1.0  0.11876  0.61384  0.87403  1.0000 -0.5797717742
O   O14       1.0  0.61384  0.87403  0.11876  1.0000 -0.5797717742
O   O15       1.0  0.87403  0.11876  0.61384  1.0000 -0.5797717742
O   O16       1.0  0.88124  0.38616  0.12597  1.0000 -0.5797717742
O   O17       1.0  0.38616  0.12597  0.88124  1.0000 -0.5797717742
O   O18       1.0  0.12597  0.88124  0.38616  1.0000 -0.5797717742
O   O19       1.0  0.79393  0.64507  0.00638  1.0000 -0.6367265455
O   O20       1.0  0.64507  0.00638  0.79393  1.0000 -0.6367265455
O   O21       1.0  0.00638  0.79393  0.64507  1.0000 -0.6367265455
O   O22       1.0  0.20607  0.35493  0.99362  1.0000 -0.6367265455
O   O23       1.0  0.35493  0.99362  0.20607  1.0000 -0.6367265455
O   O24       1.0  0.99362  0.20607  0.35493  1.0000 -0.6367265455
