# DDEC6 charges by PACMAN v1.1 (https://github.com/mtap-research/PACMAN-charge/)
data_2014[CoLa][pcu]3[ION]1
_chemical_formula_sum              "La3 Co1 H30 C18 N6 O24"
_cell_length_a       11.961
_cell_length_b       11.961
_cell_length_c       11.961
_cell_angle_alpha    50.5323
_cell_angle_beta     50.5323
_cell_angle_gamma    50.5323

_symmetry_space_group_name_H-M    "P 1"
_symmetry_Int_Tables_number       1

loop_
  _symmetry_equiv_pos_as_xyz
  'x, y, z'

loop_
  _atom_site_type_symbol
  _atom_site_label
  _atom_site_symmetry_multiplicity
  _atom_site_fract_x
  _atom_site_fract_y
  _atom_site_fract_z
  _atom_site_occupancy
  _atom_site_charge
La  La1       1.0  0.00000  0.00000  0.00000  1.0000 1.6610374144
La  La2       1.0  0.13168  0.13168  0.13168  1.0000 1.8989801695
La  La3       1.0  0.86832  0.86832  0.86832  1.0000 1.8989801695
Co  Co1       1.0  0.50000  0.50000  0.50000  1.0000 0.7167271069
H   H1        1.0  0.78475  0.54179  0.96080  1.0000 0.1770387879
H   H2        1.0  0.54179  0.96080  0.78475  1.0000 0.1770387879
H   H3        1.0  0.96080  0.78475  0.54179  1.0000 0.1770387879
H   H4        1.0  0.21525  0.45821  0.03920  1.0000 0.1770387879
H   H5        1.0  0.45821  0.03920  0.21525  1.0000 0.1770387879
H   H6        1.0  0.03920  0.21525  0.45821  1.0000 0.1770387879
H   H7        1.0  0.85525  0.57029  0.78530  1.0000 0.17258381
H   H8        1.0  0.57029  0.78530  0.85525  1.0000 0.17258381
H   H9        1.0  0.78530  0.85525  0.57029  1.0000 0.17258381
H   H10       1.0  0.14475  0.42971  0.21470  1.0000 0.17258381
H   H11       1.0  0.42971  0.21470  0.14475  1.0000 0.17258381
H   H12       1.0  0.21470  0.14475  0.42971  1.0000 0.17258381
H   H13       1.0  0.65425  0.54399  0.22470  1.0000 0.2922397197
H   H14       1.0  0.54399  0.22470  0.65425  1.0000 0.2922397197
H   H15       1.0  0.22470  0.65425  0.54399  1.0000 0.2922397197
H   H16       1.0  0.34575  0.45601  0.77530  1.0000 0.2922397197
H   H17       1.0  0.45601  0.77530  0.34575  1.0000 0.2922397197
H   H18       1.0  0.77530  0.34575  0.45601  1.0000 0.2922397197
H   H19       1.0  0.70485  0.37509  0.31390  1.0000 0.2978364567
H   H20       1.0  0.37509  0.31390  0.70485  1.0000 0.2978364567
H   H21       1.0  0.31390  0.70485  0.37509  1.0000 0.2978364567
H   H22       1.0  0.29515  0.62491  0.68610  1.0000 0.2978364567
H   H23       1.0  0.62491  0.68610  0.29515  1.0000 0.2978364567
H   H24       1.0  0.68610  0.29515  0.62491  1.0000 0.2978364567
H   H25       1.0  0.56175  0.46289  0.28760  1.0000 0.2841816833
H   H26       1.0  0.46289  0.28760  0.56175  1.0000 0.2841816833
H   H27       1.0  0.28760  0.56175  0.46289  1.0000 0.2841816833
H   H28       1.0  0.43825  0.53711  0.71240  1.0000 0.2841816833
H   H29       1.0  0.53711  0.71240  0.43825  1.0000 0.2841816833
H   H30       1.0  0.71240  0.43825  0.53711  1.0000 0.2841816833
C   C1        1.0  0.90683  0.33788  0.92416  1.0000 0.6751607349
C   C2        1.0  0.33788  0.92416  0.90683  1.0000 0.6751607349
C   C3        1.0  0.92416  0.90683  0.33788  1.0000 0.6751607349
C   C4        1.0  0.09317  0.66212  0.07584  1.0000 0.6751607349
C   C5        1.0  0.66212  0.07584  0.09317  1.0000 0.6751607349
C   C6        1.0  0.07584  0.09317  0.66212  1.0000 0.6751607349
C   C7        1.0  0.87420  0.50248  0.87868  1.0000 -0.525889785
C   C8        1.0  0.50248  0.87868  0.87420  1.0000 -0.525889785
C   C9        1.0  0.87868  0.87420  0.50248  1.0000 -0.525889785
C   C10       1.0  0.12580  0.49752  0.12132  1.0000 -0.525889785
C   C11       1.0  0.49752  0.12132  0.12580  1.0000 -0.525889785
C   C12       1.0  0.12132  0.12580  0.49752  1.0000 -0.525889785
C   C13       1.0  0.01280  0.51057  0.84983  1.0000 0.6640773705
C   C14       1.0  0.51057  0.84983  0.01280  1.0000 0.6640773705
C   C15       1.0  0.84983  0.01280  0.51057  1.0000 0.6640773705
C   C16       1.0  0.98720  0.48943  0.15017  1.0000 0.6640773705
C   C17       1.0  0.48943  0.15017  0.98720  1.0000 0.6640773705
C   C18       1.0  0.15017  0.98720  0.48943  1.0000 0.6640773705
N   N1        1.0  0.62190  0.46577  0.30479  1.0000 -0.6978357443
N   N2        1.0  0.46577  0.30479  0.62190  1.0000 -0.6978357443
N   N3        1.0  0.30479  0.62190  0.46577  1.0000 -0.6978357443
N   N4        1.0  0.37810  0.53423  0.69521  1.0000 -0.6978357443
N   N5        1.0  0.53423  0.69521  0.37810  1.0000 -0.6978357443
N   N6        1.0  0.69521  0.37810  0.53423  1.0000 -0.6978357443
O   O1        1.0  0.93182  0.30379  0.82901  1.0000 -0.525889785
O   O2        1.0  0.30379  0.82901  0.93182  1.0000 -0.5246391604
O   O3        1.0  0.82901  0.93182  0.30379  1.0000 -0.5246391604
O   O4        1.0  0.06818  0.69621  0.17099  1.0000 -0.5246391604
O   O5        1.0  0.69621  0.17099  0.06818  1.0000 -0.5246391604
O   O6        1.0  0.17099  0.06818  0.69621  1.0000 -0.525889785
O   O7        1.0  0.91365  0.23539  0.05829  1.0000 -0.6500639825
O   O8        1.0  0.23539  0.05829  0.91365  1.0000 -0.6500639825
O   O9        1.0  0.05829  0.91365  0.23539  1.0000 -0.6500639825
O   O10       1.0  0.08635  0.76461  0.94171  1.0000 -0.6500639825
O   O11       1.0  0.76461  0.94171  0.08635  1.0000 -0.6500639825
O   O12       1.0  0.94171  0.08635  0.76461  1.0000 -0.6500639825
O   O13       1.0  0.12643  0.38552  0.88042  1.0000 -0.5809713313
O   O14       1.0  0.38552  0.88042  0.12643  1.0000 -0.5809713313
O   O15       1.0  0.88042  0.12643  0.38552  1.0000 -0.5809713313
O   O16       1.0  0.87357  0.61448  0.11958  1.0000 -0.5809713313
O   O17       1.0  0.61448  0.11958  0.87357  1.0000 -0.5809713313
O   O18       1.0  0.11958  0.87357  0.61448  1.0000 -0.5809713313
O   O19       1.0  0.00802  0.64408  0.79295  1.0000 -0.6125891615
O   O20       1.0  0.64408  0.79295  0.00802  1.0000 -0.6125891615
O   O21       1.0  0.79295  0.00802  0.64408  1.0000 -0.6125891615
O   O22       1.0  0.99198  0.35592  0.20705  1.0000 -0.6125891615
O   O23       1.0  0.35592  0.20705  0.99198  1.0000 -0.6125891615
O   O24       1.0  0.20705  0.99198  0.35592  1.0000 -0.6125891615
