# DDEC6 charges by PACMAN v1.1 (https://github.com/mtap-research/PACMAN-charge/)
data_2014[Cu][rtl]3[ION]1
_chemical_formula_sum              "Cu4 H44 C72 N12 O28"
_cell_length_a       13.615
_cell_length_b       13.533
_cell_length_c       15.653
_cell_angle_alpha    90
_cell_angle_beta     103.918
_cell_angle_gamma    90

_symmetry_space_group_name_H-M    "P 1"
_symmetry_Int_Tables_number       1

loop_
  _symmetry_equiv_pos_as_xyz
  'x, y, z'

loop_
  _atom_site_type_symbol
  _atom_site_label
  _atom_site_symmetry_multiplicity
  _atom_site_fract_x
  _atom_site_fract_y
  _atom_site_fract_z
  _atom_site_occupancy
  _atom_site_charge
Cu  Cu1       1.0  0.47554  0.94242  0.42737  1.0000 0.7855287439
Cu  Cu2       1.0  0.02446  0.44242  0.57263  1.0000 0.7839492506
Cu  Cu3       1.0  0.52446  0.05758  0.57263  1.0000 0.7839492506
Cu  Cu4       1.0  0.97554  0.55758  0.42737  1.0000 0.7855287439
H   H1        1.0  0.73970  0.74190  0.50170  1.0000 0.1415924439
H   H2        1.0  0.76030  0.24190  0.49830  1.0000 0.1415924439
H   H3        1.0  0.26030  0.25810  0.49830  1.0000 0.1415924439
H   H4        1.0  0.23970  0.75810  0.50170  1.0000 0.1415924439
H   H5        1.0  0.88780  0.61120  0.72840  1.0000 0.1306104234
H   H6        1.0  0.61220  0.11120  0.27160  1.0000 0.1306104234
H   H7        1.0  0.11220  0.38880  0.27160  1.0000 0.1306104234
H   H8        1.0  0.38780  0.88880  0.72840  1.0000 0.1306104234
H   H9        1.0  0.69350  0.83550  0.73670  1.0000 0.1415924439
H   H10       1.0  0.80650  0.33550  0.26330  1.0000 0.1415924439
H   H11       1.0  0.30650  0.16450  0.26330  1.0000 0.1415924439
H   H12       1.0  0.19350  0.66450  0.73670  1.0000 0.1415924439
H   H13       1.0  0.80330  0.56030  0.83130  1.0000 0.1199161264
H   H14       1.0  0.69670  0.06030  0.16870  1.0000 0.1199161264
H   H15       1.0  0.19670  0.43970  0.16870  1.0000 0.1199161264
H   H16       1.0  0.30330  0.93970  0.83130  1.0000 0.1199161264
H   H17       1.0  0.83910  0.53360  0.97940  1.0000 0.1415924439
H   H18       1.0  0.66090  0.03360  0.02060  1.0000 0.1415924439
H   H19       1.0  0.16090  0.46640  0.02060  1.0000 0.1415924439
H   H20       1.0  0.33910  0.96640  0.97940  1.0000 0.1415924439
H   H21       1.0  0.86420  0.82550  0.02080  1.0000 0.1497276819
H   H22       1.0  0.63580  0.32550  0.97920  1.0000 0.1497276819
H   H23       1.0  0.13580  0.17450  0.97920  1.0000 0.1497276819
H   H24       1.0  0.36420  0.67450  0.02080  1.0000 0.1497276819
H   H25       1.0  0.83130  0.84980  0.87110  1.0000 0.1199161264
H   H26       1.0  0.66870  0.34980  0.12890  1.0000 0.1199161264
H   H27       1.0  0.16870  0.15020  0.12890  1.0000 0.1199161264
H   H28       1.0  0.33130  0.65020  0.87110  1.0000 0.1199161264
H   H29       1.0  0.90900  0.50760  0.10400  1.0000 0.1306104234
H   H30       1.0  0.59100  0.00760  0.89600  1.0000 0.1306104234
H   H31       1.0  0.09100  0.49240  0.89600  1.0000 0.1306104234
H   H32       1.0  0.40900  0.99240  0.10400  1.0000 0.1306104234
H   H33       1.0  0.94710  0.47750  0.25230  1.0000 0.1049106962
H   H34       1.0  0.55290  0.97750  0.74770  1.0000 0.1049106962
H   H35       1.0  0.05290  0.52250  0.74770  1.0000 0.1049106962
H   H36       1.0  0.44710  0.02250  0.25230  1.0000 0.1049106962
H   H37       1.0  0.92060  0.75720  0.30480  1.0000 0.1199161264
H   H38       1.0  0.57940  0.25720  0.69520  1.0000 0.1199161264
H   H39       1.0  0.07940  0.24280  0.69520  1.0000 0.1199161264
H   H40       1.0  0.42060  0.74280  0.30480  1.0000 0.1199161264
H   H41       1.0  0.87850  0.79570  0.15720  1.0000 0.1306104234
H   H42       1.0  0.62150  0.29570  0.84280  1.0000 0.1306104234
H   H43       1.0  0.12150  0.20430  0.84280  1.0000 0.1306104234
H   H44       1.0  0.37850  0.70430  0.15720  1.0000 0.1306104234
C   C1        1.0  0.70680  0.80010  0.61210  1.0000 0.0105020863
C   C2        1.0  0.79320  0.30010  0.38790  1.0000 0.0105020863
C   C3        1.0  0.29320  0.19990  0.38790  1.0000 0.0105020863
C   C4        1.0  0.20680  0.69990  0.61210  1.0000 0.0105020863
C   C5        1.0  0.75410  0.73680  0.56410  1.0000 -0.1046883741
C   C6        1.0  0.74590  0.23680  0.43590  1.0000 -0.1046883741
C   C7        1.0  0.24590  0.26320  0.43590  1.0000 -0.1046883741
C   C8        1.0  0.25410  0.76320  0.56410  1.0000 -0.106249159
C   C9        1.0  0.82160  0.66700  0.60740  1.0000 0.0010742597
C   C10       1.0  0.67840  0.16700  0.39260  1.0000 0.0010742597
C   C11       1.0  0.17840  0.33300  0.39260  1.0000 0.0010742597
C   C12       1.0  0.32160  0.83300  0.60740  1.0000 0.0010742597
C   C13       1.0  0.84080  0.65890  0.69820  1.0000 -0.1724489869
C   C14       1.0  0.65920  0.15890  0.30180  1.0000 -0.1724489869
C   C15       1.0  0.15920  0.34110  0.30180  1.0000 -0.1724489869
C   C16       1.0  0.34080  0.84110  0.69820  1.0000 -0.1724489869
C   C17       1.0  0.79170  0.71990  0.74440  1.0000 0.1497276819
C   C18       1.0  0.70830  0.21990  0.25560  1.0000 0.1497276819
C   C19       1.0  0.20830  0.28010  0.25560  1.0000 0.1497276819
C   C20       1.0  0.29170  0.78010  0.74440  1.0000 0.1497276819
C   C21       1.0  0.72540  0.79250  0.70370  1.0000 -0.1724489869
C   C22       1.0  0.77460  0.29250  0.29630  1.0000 -0.1724489869
C   C23       1.0  0.27460  0.20750  0.29630  1.0000 -0.1724489869
C   C24       1.0  0.22540  0.70750  0.70370  1.0000 -0.1724489869
C   C25       1.0  0.81600  0.61480  0.87060  1.0000 0.0378579547
C   C26       1.0  0.68400  0.11480  0.12940  1.0000 0.0378579547
C   C27       1.0  0.18400  0.38520  0.12940  1.0000 0.0378579547
C   C28       1.0  0.31600  0.88520  0.87060  1.0000 0.0378579547
C   C29       1.0  0.83800  0.59950  0.95830  1.0000 -0.1870904991
C   C30       1.0  0.66200  0.09950  0.04170  1.0000 -0.1870904991
C   C31       1.0  0.16200  0.40050  0.04170  1.0000 -0.1870904991
C   C32       1.0  0.33800  0.90050  0.95830  1.0000 -0.1870904991
C   C33       1.0  0.85870  0.67490  0.01770  1.0000 0.1199161264
C   C34       1.0  0.64130  0.17490  0.98230  1.0000 0.1199161264
C   C35       1.0  0.14130  0.32510  0.98230  1.0000 0.1199161264
C   C36       1.0  0.35870  0.82510  0.01770  1.0000 0.1199161264
C   C37       1.0  0.85310  0.77010  0.98240  1.0000 -0.1724489869
C   C38       1.0  0.64690  0.27010  0.01760  1.0000 -0.1724489869
C   C39       1.0  0.14690  0.22990  0.01760  1.0000 -0.1724489869
C   C40       1.0  0.35310  0.72990  0.98240  1.0000 -0.1724489869
C   C41       1.0  0.83200  0.78470  0.89400  1.0000 0.0285489543
C   C42       1.0  0.66800  0.28470  0.10600  1.0000 0.0285489543
C   C43       1.0  0.16800  0.21530  0.10600  1.0000 0.0285489543
C   C44       1.0  0.33200  0.71530  0.89400  1.0000 0.0285489543
C   C45       1.0  0.88610  0.65640  0.11380  1.0000 0.1097744231
C   C46       1.0  0.61390  0.15640  0.88620  1.0000 0.1097744231
C   C47       1.0  0.11390  0.34360  0.88620  1.0000 0.1097744231
C   C48       1.0  0.38610  0.84360  0.11380  1.0000 0.1097744231
C   C49       1.0  0.90940  0.56030  0.14420  1.0000 -0.1980589458
C   C50       1.0  0.59060  0.06030  0.85580  1.0000 -0.1980589458
C   C51       1.0  0.09060  0.43970  0.85580  1.0000 -0.1980589458
C   C52       1.0  0.40940  0.93970  0.14420  1.0000 -0.1980589458
C   C53       1.0  0.93280  0.54350  0.23270  1.0000 0.0786534792
C   C54       1.0  0.56720  0.04350  0.76730  1.0000 0.0786534792
C   C55       1.0  0.06720  0.45650  0.76730  1.0000 0.0786534792
C   C56       1.0  0.43280  0.95650  0.23270  1.0000 0.0786534792
C   C57       1.0  0.91720  0.70510  0.26360  1.0000 0.1097744231
C   C58       1.0  0.58280  0.20510  0.73640  1.0000 0.1097744231
C   C59       1.0  0.08280  0.29490  0.73640  1.0000 0.1097744231
C   C60       1.0  0.41720  0.79490  0.26360  1.0000 0.1097744231
C   C61       1.0  0.89190  0.72890  0.17510  1.0000 -0.1793585771
C   C62       1.0  0.60810  0.22890  0.82490  1.0000 -0.1793585771
C   C63       1.0  0.10810  0.27110  0.82490  1.0000 -0.1793585771
C   C64       1.0  0.39190  0.77110  0.17510  1.0000 -0.1793585771
C   C65       1.0  0.63130  0.87380  0.56610  1.0000 0.5670747033
C   C66       1.0  0.86870  0.37380  0.43390  1.0000 0.5670747033
C   C67       1.0  0.36870  0.12620  0.43390  1.0000 0.5670747033
C   C68       1.0  0.13130  0.62620  0.56610  1.0000 0.5670747033
C   C69       1.0  0.87930  0.60300  0.55990  1.0000 0.5670747033
C   C70       1.0  0.62070  0.10300  0.44010  1.0000 0.5670747033
C   C71       1.0  0.12070  0.39700  0.44010  1.0000 0.5670747033
C   C72       1.0  0.37930  0.89700  0.55990  1.0000 0.5670747033
N   N1        1.0  0.93700  0.61440  0.29460  1.0000 -0.2331288882
N   N2        1.0  0.56300  0.11440  0.70540  1.0000 -0.2331288882
N   N3        1.0  0.06300  0.38560  0.70540  1.0000 -0.2331288882
N   N4        1.0  0.43700  0.88560  0.29460  1.0000 -0.2331288882
N   N5        1.0  0.81220  0.70720  0.83890  1.0000 0.0477359391
N   N6        1.0  0.68780  0.20720  0.16110  1.0000 0.0477359391
N   N7        1.0  0.18780  0.29280  0.16110  1.0000 0.0477359391
N   N8        1.0  0.31220  0.79280  0.83890  1.0000 0.0477359391
N   N9        1.0  0.55050  0.54730  0.83870  1.0000 0.6454610473
N   N10       1.0  0.94950  0.04730  0.16130  1.0000 0.6454610473
N   N11       1.0  0.44950  0.45270  0.16130  1.0000 0.6435015447
N   N12       1.0  0.05050  0.95270  0.83870  1.0000 0.6435015447
O   O1        1.0  0.58360  0.85480  0.48890  1.0000 -0.495435571
O   O2        1.0  0.91640  0.35480  0.51110  1.0000 -0.495435571
O   O3        1.0  0.41640  0.14520  0.51110  1.0000 -0.4930568391
O   O4        1.0  0.08360  0.64520  0.48890  1.0000 -0.495435571
O   O5        1.0  0.62330  0.95120  0.60910  1.0000 -0.5259391421
O   O6        1.0  0.87670  0.45120  0.39090  1.0000 -0.5259391421
O   O7        1.0  0.37670  0.04880  0.39090  1.0000 -0.5259391421
O   O8        1.0  0.12330  0.54880  0.60910  1.0000 -0.5259391421
O   O9        1.0  0.92210  0.53030  0.60190  1.0000 -0.5202077382
O   O10       1.0  0.57790  0.03030  0.39810  1.0000 -0.5202077382
O   O11       1.0  0.07790  0.46970  0.39810  1.0000 -0.5202077382
O   O12       1.0  0.42210  0.96970  0.60190  1.0000 -0.5202077382
O   O13       1.0  0.88150  0.62740  0.48270  1.0000 -0.4930568391
O   O14       1.0  0.61850  0.12740  0.51730  1.0000 -0.4930568391
O   O15       1.0  0.11850  0.37260  0.51730  1.0000 -0.4930568391
O   O16       1.0  0.38150  0.87260  0.48270  1.0000 -0.4930568391
O   O17       1.0  0.59340  0.46780  0.85830  1.0000 -0.4121370965
O   O18       1.0  0.46600  0.55920  0.84540  1.0000 -0.3900419005
O   O19       1.0  0.59430  0.61600  0.81120  1.0000 -0.4307840669
O   O20       1.0  0.90660  0.96780  0.14170  1.0000 -0.4155781918
O   O21       1.0  0.03400  0.05920  0.15460  1.0000 -0.3900419005
O   O22       1.0  0.90570  0.11600  0.18880  1.0000 -0.4307840669
O   O23       1.0  0.40660  0.53220  0.14170  1.0000 -0.4121370965
O   O24       1.0  0.53400  0.44080  0.15460  1.0000 -0.3900419005
O   O25       1.0  0.40570  0.38400  0.18880  1.0000 -0.4307840669
O   O26       1.0  0.09340  0.03220  0.85830  1.0000 -0.4121370965
O   O27       1.0  0.96600  0.94080  0.84540  1.0000 -0.3900419005
O   O28       1.0  0.09430  0.88400  0.81120  1.0000 -0.4307840669
