# DDEC6 charges by PACMAN v1.1 (https://github.com/mtap-research/PACMAN-charge/)
data_2014[Zn][ths]3[ION]1
_chemical_formula_sum              "Zn4 H128 C132 N8 O28"
_cell_length_a       14.32
_cell_length_b       8.7789
_cell_length_c       31.073
_cell_angle_alpha    90
_cell_angle_beta     117.136
_cell_angle_gamma    90

_symmetry_space_group_name_H-M    "P 1"
_symmetry_Int_Tables_number       1

loop_
  _symmetry_equiv_pos_as_xyz
  'x, y, z'

loop_
  _atom_site_type_symbol
  _atom_site_label
  _atom_site_symmetry_multiplicity
  _atom_site_fract_x
  _atom_site_fract_y
  _atom_site_fract_z
  _atom_site_occupancy
  _atom_site_charge
Zn  Zn1       1.0  0.73287  0.27056  0.66406  1.0000 0.9255908768
Zn  Zn2       1.0  0.73287  0.22944  0.16406  1.0000 0.9255908768
Zn  Zn3       1.0  0.26713  0.77056  0.83594  1.0000 0.9255908768
Zn  Zn4       1.0  0.26713  0.72944  0.33594  1.0000 0.9255908768
H   H1        1.0  0.10830  0.93400  0.94480  1.0000 0.1198000956
H   H2        1.0  0.10830  0.56600  0.44480  1.0000 0.1198000956
H   H3        1.0  0.12650  0.74060  0.06660  1.0000 0.1198000956
H   H4        1.0  0.12650  0.75940  0.56660  1.0000 0.1198000956
H   H5        1.0  0.84780  0.75630  0.94510  1.0000 0.1198000956
H   H6        1.0  0.84780  0.74370  0.44510  1.0000 0.1198000956
H   H7        1.0  0.90890  0.17250  0.81220  1.0000 0.1198000956
H   H8        1.0  0.90890  0.32750  0.31220  1.0000 0.1198000956
H   H9        1.0  0.99840  0.09140  0.89210  1.0000 0.1126487333
H   H10       1.0  0.99840  0.40860  0.39210  1.0000 0.1126487333
H   H11       1.0  0.79150  0.74440  0.86310  1.0000 0.1198000956
H   H12       1.0  0.79150  0.75560  0.36310  1.0000 0.1198000956
H   H13       1.0  0.69980  0.83030  0.78370  1.0000 0.1198000956
H   H14       1.0  0.69980  0.66970  0.28370  1.0000 0.1198000956
H   H15       1.0  0.44590  0.96720  0.01340  1.0000 0.1198000956
H   H16       1.0  0.44590  0.53280  0.51340  1.0000 0.1198000956
H   H17       1.0  0.28030  0.85540  0.97880  1.0000 0.1307432245
H   H18       1.0  0.28030  0.64460  0.47880  1.0000 0.1307432245
H   H19       1.0  0.24850  0.95880  0.09860  1.0000 0.1198000956
H   H20       1.0  0.24850  0.54120  0.59860  1.0000 0.1198000956
H   H21       1.0  0.41160  0.08010  0.13200  1.0000 0.1198000956
H   H22       1.0  0.41160  0.41990  0.63200  1.0000 0.1198000956
H   H23       1.0  0.96080  0.38660  0.11410  1.0000 0.1198000956
H   H24       1.0  0.96080  0.11340  0.61410  1.0000 0.1198000956
H   H25       1.0  0.04670  0.51380  0.07640  1.0000 0.1198000956
H   H26       1.0  0.04670  0.98620  0.57640  1.0000 0.1198000956
H   H27       1.0  0.78810  0.77470  0.00260  1.0000 0.1198000956
H   H28       1.0  0.78810  0.72530  0.50260  1.0000 0.1198000956
H   H29       1.0  0.70370  0.65020  0.04120  1.0000 0.1198000956
H   H30       1.0  0.70370  0.84980  0.54120  1.0000 0.1198000956
H   H31       1.0  0.76340  0.54530  0.61460  1.0000 0.1811693948
H   H32       1.0  0.76340  0.95470  0.11460  1.0000 0.1811693948
H   H33       1.0  0.75940  0.72020  0.62820  1.0000 0.1673167687
H   H34       1.0  0.75940  0.77980  0.12820  1.0000 0.1673167687
H   H35       1.0  0.86520  0.65060  0.63080  1.0000 0.1486082515
H   H36       1.0  0.86520  0.84940  0.13080  1.0000 0.1486082515
H   H37       1.0  0.91780  0.83790  0.67960  1.0000 0.1198000956
H   H38       1.0  0.91780  0.66210  0.17960  1.0000 0.1198000956
H   H39       1.0  0.89080  0.91230  0.71960  1.0000 0.1398979064
H   H40       1.0  0.89080  0.58770  0.21960  1.0000 0.1398979064
H   H41       1.0  0.00550  0.84530  0.73480  1.0000 0.1398979064
H   H42       1.0  0.00550  0.65470  0.23480  1.0000 0.1398979064
H   H43       1.0  0.90250  0.55120  0.77620  1.0000 0.1398979064
H   H44       1.0  0.90250  0.94880  0.27620  1.0000 0.1398979064
H   H45       1.0  0.00760  0.64700  0.79030  1.0000 0.1398979064
H   H46       1.0  0.00760  0.85300  0.29030  1.0000 0.1398979064
H   H47       1.0  0.90510  0.72970  0.78720  1.0000 0.1307432245
H   H48       1.0  0.90510  0.77030  0.28720  1.0000 0.1307432245
H   H49       1.0  0.89170  0.43400  0.55520  1.0000 0.1198000956
H   H50       1.0  0.89170  0.06600  0.05520  1.0000 0.1198000956
H   H51       1.0  0.87350  0.24060  0.43340  1.0000 0.1198000956
H   H52       1.0  0.87350  0.25940  0.93340  1.0000 0.1198000956
H   H53       1.0  0.15220  0.25630  0.55490  1.0000 0.1198000956
H   H54       1.0  0.15220  0.24370  0.05490  1.0000 0.1198000956
H   H55       1.0  0.09110  0.67250  0.68780  1.0000 0.1198000956
H   H56       1.0  0.09110  0.82750  0.18780  1.0000 0.1198000956
H   H57       1.0  0.00160  0.59140  0.60790  1.0000 0.1126487333
H   H58       1.0  0.00160  0.90860  0.10790  1.0000 0.1126487333
H   H59       1.0  0.20850  0.24440  0.63690  1.0000 0.1198000956
H   H60       1.0  0.20850  0.25560  0.13690  1.0000 0.1198000956
H   H61       1.0  0.30020  0.33030  0.71630  1.0000 0.1198000956
H   H62       1.0  0.30020  0.16970  0.21630  1.0000 0.1198000956
H   H63       1.0  0.55410  0.46720  0.48660  1.0000 0.1198000956
H   H64       1.0  0.55410  0.03280  0.98660  1.0000 0.1198000956
H   H65       1.0  0.71970  0.35540  0.52120  1.0000 0.1307432245
H   H66       1.0  0.71970  0.14460  0.02120  1.0000 0.1307432245
H   H67       1.0  0.75150  0.45880  0.40140  1.0000 0.1198000956
H   H68       1.0  0.75150  0.04120  0.90140  1.0000 0.1198000956
H   H69       1.0  0.58840  0.58010  0.36800  1.0000 0.1198000956
H   H70       1.0  0.58840  0.91990  0.86800  1.0000 0.1198000956
H   H71       1.0  0.03920  0.88660  0.38590  1.0000 0.1198000956
H   H72       1.0  0.03920  0.61340  0.88590  1.0000 0.1198000956
H   H73       1.0  0.95330  0.01380  0.42360  1.0000 0.1198000956
H   H74       1.0  0.95330  0.48620  0.92360  1.0000 0.1198000956
H   H75       1.0  0.21190  0.27470  0.49740  1.0000 0.1198000956
H   H76       1.0  0.21190  0.22530  0.99740  1.0000 0.1198000956
H   H77       1.0  0.29630  0.15020  0.45880  1.0000 0.1198000956
H   H78       1.0  0.29630  0.34980  0.95880  1.0000 0.1198000956
H   H79       1.0  0.23660  0.04530  0.88540  1.0000 0.1811693948
H   H80       1.0  0.23660  0.45470  0.38540  1.0000 0.1811693948
H   H81       1.0  0.24060  0.22020  0.87180  1.0000 0.1673167687
H   H82       1.0  0.24060  0.27980  0.37180  1.0000 0.1673167687
H   H83       1.0  0.13480  0.15060  0.86920  1.0000 0.1486082515
H   H84       1.0  0.13480  0.34940  0.36920  1.0000 0.1486082515
H   H85       1.0  0.08220  0.33790  0.82040  1.0000 0.1198000956
H   H86       1.0  0.08220  0.16210  0.32040  1.0000 0.1198000956
H   H87       1.0  0.10920  0.41230  0.78040  1.0000 0.1398979064
H   H88       1.0  0.10920  0.08770  0.28040  1.0000 0.1398979064
H   H89       1.0  0.99450  0.34530  0.76520  1.0000 0.1398979064
H   H90       1.0  0.99450  0.15470  0.26520  1.0000 0.1398979064
H   H91       1.0  0.09750  0.05120  0.72380  1.0000 0.1398979064
H   H92       1.0  0.09750  0.44880  0.22380  1.0000 0.1398979064
H   H93       1.0  0.99240  0.14700  0.70970  1.0000 0.1398979064
H   H94       1.0  0.99240  0.35300  0.20970  1.0000 0.1398979064
H   H95       1.0  0.09490  0.22970  0.71280  1.0000 0.1307432245
H   H96       1.0  0.09490  0.27030  0.21280  1.0000 0.1307432245
H   H97       1.0  0.46640  0.22080  0.40820  1.0000 0.1398979064
H   H98       1.0  0.43290  0.20330  0.35180  1.0000 0.1486082515
H   H99       1.0  0.55400  0.22310  0.38970  1.0000 0.1198000956
H   H100      1.0  0.55620  0.00470  0.46300  1.0000 0.1486082515
H   H101      1.0  0.64510  0.01090  0.44540  1.0000 0.1307432245
H   H102      1.0  0.58270  0.85570  0.44100  1.0000 0.1307432245
H   H103      1.0  0.42910  0.96720  0.38400  1.0000 0.2783185583
H   H104      1.0  0.51750  0.96970  0.36600  1.0000 0.262086485
H   H105      1.0  0.53360  0.72080  0.09180  1.0000 0.1398979064
H   H106      1.0  0.56710  0.70330  0.14820  1.0000 0.1486082515
H   H107      1.0  0.44600  0.72310  0.11030  1.0000 0.1198000956
H   H108      1.0  0.44380  0.50470  0.03700  1.0000 0.1486082515
H   H109      1.0  0.35490  0.51090  0.05460  1.0000 0.1307432245
H   H110      1.0  0.41730  0.35570  0.05900  1.0000 0.1307432245
H   H111      1.0  0.57090  0.46720  0.11600  1.0000 0.2783185583
H   H112      1.0  0.48250  0.46970  0.13400  1.0000 0.262086485
H   H113      1.0  0.53360  0.77920  0.59180  1.0000 0.1398979064
H   H114      1.0  0.56710  0.79670  0.64820  1.0000 0.1486082515
H   H115      1.0  0.44600  0.77690  0.61030  1.0000 0.1198000956
H   H116      1.0  0.44380  0.99530  0.53700  1.0000 0.1486082515
H   H117      1.0  0.35490  0.98910  0.55460  1.0000 0.1307432245
H   H118      1.0  0.41730  0.14430  0.55900  1.0000 0.1307432245
H   H119      1.0  0.57090  0.03280  0.61600  1.0000 0.2783185583
H   H120      1.0  0.48250  0.03030  0.63400  1.0000 0.262086485
H   H121      1.0  0.46640  0.27920  0.90820  1.0000 0.1398979064
H   H122      1.0  0.43290  0.29670  0.85180  1.0000 0.1486082515
H   H123      1.0  0.55400  0.27690  0.88970  1.0000 0.1198000956
H   H124      1.0  0.55620  0.49530  0.96300  1.0000 0.1486082515
H   H125      1.0  0.64510  0.48910  0.94540  1.0000 0.1307432245
H   H126      1.0  0.58270  0.64430  0.94100  1.0000 0.1307432245
H   H127      1.0  0.42910  0.53280  0.88400  1.0000 0.2783185583
H   H128      1.0  0.51750  0.53030  0.86600  1.0000 0.262086485
C   C1        1.0  0.96773  0.85448  0.93669  1.0000 0.0826357607
C   C2        1.0  0.96773  0.64552  0.43669  1.0000 0.0826357607
C   C3        1.0  0.07512  0.88500  0.96145  1.0000 -0.1883294914
C   C4        1.0  0.07512  0.61500  0.46145  1.0000 -0.1883294914
C   C5        1.0  0.13484  0.84551  0.00985  1.0000 0.0870750513
C   C6        1.0  0.13484  0.65449  0.50985  1.0000 0.0870750513
C   C7        1.0  0.08636  0.76924  0.03370  1.0000 -0.1883294914
C   C8        1.0  0.08636  0.73076  0.53370  1.0000 -0.1883294914
C   C9        1.0  0.97919  0.73445  0.00967  1.0000 0.0826357607
C   C10       1.0  0.97919  0.76555  0.50967  1.0000 0.0826357607
C   C11       1.0  0.92069  0.77843  0.96139  1.0000 -0.1979499418
C   C12       1.0  0.92069  0.72157  0.46139  1.0000 -0.1979499418
C   C13       1.0  0.74035  0.05610  0.73706  1.0000 0.5578970354
C   C14       1.0  0.74035  0.44390  0.23706  1.0000 0.5578970354
C   C15       1.0  0.79646  0.00706  0.78947  1.0000 -0.0307105627
C   C16       1.0  0.79646  0.49294  0.28947  1.0000 -0.0307105627
C   C17       1.0  0.88514  0.08516  0.82238  1.0000 -0.0914986863
C   C18       1.0  0.88514  0.41484  0.32238  1.0000 -0.0914986863
C   C19       1.0  0.93879  0.03593  0.86990  1.0000 -0.1571621059
C   C20       1.0  0.93879  0.46407  0.36990  1.0000 -0.1571621059
C   C21       1.0  0.90693  0.90584  0.88593  1.0000 0.0682388473
C   C22       1.0  0.90693  0.59416  0.38593  1.0000 0.0682388473
C   C23       1.0  0.81615  0.83096  0.85295  1.0000 -0.1571621059
C   C24       1.0  0.81615  0.66904  0.35295  1.0000 -0.1571621059
C   C25       1.0  0.76170  0.88189  0.80550  1.0000 -0.101697316
C   C26       1.0  0.76170  0.61811  0.30550  1.0000 -0.101697316
C   C27       1.0  0.55296  0.10724  0.09725  1.0000 0.5499181192
C   C28       1.0  0.55296  0.39276  0.59725  1.0000 0.5499181192
C   C29       1.0  0.44524  0.03707  0.07589  1.0000 -0.0307105627
C   C30       1.0  0.44524  0.46293  0.57589  1.0000 -0.0307105627
C   C31       1.0  0.40514  0.96806  0.03046  1.0000 -0.0914986863
C   C32       1.0  0.40514  0.53194  0.53046  1.0000 -0.0914986863
C   C33       1.0  0.30656  0.90068  0.00987  1.0000 -0.1395319697
C   C34       1.0  0.30656  0.59932  0.50987  1.0000 -0.1395319697
C   C35       1.0  0.24555  0.89879  0.03457  1.0000 0.0619421717
C   C36       1.0  0.24555  0.60121  0.53457  1.0000 0.0619421717
C   C37       1.0  0.28746  0.96322  0.08076  1.0000 -0.1571621059
C   C38       1.0  0.28746  0.53678  0.58076  1.0000 -0.1571621059
C   C39       1.0  0.38542  0.03391  0.10101  1.0000 -0.1147226054
C   C40       1.0  0.38542  0.46609  0.60101  1.0000 -0.1147226054
C   C41       1.0  0.76718  0.42709  0.10603  1.0000 0.5499181192
C   C42       1.0  0.76718  0.07291  0.60603  1.0000 0.5499181192
C   C43       1.0  0.82329  0.50492  0.08122  1.0000 -0.0307105627
C   C44       1.0  0.82329  0.99508  0.58122  1.0000 -0.0307105627
C   C45       1.0  0.92567  0.46536  0.09152  1.0000 -0.101697316
C   C46       1.0  0.92567  0.03464  0.59152  1.0000 -0.101697316
C   C47       1.0  0.97666  0.54085  0.06877  1.0000 -0.1525671628
C   C48       1.0  0.97666  0.95915  0.56877  1.0000 -0.1525671628
C   C49       1.0  0.92619  0.65576  0.03496  1.0000 0.0682388473
C   C50       1.0  0.92619  0.84424  0.53496  1.0000 0.0682388473
C   C51       1.0  0.82341  0.69588  0.02514  1.0000 -0.1525671628
C   C52       1.0  0.82341  0.80412  0.52514  1.0000 -0.1525671628
C   C53       1.0  0.77313  0.62146  0.04811  1.0000 -0.0914986863
C   C54       1.0  0.77313  0.87854  0.54811  1.0000 -0.0914986863
C   C55       1.0  0.83881  0.58500  0.68744  1.0000 0.5353816193
C   C56       1.0  0.83881  0.91500  0.18744  1.0000 0.5353816193
C   C57       1.0  0.80368  0.62910  0.63581  1.0000 -0.6036762554
C   C58       1.0  0.80368  0.87090  0.13581  1.0000 -0.6036762554
C   C59       1.0  0.93050  0.83190  0.71333  1.0000 -0.3402853754
C   C60       1.0  0.93050  0.66810  0.21333  1.0000 -0.3402853754
C   C61       1.0  0.93080  0.65007  0.77317  1.0000 -0.3402853754
C   C62       1.0  0.93080  0.84993  0.27317  1.0000 -0.3402853754
C   C63       1.0  0.03227  0.35448  0.56331  1.0000 0.0826357607
C   C64       1.0  0.03227  0.14552  0.06331  1.0000 0.0826357607
C   C65       1.0  0.92488  0.38500  0.53855  1.0000 -0.1883294914
C   C66       1.0  0.92488  0.11500  0.03855  1.0000 -0.1883294914
C   C67       1.0  0.86516  0.34551  0.49015  1.0000 0.0870750513
C   C68       1.0  0.86516  0.15449  0.99015  1.0000 0.0870750513
C   C69       1.0  0.91364  0.26924  0.46630  1.0000 -0.1883294914
C   C70       1.0  0.91364  0.23076  0.96630  1.0000 -0.1883294914
C   C71       1.0  0.02081  0.23445  0.49033  1.0000 0.0826357607
C   C72       1.0  0.02081  0.26555  0.99033  1.0000 0.0826357607
C   C73       1.0  0.07931  0.27843  0.53861  1.0000 -0.1979499418
C   C74       1.0  0.07931  0.22157  0.03861  1.0000 -0.1979499418
C   C75       1.0  0.25965  0.55610  0.76294  1.0000 0.5578970354
C   C76       1.0  0.25965  0.94390  0.26294  1.0000 0.5578970354
C   C77       1.0  0.20354  0.50706  0.71053  1.0000 -0.0307105627
C   C78       1.0  0.20354  0.99294  0.21053  1.0000 -0.0307105627
C   C79       1.0  0.11486  0.58516  0.67762  1.0000 -0.0914986863
C   C80       1.0  0.11486  0.91484  0.17762  1.0000 -0.0914986863
C   C81       1.0  0.06121  0.53593  0.63010  1.0000 -0.1571621059
C   C82       1.0  0.06121  0.96407  0.13010  1.0000 -0.1571621059
C   C83       1.0  0.09307  0.40584  0.61407  1.0000 0.0682388473
C   C84       1.0  0.09307  0.09416  0.11407  1.0000 0.0682388473
C   C85       1.0  0.18385  0.33096  0.64705  1.0000 -0.1571621059
C   C86       1.0  0.18385  0.16904  0.14705  1.0000 -0.1571621059
C   C87       1.0  0.23830  0.38189  0.69450  1.0000 -0.101697316
C   C88       1.0  0.23830  0.11811  0.19450  1.0000 -0.101697316
C   C89       1.0  0.44704  0.60724  0.40275  1.0000 0.5499181192
C   C90       1.0  0.44704  0.89276  0.90275  1.0000 0.5499181192
C   C91       1.0  0.55476  0.53707  0.42411  1.0000 -0.0307105627
C   C92       1.0  0.55476  0.96293  0.92411  1.0000 -0.0307105627
C   C93       1.0  0.59486  0.46806  0.46954  1.0000 -0.0914986863
C   C94       1.0  0.59486  0.03194  0.96954  1.0000 -0.0914986863
C   C95       1.0  0.69344  0.40068  0.49013  1.0000 -0.1395319697
C   C96       1.0  0.69344  0.09932  0.99013  1.0000 -0.1395319697
C   C97       1.0  0.75445  0.39879  0.46543  1.0000 0.0619421717
C   C98       1.0  0.75445  0.10121  0.96543  1.0000 0.0619421717
C   C99       1.0  0.71254  0.46322  0.41924  1.0000 -0.1571621059
C   C100      1.0  0.71254  0.03678  0.91924  1.0000 -0.1571621059
C   C101      1.0  0.61458  0.53391  0.39899  1.0000 -0.1147226054
C   C102      1.0  0.61458  0.96609  0.89899  1.0000 -0.1147226054
C   C103      1.0  0.23282  0.92709  0.39397  1.0000 0.5499181192
C   C104      1.0  0.23282  0.57291  0.89397  1.0000 0.5499181192
C   C105      1.0  0.17671  0.00492  0.41878  1.0000 -0.0307105627
C   C106      1.0  0.17671  0.49508  0.91878  1.0000 -0.0307105627
C   C107      1.0  0.07433  0.96536  0.40848  1.0000 -0.101697316
C   C108      1.0  0.07433  0.53464  0.90848  1.0000 -0.101697316
C   C109      1.0  0.02334  0.04085  0.43123  1.0000 -0.1525671628
C   C110      1.0  0.02334  0.45915  0.93123  1.0000 -0.1525671628
C   C111      1.0  0.07381  0.15576  0.46504  1.0000 0.0682388473
C   C112      1.0  0.07381  0.34424  0.96504  1.0000 0.0682388473
C   C113      1.0  0.17659  0.19588  0.47486  1.0000 -0.1525671628
C   C114      1.0  0.17659  0.30412  0.97486  1.0000 -0.1525671628
C   C115      1.0  0.22687  0.12146  0.45189  1.0000 -0.0914986863
C   C116      1.0  0.22687  0.37854  0.95189  1.0000 -0.0914986863
C   C117      1.0  0.16119  0.08500  0.81256  1.0000 0.5353816193
C   C118      1.0  0.16119  0.41500  0.31256  1.0000 0.5353816193
C   C119      1.0  0.19632  0.12910  0.86419  1.0000 -0.6036762554
C   C120      1.0  0.19632  0.37090  0.36419  1.0000 -0.6036762554
C   C121      1.0  0.06950  0.33190  0.78667  1.0000 -0.3402853754
C   C122      1.0  0.06950  0.16810  0.28667  1.0000 -0.3402853754
C   C123      1.0  0.06920  0.15007  0.72683  1.0000 -0.3402853754
C   C124      1.0  0.06920  0.34993  0.22683  1.0000 -0.3402853754
C   C125      1.0  0.48684  0.17880  0.38452  1.0000 -0.2913192469
C   C126      1.0  0.57705  0.96700  0.43898  1.0000 -0.2913192469
C   C127      1.0  0.51316  0.67880  0.11548  1.0000 -0.2913192469
C   C128      1.0  0.42295  0.46700  0.06102  1.0000 -0.2913192469
C   C129      1.0  0.51316  0.82120  0.61548  1.0000 -0.2913192469
C   C130      1.0  0.42295  0.03300  0.56102  1.0000 -0.2913192469
C   C131      1.0  0.48684  0.32120  0.88452  1.0000 -0.2913192469
C   C132      1.0  0.57705  0.53300  0.93898  1.0000 -0.2913192469
N   N1        1.0  0.89671  0.68334  0.72215  1.0000 -0.0070330124
N   N2        1.0  0.89671  0.81666  0.22215  1.0000 -0.0070330124
N   N3        1.0  0.10329  0.18334  0.77785  1.0000 -0.0070330124
N   N4        1.0  0.10329  0.31666  0.27785  1.0000 -0.0070330124
N   N5        1.0  0.49767  0.01169  0.39029  1.0000 -0.101697316
N   N6        1.0  0.50233  0.51169  0.10971  1.0000 -0.101697316
N   N7        1.0  0.50233  0.98831  0.60971  1.0000 -0.101697316
N   N8        1.0  0.49767  0.48831  0.89029  1.0000 -0.101697316
O   O1        1.0  0.81378  0.45953  0.69828  1.0000 -0.5193774659
O   O2        1.0  0.81378  0.04047  0.19828  1.0000 -0.5193774659
O   O3        1.0  0.77955  0.17428  0.72725  1.0000 -0.5679420192
O   O4        1.0  0.77955  0.32572  0.22725  1.0000 -0.5679420192
O   O5        1.0  0.66482  0.98226  0.70809  1.0000 -0.5611892227
O   O6        1.0  0.66482  0.51774  0.20809  1.0000 -0.5611892227
O   O7        1.0  0.60795  0.09222  0.07642  1.0000 -0.5434661467
O   O8        1.0  0.60795  0.40778  0.57642  1.0000 -0.5434661467
O   O9        1.0  0.58325  0.17992  0.13764  1.0000 -0.5793835033
O   O10       1.0  0.58325  0.32008  0.63764  1.0000 -0.5793835033
O   O11       1.0  0.81413  0.31395  0.13337  1.0000 -0.5611892227
O   O12       1.0  0.81413  0.18605  0.63337  1.0000 -0.5611892227
O   O13       1.0  0.68075  0.47679  0.09958  1.0000 -0.5526308376
O   O14       1.0  0.68075  0.02321  0.59958  1.0000 -0.5526308376
O   O15       1.0  0.18622  0.95953  0.80172  1.0000 -0.5193774659
O   O16       1.0  0.18622  0.54047  0.30172  1.0000 -0.5193774659
O   O17       1.0  0.22045  0.67428  0.77275  1.0000 -0.5679420192
O   O18       1.0  0.22045  0.82572  0.27275  1.0000 -0.5679420192
O   O19       1.0  0.33518  0.48226  0.79191  1.0000 -0.5611892227
O   O20       1.0  0.33518  0.01774  0.29191  1.0000 -0.5611892227
O   O21       1.0  0.39205  0.59222  0.42358  1.0000 -0.5434661467
O   O22       1.0  0.39205  0.90778  0.92358  1.0000 -0.5434661467
O   O23       1.0  0.41675  0.67992  0.36236  1.0000 -0.5793835033
O   O24       1.0  0.41675  0.82008  0.86236  1.0000 -0.5793835033
O   O25       1.0  0.18587  0.81395  0.36663  1.0000 -0.5611892227
O   O26       1.0  0.18587  0.68605  0.86663  1.0000 -0.5611892227
O   O27       1.0  0.31925  0.97679  0.40042  1.0000 -0.5526308376
O   O28       1.0  0.31925  0.52321  0.90042  1.0000 -0.5526308376
