# DDEC6 charges by PACMAN v1.1 (https://github.com/mtap-research/PACMAN-charge/)
data_2014[CoPr][pcu]3[ION]1
_chemical_formula_sum              "Pr3 Co1 H30 C18 N6 O24"
_cell_length_a       11.8658
_cell_length_b       11.8658
_cell_length_c       11.8658
_cell_angle_alpha    50.815
_cell_angle_beta     50.815
_cell_angle_gamma    50.815

_symmetry_space_group_name_H-M    "P 1"
_symmetry_Int_Tables_number       1

loop_
  _symmetry_equiv_pos_as_xyz
  'x, y, z'

loop_
  _atom_site_type_symbol
  _atom_site_label
  _atom_site_symmetry_multiplicity
  _atom_site_fract_x
  _atom_site_fract_y
  _atom_site_fract_z
  _atom_site_occupancy
  _atom_site_charge
Pr  Pr1       1.0  0.00000  0.00000  0.00000  1.0000 2.0337137178
Pr  Pr2       1.0  0.13198  0.13198  0.13198  1.0000 2.1231079296
Pr  Pr3       1.0  0.86802  0.86802  0.86802  1.0000 2.1231079296
Co  Co1       1.0  0.50000  0.50000  0.50000  1.0000 0.7170537905
H   H1        1.0  0.84995  0.56929  0.78770  1.0000 0.1783670344
H   H2        1.0  0.56929  0.78770  0.84995  1.0000 0.1783670344
H   H3        1.0  0.78770  0.84995  0.56929  1.0000 0.1783670344
H   H4        1.0  0.15005  0.43071  0.21230  1.0000 0.1783670344
H   H5        1.0  0.43071  0.21230  0.15005  1.0000 0.1783670344
H   H6        1.0  0.21230  0.15005  0.43071  1.0000 0.1783670344
H   H7        1.0  0.77915  0.53779  0.96560  1.0000 0.1783670344
H   H8        1.0  0.53779  0.96560  0.77915  1.0000 0.1783670344
H   H9        1.0  0.96560  0.77915  0.53779  1.0000 0.1783670344
H   H10       1.0  0.22085  0.46221  0.03440  1.0000 0.1783670344
H   H11       1.0  0.46221  0.03440  0.22085  1.0000 0.1783670344
H   H12       1.0  0.03440  0.22085  0.46221  1.0000 0.1783670344
H   H13       1.0  0.65325  0.54569  0.22340  1.0000 0.29865393
H   H14       1.0  0.54569  0.22340  0.65325  1.0000 0.29865393
H   H15       1.0  0.22340  0.65325  0.54569  1.0000 0.29865393
H   H16       1.0  0.34675  0.45431  0.77660  1.0000 0.29865393
H   H17       1.0  0.45431  0.77660  0.34675  1.0000 0.29865393
H   H18       1.0  0.77660  0.34675  0.45431  1.0000 0.29865393
H   H19       1.0  0.70545  0.37619  0.31190  1.0000 0.29865393
H   H20       1.0  0.37619  0.31190  0.70545  1.0000 0.29865393
H   H21       1.0  0.31190  0.70545  0.37619  1.0000 0.29865393
H   H22       1.0  0.29455  0.62381  0.68810  1.0000 0.29865393
H   H23       1.0  0.62381  0.68810  0.29455  1.0000 0.29865393
H   H24       1.0  0.68810  0.29455  0.62381  1.0000 0.29865393
H   H25       1.0  0.56135  0.46289  0.28620  1.0000 0.2815973059
H   H26       1.0  0.46289  0.28620  0.56135  1.0000 0.2815973059
H   H27       1.0  0.28620  0.56135  0.46289  1.0000 0.2815973059
H   H28       1.0  0.43865  0.53711  0.71380  1.0000 0.2815973059
H   H29       1.0  0.53711  0.71380  0.43865  1.0000 0.2815973059
H   H30       1.0  0.71380  0.43865  0.53711  1.0000 0.2815973059
C   C1        1.0  0.90562  0.33485  0.92921  1.0000 0.6951829389
C   C2        1.0  0.33485  0.92921  0.90562  1.0000 0.6951829389
C   C3        1.0  0.92921  0.90562  0.33485  1.0000 0.6951829389
C   C4        1.0  0.09438  0.66515  0.07079  1.0000 0.6951829389
C   C5        1.0  0.66515  0.07079  0.09438  1.0000 0.6951829389
C   C6        1.0  0.07079  0.09438  0.66515  1.0000 0.6951829389
C   C7        1.0  0.87191  0.50111  0.88246  1.0000 -0.5328824325
C   C8        1.0  0.50111  0.88246  0.87191  1.0000 -0.5328824325
C   C9        1.0  0.88246  0.87191  0.50111  1.0000 -0.5328824325
C   C10       1.0  0.12809  0.49889  0.11754  1.0000 -0.5328824325
C   C11       1.0  0.49889  0.11754  0.12809  1.0000 -0.5328824325
C   C12       1.0  0.11754  0.12809  0.49889  1.0000 -0.5328824325
C   C13       1.0  0.01083  0.51085  0.85266  1.0000 0.6884063975
C   C14       1.0  0.51085  0.85266  0.01083  1.0000 0.6884063975
C   C15       1.0  0.85266  0.01083  0.51085  1.0000 0.6884063975
C   C16       1.0  0.98917  0.48915  0.14734  1.0000 0.6884063975
C   C17       1.0  0.48915  0.14734  0.98917  1.0000 0.6884063975
C   C18       1.0  0.14734  0.98917  0.48915  1.0000 0.6884063975
N   N1        1.0  0.62170  0.46665  0.30348  1.0000 -0.6965030635
N   N2        1.0  0.46665  0.30348  0.62170  1.0000 -0.6965030635
N   N3        1.0  0.30348  0.62170  0.46665  1.0000 -0.6965030635
N   N4        1.0  0.37830  0.53335  0.69652  1.0000 -0.6965030635
N   N5        1.0  0.53335  0.69652  0.37830  1.0000 -0.6965030635
N   N6        1.0  0.69652  0.37830  0.53335  1.0000 -0.6965030635
O   O1        1.0  0.93006  0.29913  0.83474  1.0000 -0.5614379847
O   O2        1.0  0.29913  0.83474  0.93006  1.0000 -0.5614379847
O   O3        1.0  0.83474  0.93006  0.29913  1.0000 -0.5614379847
O   O4        1.0  0.06994  0.70087  0.16526  1.0000 -0.5614379847
O   O5        1.0  0.70087  0.16526  0.06994  1.0000 -0.5614379847
O   O6        1.0  0.16526  0.06994  0.70087  1.0000 -0.5614379847
O   O7        1.0  0.91373  0.23257  0.06334  1.0000 -0.7194799189
O   O8        1.0  0.23257  0.06334  0.91373  1.0000 -0.7194799189
O   O9        1.0  0.06334  0.91373  0.23257  1.0000 -0.7194799189
O   O10       1.0  0.08627  0.76743  0.93666  1.0000 -0.7194799189
O   O11       1.0  0.76743  0.93666  0.08627  1.0000 -0.7194799189
O   O12       1.0  0.93666  0.08627  0.76743  1.0000 -0.7194799189
O   O13       1.0  0.12538  0.38587  0.88301  1.0000 -0.6153044109
O   O14       1.0  0.38587  0.88301  0.12538  1.0000 -0.6153044109
O   O15       1.0  0.88301  0.12538  0.38587  1.0000 -0.6153044109
O   O16       1.0  0.87462  0.61413  0.11699  1.0000 -0.6153044109
O   O17       1.0  0.61413  0.11699  0.87462  1.0000 -0.6153044109
O   O18       1.0  0.11699  0.87462  0.61413  1.0000 -0.6153044109
O   O19       1.0  0.00574  0.64569  0.79458  1.0000 -0.6597846552
O   O20       1.0  0.64569  0.79458  0.00574  1.0000 -0.6597846552
O   O21       1.0  0.79458  0.00574  0.64569  1.0000 -0.6597846552
O   O22       1.0  0.99426  0.35431  0.20542  1.0000 -0.6597846552
O   O23       1.0  0.35431  0.20542  0.99426  1.0000 -0.6597846552
O   O24       1.0  0.20542  0.99426  0.35431  1.0000 -0.6597846552
