# DDEC6 charges by PACMAN v1.1 (https://github.com/mtap-research/PACMAN-charge/)
data_2014[Zn][rtl]3[ION]1
_chemical_formula_sum              "Zn4 H44 C44 N4 O24"
_cell_length_a       9.4299
_cell_length_b       16.49
_cell_length_c       13.6949
_cell_angle_alpha    90
_cell_angle_beta     125.294
_cell_angle_gamma    90

_symmetry_space_group_name_H-M    "P 1"
_symmetry_Int_Tables_number       1

loop_
  _symmetry_equiv_pos_as_xyz
  'x, y, z'

loop_
  _atom_site_type_symbol
  _atom_site_label
  _atom_site_symmetry_multiplicity
  _atom_site_fract_x
  _atom_site_fract_y
  _atom_site_fract_z
  _atom_site_occupancy
  _atom_site_charge
Zn  Zn1       1.0  0.31751  0.07754  0.95088  1.0000 0.9274519762
Zn  Zn2       1.0  0.68249  0.57754  0.54912  1.0000 0.9274519762
Zn  Zn3       1.0  0.68249  0.92246  0.04912  1.0000 0.9274519762
Zn  Zn4       1.0  0.31751  0.42246  0.45088  1.0000 0.9274519762
H   H1        1.0  0.73600  0.24920  0.16700  1.0000 0.1300802753
H   H2        1.0  0.26400  0.74920  0.33300  1.0000 0.1300802753
H   H3        1.0  0.26400  0.75080  0.83300  1.0000 0.1300802753
H   H4        1.0  0.73600  0.25080  0.66700  1.0000 0.1300802753
H   H5        1.0  0.82940  0.43660  0.38390  1.0000 0.1300802753
H   H6        1.0  0.17060  0.93660  0.11610  1.0000 0.1300802753
H   H7        1.0  0.17060  0.56340  0.61610  1.0000 0.1300802753
H   H8        1.0  0.82940  0.06340  0.88390  1.0000 0.1300802753
H   H9        1.0  0.37340  0.31810  0.21690  1.0000 0.1300802753
H   H10       1.0  0.62660  0.81810  0.28310  1.0000 0.1300802753
H   H11       1.0  0.62660  0.68190  0.78310  1.0000 0.1300802753
H   H12       1.0  0.37340  0.18190  0.71690  1.0000 0.1300802753
H   H13       1.0  0.89680  0.60340  0.16790  1.0000 0.2544338187
H   H14       1.0  0.90050  0.68780  0.20030  1.0000 0.2698600372
H   H15       1.0  0.65720  0.57760  0.16150  1.0000 0.1300802753
H   H16       1.0  0.62110  0.65130  0.07780  1.0000 0.1300802753
H   H17       1.0  0.66460  0.66630  0.20550  1.0000 0.1393457154
H   H18       1.0  0.95900  0.64900  0.38070  1.0000 0.1393457154
H   H19       1.0  0.10570  0.62210  0.36650  1.0000 0.1300802753
H   H20       1.0  0.96610  0.55930  0.34600  1.0000 0.1300802753
H   H21       1.0  0.10320  0.10340  0.33210  1.0000 0.2544338187
H   H22       1.0  0.09950  0.18780  0.29970  1.0000 0.2698600372
H   H23       1.0  0.34280  0.07760  0.33850  1.0000 0.1300802753
H   H24       1.0  0.37890  0.15130  0.42220  1.0000 0.1300802753
H   H25       1.0  0.33540  0.16630  0.29450  1.0000 0.1393457154
H   H26       1.0  0.04100  0.14900  0.11930  1.0000 0.1393457154
H   H27       1.0  0.89430  0.12210  0.13350  1.0000 0.1300802753
H   H28       1.0  0.03390  0.05930  0.15400  1.0000 0.1300802753
H   H29       1.0  0.10320  0.39660  0.83210  1.0000 0.2544338187
H   H30       1.0  0.09950  0.31220  0.79970  1.0000 0.2698600372
H   H31       1.0  0.34280  0.42240  0.83850  1.0000 0.1300802753
H   H32       1.0  0.37890  0.34870  0.92220  1.0000 0.1300802753
H   H33       1.0  0.33540  0.33370  0.79450  1.0000 0.1393457154
H   H34       1.0  0.04100  0.35100  0.61930  1.0000 0.1393457154
H   H35       1.0  0.89430  0.37790  0.63350  1.0000 0.1300802753
H   H36       1.0  0.03390  0.44070  0.65400  1.0000 0.1300802753
H   H37       1.0  0.89680  0.89660  0.66790  1.0000 0.2544338187
H   H38       1.0  0.90050  0.81220  0.70030  1.0000 0.2698600372
H   H39       1.0  0.65720  0.92240  0.66150  1.0000 0.1300802753
H   H40       1.0  0.62110  0.84870  0.57780  1.0000 0.1300802753
H   H41       1.0  0.66460  0.83370  0.70550  1.0000 0.1393457154
H   H42       1.0  0.95900  0.85100  0.88070  1.0000 0.1393457154
H   H43       1.0  0.10570  0.87790  0.86650  1.0000 0.1300802753
H   H44       1.0  0.96610  0.94070  0.84600  1.0000 0.1300802753
C   C1        1.0  0.41987  0.20450  0.10056  1.0000 0.5449240884
C   C2        1.0  0.58013  0.70450  0.39944  1.0000 0.5449240884
C   C3        1.0  0.58013  0.79550  0.89944  1.0000 0.5449240884
C   C4        1.0  0.41987  0.29550  0.60056  1.0000 0.5449240884
C   C5        1.0  0.53655  0.27321  0.17932  1.0000 -0.0184621079
C   C6        1.0  0.46345  0.77321  0.32068  1.0000 -0.0184621079
C   C7        1.0  0.46345  0.72679  0.82068  1.0000 -0.0184621079
C   C8        1.0  0.53655  0.22679  0.67932  1.0000 -0.0184621079
C   C9        1.0  0.70018  0.28345  0.20280  1.0000 -0.1165002318
C   C10       1.0  0.29982  0.78345  0.29720  1.0000 -0.1165002318
C   C11       1.0  0.29982  0.71655  0.79720  1.0000 -0.1165002318
C   C12       1.0  0.70018  0.21655  0.70280  1.0000 -0.1165002318
C   C13       1.0  0.81071  0.34459  0.27957  1.0000 -0.027131773
C   C14       1.0  0.18929  0.84459  0.22043  1.0000 -0.027131773
C   C15       1.0  0.18929  0.65541  0.72043  1.0000 -0.027131773
C   C16       1.0  0.81071  0.15541  0.77957  1.0000 -0.027131773
C   C17       1.0  0.75630  0.39558  0.33281  1.0000 -0.0995923666
C   C18       1.0  0.24370  0.89558  0.16719  1.0000 -0.0995923666
C   C19       1.0  0.24370  0.60442  0.66719  1.0000 -0.0995923666
C   C20       1.0  0.75630  0.10442  0.83281  1.0000 -0.0995923666
C   C21       1.0  0.59267  0.38561  0.31011  1.0000 -0.027131773
C   C22       1.0  0.40733  0.88561  0.18989  1.0000 -0.027131773
C   C23       1.0  0.40733  0.61439  0.68989  1.0000 -0.027131773
C   C24       1.0  0.59267  0.11439  0.81011  1.0000 -0.027131773
C   C25       1.0  0.48296  0.32461  0.23286  1.0000 -0.1140969614
C   C26       1.0  0.51704  0.82461  0.26714  1.0000 -0.1140969614
C   C27       1.0  0.51704  0.67539  0.76714  1.0000 -0.1140969614
C   C28       1.0  0.48296  0.17539  0.73286  1.0000 -0.1140969614
C   C29       1.0  0.99042  0.35312  0.30957  1.0000 0.5650653323
C   C30       1.0  0.00958  0.85312  0.19043  1.0000 0.5650653323
C   C31       1.0  0.00958  0.64688  0.69043  1.0000 0.5650653323
C   C32       1.0  0.99042  0.14688  0.80957  1.0000 0.5650653323
C   C33       1.0  0.54009  0.43820  0.37348  1.0000 0.5919947704
C   C34       1.0  0.45991  0.93820  0.12652  1.0000 0.5919947704
C   C35       1.0  0.45991  0.56180  0.62652  1.0000 0.5919947704
C   C36       1.0  0.54009  0.06180  0.87348  1.0000 0.5919947704
C   C37       1.0  0.68810  0.63268  0.15910  1.0000 -0.2709305281
C   C38       1.0  0.98600  0.61494  0.33670  1.0000 -0.2834520558
C   C39       1.0  0.31190  0.13268  0.34090  1.0000 -0.2709305281
C   C40       1.0  0.01400  0.11494  0.16330  1.0000 -0.2834520558
C   C41       1.0  0.31190  0.36732  0.84090  1.0000 -0.2709305281
C   C42       1.0  0.01400  0.38506  0.66330  1.0000 -0.2834520558
C   C43       1.0  0.68810  0.86732  0.65910  1.0000 -0.2709305281
C   C44       1.0  0.98600  0.88506  0.83670  1.0000 -0.2834520558
N   N1        1.0  0.87453  0.63700  0.20926  1.0000 -0.0995923666
N   N2        1.0  0.12547  0.13700  0.29074  1.0000 -0.0995923666
N   N3        1.0  0.12547  0.36300  0.79074  1.0000 -0.0995923666
N   N4        1.0  0.87453  0.86300  0.70926  1.0000 -0.0995923666
O   O1        1.0  0.06573  0.42033  0.35791  1.0000 -0.5506668905
O   O2        1.0  0.93427  0.92033  0.14209  1.0000 -0.5506668905
O   O3        1.0  0.93427  0.57967  0.64209  1.0000 -0.5506668905
O   O4        1.0  0.06573  0.07967  0.85791  1.0000 -0.5506668905
O   O5        1.0  0.47652  0.16307  0.05041  1.0000 -0.5592684666
O   O6        1.0  0.52348  0.66307  0.44959  1.0000 -0.5592684666
O   O7        1.0  0.52348  0.83693  0.94959  1.0000 -0.5592684666
O   O8        1.0  0.47652  0.33693  0.55041  1.0000 -0.5592684666
O   O9        1.0  0.28355  0.19128  0.08998  1.0000 -0.5296226958
O   O10       1.0  0.71645  0.69128  0.41002  1.0000 -0.5296226958
O   O11       1.0  0.71645  0.80872  0.91002  1.0000 -0.5296226958
O   O12       1.0  0.28355  0.30872  0.58998  1.0000 -0.5296226958
O   O13       1.0  0.05613  0.29717  0.28737  1.0000 -0.5592684666
O   O14       1.0  0.94387  0.79717  0.21263  1.0000 -0.5592684666
O   O15       1.0  0.94387  0.70283  0.71263  1.0000 -0.5592684666
O   O16       1.0  0.05613  0.20283  0.78737  1.0000 -0.5592684666
O   O17       1.0  0.38344  0.43598  0.33838  1.0000 -0.5365998069
O   O18       1.0  0.61656  0.93598  0.16162  1.0000 -0.5365998069
O   O19       1.0  0.61656  0.56402  0.66162  1.0000 -0.5365998069
O   O20       1.0  0.38344  0.06402  0.83838  1.0000 -0.5365998069
O   O21       1.0  0.65861  0.47992  0.45882  1.0000 -0.5506668905
O   O22       1.0  0.34139  0.97992  0.04118  1.0000 -0.5506668905
O   O23       1.0  0.34139  0.52008  0.54118  1.0000 -0.5506668905
O   O24       1.0  0.65861  0.02008  0.95882  1.0000 -0.5506668905
