# DDEC6 charges by PACMAN v1.1 (https://github.com/mtap-research/PACMAN-charge/)
data_2015[Ag][nbo]3[ION]4
_chemical_formula_sum              "Ag6 P6 H48 C54 N24 F36"
_cell_length_a       17.6632
_cell_length_b       17.6632
_cell_length_c       17.6632
_cell_angle_alpha    113.037
_cell_angle_beta     113.037
_cell_angle_gamma    113.037

_symmetry_space_group_name_H-M    "P 1"
_symmetry_Int_Tables_number       1

loop_
  _symmetry_equiv_pos_as_xyz
  'x, y, z'

loop_
  _atom_site_type_symbol
  _atom_site_label
  _atom_site_symmetry_multiplicity
  _atom_site_fract_x
  _atom_site_fract_y
  _atom_site_fract_z
  _atom_site_occupancy
  _atom_site_charge
Ag  Ag1       1.0  0.35664  0.21043  0.67798  1.0000 0.292954236
Ag  Ag2       1.0  0.21043  0.67798  0.35664  1.0000 0.292954236
Ag  Ag3       1.0  0.67798  0.35664  0.21043  1.0000 0.292954236
Ag  Ag4       1.0  0.64336  0.78957  0.32202  1.0000 0.292954236
Ag  Ag5       1.0  0.78957  0.32202  0.64336  1.0000 0.292954236
Ag  Ag6       1.0  0.32202  0.64336  0.78957  1.0000 0.292954236
P   P1        1.0  0.92832  0.25792  0.40018  1.0000 1.4548261163
P   P2        1.0  0.40018  0.92832  0.25792  1.0000 1.4577443596
P   P3        1.0  0.25792  0.40018  0.92832  1.0000 1.4577443596
P   P4        1.0  0.07168  0.74208  0.59982  1.0000 1.4577443596
P   P5        1.0  0.59982  0.07168  0.74208  1.0000 1.4577443596
P   P6        1.0  0.74208  0.59982  0.07168  1.0000 1.4577443596
H   H1        1.0  0.32920  0.12970  0.48000  1.0000 0.1438874848
H   H2        1.0  0.12970  0.48000  0.32920  1.0000 0.1438874848
H   H3        1.0  0.48000  0.32920  0.12970  1.0000 0.1438874848
H   H4        1.0  0.67080  0.87030  0.52000  1.0000 0.1438874848
H   H5        1.0  0.87030  0.52000  0.67080  1.0000 0.1438874848
H   H6        1.0  0.52000  0.67080  0.87030  1.0000 0.1438874848
H   H7        1.0  0.36500  0.07090  0.42710  1.0000 0.1580348906
H   H8        1.0  0.07090  0.42710  0.36500  1.0000 0.1580348906
H   H9        1.0  0.42710  0.36500  0.07090  1.0000 0.1580348906
H   H10       1.0  0.63500  0.92910  0.57290  1.0000 0.1580348906
H   H11       1.0  0.92910  0.57290  0.63500  1.0000 0.1580348906
H   H12       1.0  0.57290  0.63500  0.92910  1.0000 0.1580348906
H   H13       1.0  0.54980  0.16460  0.51910  1.0000 0.1298852361
H   H14       1.0  0.16460  0.51910  0.54980  1.0000 0.1298852361
H   H15       1.0  0.51910  0.54980  0.16460  1.0000 0.1298852361
H   H16       1.0  0.45020  0.83540  0.48090  1.0000 0.1298852361
H   H17       1.0  0.83540  0.48090  0.45020  1.0000 0.1298852361
H   H18       1.0  0.48090  0.45020  0.83540  1.0000 0.1298852361
H   H19       1.0  0.76450  0.42850  0.82020  1.0000 0.1298852361
H   H20       1.0  0.42850  0.82020  0.76450  1.0000 0.1298852361
H   H21       1.0  0.82020  0.76450  0.42850  1.0000 0.1298852361
H   H22       1.0  0.23550  0.57150  0.17980  1.0000 0.1298852361
H   H23       1.0  0.57150  0.17980  0.23550  1.0000 0.1298852361
H   H24       1.0  0.17980  0.23550  0.57150  1.0000 0.1298852361
H   H25       1.0  0.62910  0.39950  0.82800  1.0000 0.1221326139
H   H26       1.0  0.39950  0.82800  0.62910  1.0000 0.1221326139
H   H27       1.0  0.82800  0.62910  0.39950  1.0000 0.1221326139
H   H28       1.0  0.37090  0.60050  0.17200  1.0000 0.1221326139
H   H29       1.0  0.60050  0.17200  0.37090  1.0000 0.1221326139
H   H30       1.0  0.17200  0.37090  0.60050  1.0000 0.1221326139
H   H31       1.0  0.31630  0.90910  0.39820  1.0000 0.1298852361
H   H32       1.0  0.90910  0.39820  0.31630  1.0000 0.1298852361
H   H33       1.0  0.39820  0.31630  0.90910  1.0000 0.1298852361
H   H34       1.0  0.68370  0.09090  0.60180  1.0000 0.1298852361
H   H35       1.0  0.09090  0.60180  0.68370  1.0000 0.1298852361
H   H36       1.0  0.60180  0.68370  0.09090  1.0000 0.1298852361
H   H37       1.0  0.20720  0.82380  0.53020  1.0000 0.1221326139
H   H38       1.0  0.82380  0.53020  0.20720  1.0000 0.1221326139
H   H39       1.0  0.53020  0.20720  0.82380  1.0000 0.1221326139
H   H40       1.0  0.79280  0.17620  0.46980  1.0000 0.1221326139
H   H41       1.0  0.17620  0.46980  0.79280  1.0000 0.1221326139
H   H42       1.0  0.46980  0.79280  0.17620  1.0000 0.1221326139
H   H43       1.0  0.24500  0.98570  0.62570  1.0000 0.1298852361
H   H44       1.0  0.98570  0.62570  0.24500  1.0000 0.1298852361
H   H45       1.0  0.62570  0.24500  0.98570  1.0000 0.1298852361
H   H46       1.0  0.75500  0.01430  0.37430  1.0000 0.1298852361
H   H47       1.0  0.01430  0.37430  0.75500  1.0000 0.1298852361
H   H48       1.0  0.37430  0.75500  0.01430  1.0000 0.1298852361
C   C1        1.0  0.37050  0.10440  0.49100  1.0000 -0.3581892255
C   C2        1.0  0.10440  0.49100  0.37050  1.0000 -0.3581892255
C   C3        1.0  0.49100  0.37050  0.10440  1.0000 -0.3581892255
C   C4        1.0  0.62950  0.89560  0.50900  1.0000 -0.3581892255
C   C5        1.0  0.89560  0.50900  0.62950  1.0000 -0.3581892255
C   C6        1.0  0.50900  0.62950  0.89560  1.0000 -0.3581892255
C   C7        1.0  0.48480  0.19760  0.58770  1.0000 0.2615928349
C   C8        1.0  0.19760  0.58770  0.48480  1.0000 0.2615928349
C   C9        1.0  0.58770  0.48480  0.19760  1.0000 0.2615928349
C   C10       1.0  0.51520  0.80240  0.41230  1.0000 0.2615928349
C   C11       1.0  0.80240  0.41230  0.51520  1.0000 0.2615928349
C   C12       1.0  0.41230  0.51520  0.80240  1.0000 0.2615928349
C   C13       1.0  0.56790  0.21560  0.58380  1.0000 -0.0129797378
C   C14       1.0  0.21560  0.58380  0.56790  1.0000 -0.0129797378
C   C15       1.0  0.58380  0.56790  0.21560  1.0000 -0.0129797378
C   C16       1.0  0.43210  0.78440  0.41620  1.0000 -0.0129797378
C   C17       1.0  0.78440  0.41620  0.43210  1.0000 -0.0129797378
C   C18       1.0  0.41620  0.43210  0.78440  1.0000 -0.0129797378
C   C19       1.0  0.69190  0.36770  0.75770  1.0000 0.0211931462
C   C20       1.0  0.36770  0.75770  0.69190  1.0000 0.0211931462
C   C21       1.0  0.75770  0.69190  0.36770  1.0000 0.0211931462
C   C22       1.0  0.30810  0.63230  0.24230  1.0000 0.0211931462
C   C23       1.0  0.63230  0.24230  0.30810  1.0000 0.0211931462
C   C24       1.0  0.24230  0.30810  0.63230  1.0000 0.0211931462
C   C25       1.0  0.61090  0.35000  0.76250  1.0000 0.0503887677
C   C26       1.0  0.35000  0.76250  0.61090  1.0000 0.0503887677
C   C27       1.0  0.76250  0.61090  0.35000  1.0000 0.0503887677
C   C28       1.0  0.38910  0.65000  0.23750  1.0000 0.0503887677
C   C29       1.0  0.65000  0.23750  0.38910  1.0000 0.0503887677
C   C30       1.0  0.23750  0.38910  0.65000  1.0000 0.0503887677
C   C31       1.0  0.32200  0.02150  0.50210  1.0000 0.2497994897
C   C32       1.0  0.02150  0.50210  0.32200  1.0000 0.2497994897
C   C33       1.0  0.50210  0.32200  0.02150  1.0000 0.2497994897
C   C34       1.0  0.67800  0.97850  0.49790  1.0000 0.2497994897
C   C35       1.0  0.97850  0.49790  0.67800  1.0000 0.2497994897
C   C36       1.0  0.49790  0.67800  0.97850  1.0000 0.2497994897
C   C37       1.0  0.29900  0.92300  0.44390  1.0000 0.0148034912
C   C38       1.0  0.92300  0.44390  0.29900  1.0000 0.0211931462
C   C39       1.0  0.44390  0.29900  0.92300  1.0000 0.0148034912
C   C40       1.0  0.70100  0.07700  0.55610  1.0000 0.0211931462
C   C41       1.0  0.07700  0.55610  0.70100  1.0000 0.0148034912
C   C42       1.0  0.55610  0.70100  0.07700  1.0000 0.0211931462
C   C43       1.0  0.23610  0.87350  0.52030  1.0000 0.037932793
C   C44       1.0  0.87350  0.52030  0.23610  1.0000 0.037932793
C   C45       1.0  0.52030  0.23610  0.87350  1.0000 0.037932793
C   C46       1.0  0.76390  0.12650  0.47970  1.0000 0.037932793
C   C47       1.0  0.12650  0.47970  0.76390  1.0000 0.037932793
C   C48       1.0  0.47970  0.76390  0.12650  1.0000 0.037932793
C   C49       1.0  0.25950  0.97060  0.57770  1.0000 0.0503887677
C   C50       1.0  0.97060  0.57770  0.25950  1.0000 0.0503887677
C   C51       1.0  0.57770  0.25950  0.97060  1.0000 0.0503887677
C   C52       1.0  0.74050  0.02940  0.42230  1.0000 0.0503887677
C   C53       1.0  0.02940  0.42230  0.74050  1.0000 0.0503887677
C   C54       1.0  0.42230  0.74050  0.02940  1.0000 0.0503887677
N   N1        1.0  0.50790  0.26520  0.67730  1.0000 -0.2084436122
N   N2        1.0  0.26520  0.67730  0.50790  1.0000 -0.2084436122
N   N3        1.0  0.67730  0.50790  0.26520  1.0000 -0.2084436122
N   N4        1.0  0.49210  0.73480  0.32270  1.0000 -0.2084436122
N   N5        1.0  0.73480  0.32270  0.49210  1.0000 -0.2084436122
N   N6        1.0  0.32270  0.49210  0.73480  1.0000 -0.2084436122
N   N7        1.0  0.67100  0.30170  0.66790  1.0000 -0.1342076662
N   N8        1.0  0.30170  0.66790  0.67100  1.0000 -0.1342076662
N   N9        1.0  0.66790  0.67100  0.30170  1.0000 -0.1342076662
N   N10       1.0  0.32900  0.69830  0.33210  1.0000 -0.1342076662
N   N11       1.0  0.69830  0.33210  0.32900  1.0000 -0.1342076662
N   N12       1.0  0.33210  0.32900  0.69830  1.0000 -0.1342076662
N   N13       1.0  0.30120  0.04360  0.56860  1.0000 -0.1874517205
N   N14       1.0  0.04360  0.56860  0.30120  1.0000 -0.1874517205
N   N15       1.0  0.56860  0.30120  0.04360  1.0000 -0.1874517205
N   N16       1.0  0.69880  0.95640  0.43140  1.0000 -0.1874517205
N   N17       1.0  0.95640  0.43140  0.69880  1.0000 -0.1874517205
N   N18       1.0  0.43140  0.69880  0.95640  1.0000 -0.1874517205
N   N19       1.0  0.25390  0.84870  0.45080  1.0000 -0.1515330079
N   N20       1.0  0.84870  0.45080  0.25390  1.0000 -0.1515330079
N   N21       1.0  0.45080  0.25390  0.84870  1.0000 -0.1515330079
N   N22       1.0  0.74610  0.15130  0.54920  1.0000 -0.1515330079
N   N23       1.0  0.15130  0.54920  0.74610  1.0000 -0.1515330079
N   N24       1.0  0.54920  0.74610  0.15130  1.0000 -0.1515330079
F   F1        1.0  0.97970  0.38290  0.45890  1.0000 -0.426587202
F   F2        1.0  0.97050  0.28180  0.51070  1.0000 -0.426587202
F   F3        1.0  0.03730  0.29970  0.43020  1.0000 -0.4080240779
F   F4        1.0  0.86650  0.14210  0.34400  1.0000 -0.3909096959
F   F5        1.0  0.88720  0.24022  0.29298  1.0000 -0.4080240779
F   F6        1.0  0.82900  0.24290  0.38630  1.0000 -0.3909096959
F   F7        1.0  0.45890  0.97970  0.38290  1.0000 -0.426587202
F   F8        1.0  0.51070  0.97050  0.28180  1.0000 -0.426587202
F   F9        1.0  0.43020  0.03730  0.29970  1.0000 -0.4080240779
F   F10       1.0  0.34400  0.86650  0.14210  1.0000 -0.3909096959
F   F11       1.0  0.29298  0.88720  0.24022  1.0000 -0.4080240779
F   F12       1.0  0.38630  0.82900  0.24290  1.0000 -0.395073593
F   F13       1.0  0.38290  0.45890  0.97970  1.0000 -0.426587202
F   F14       1.0  0.28180  0.51070  0.97050  1.0000 -0.426587202
F   F15       1.0  0.29970  0.43020  0.03730  1.0000 -0.4080240779
F   F16       1.0  0.14210  0.34400  0.86650  1.0000 -0.3909096959
F   F17       1.0  0.24022  0.29298  0.88720  1.0000 -0.4080240779
F   F18       1.0  0.24290  0.38630  0.82900  1.0000 -0.3909096959
F   F19       1.0  0.02030  0.61710  0.54110  1.0000 -0.426587202
F   F20       1.0  0.02950  0.71820  0.48930  1.0000 -0.426587202
F   F21       1.0  0.96270  0.70030  0.56980  1.0000 -0.4080240779
F   F22       1.0  0.13350  0.85790  0.65600  1.0000 -0.3909096959
F   F23       1.0  0.11280  0.75978  0.70702  1.0000 -0.4080240779
F   F24       1.0  0.17100  0.75710  0.61370  1.0000 -0.3909096959
F   F25       1.0  0.54110  0.02030  0.61710  1.0000 -0.426587202
F   F26       1.0  0.48930  0.02950  0.71820  1.0000 -0.426587202
F   F27       1.0  0.56980  0.96270  0.70030  1.0000 -0.4080240779
F   F28       1.0  0.65600  0.13350  0.85790  1.0000 -0.3909096959
F   F29       1.0  0.70702  0.11280  0.75978  1.0000 -0.4080240779
F   F30       1.0  0.61370  0.17100  0.75710  1.0000 -0.3909096959
F   F31       1.0  0.61710  0.54110  0.02030  1.0000 -0.426587202
F   F32       1.0  0.71820  0.48930  0.02950  1.0000 -0.426587202
F   F33       1.0  0.70030  0.56980  0.96270  1.0000 -0.4080240779
F   F34       1.0  0.85790  0.65600  0.13350  1.0000 -0.3909096959
F   F35       1.0  0.75978  0.70702  0.11280  1.0000 -0.4080240779
F   F36       1.0  0.75710  0.61370  0.17100  1.0000 -0.395073593
