# DDEC6 charges by PACMAN v1.1 (https://github.com/mtap-research/PACMAN-charge/)
data_2015[Zn][ths]3[ION]1
_chemical_formula_sum              "Zn4 H120 C128 N8 O28"
_cell_length_a       14.0797
_cell_length_b       9.0269
_cell_length_c       30.5736
_cell_angle_alpha    90
_cell_angle_beta     116.227
_cell_angle_gamma    90

_symmetry_space_group_name_H-M    "P 1"
_symmetry_Int_Tables_number       1

loop_
  _symmetry_equiv_pos_as_xyz
  'x, y, z'

loop_
  _atom_site_type_symbol
  _atom_site_label
  _atom_site_symmetry_multiplicity
  _atom_site_fract_x
  _atom_site_fract_y
  _atom_site_fract_z
  _atom_site_occupancy
  _atom_site_charge
Zn  Zn1       1.0  0.24245  0.72109  0.66190  1.0000 0.8844282129
Zn  Zn2       1.0  0.24245  0.77891  0.16190  1.0000 0.8844282129
Zn  Zn3       1.0  0.75755  0.22109  0.83810  1.0000 0.8844282129
Zn  Zn4       1.0  0.75755  0.27891  0.33810  1.0000 0.8844282129
H   H1        1.0  0.19860  0.14480  0.78350  1.0000 0.1189766376
H   H2        1.0  0.19860  0.35520  0.28350  1.0000 0.1189766376
H   H3        1.0  0.29460  0.23180  0.86180  1.0000 0.1189766376
H   H4        1.0  0.29460  0.26820  0.36180  1.0000 0.1189766376
H   H5        1.0  0.50710  0.90980  0.88730  1.0000 0.1122455732
H   H6        1.0  0.50710  0.59020  0.38730  1.0000 0.1122455732
H   H7        1.0  0.41290  0.83020  0.80820  1.0000 0.1122455732
H   H8        1.0  0.41290  0.66980  0.30820  1.0000 0.1122455732
H   H9        1.0  0.35370  0.22560  0.94420  1.0000 0.1122455732
H   H10       1.0  0.35370  0.27440  0.44420  1.0000 0.1122455732
H   H11       1.0  0.63150  0.25420  0.06370  1.0000 0.1189766376
H   H12       1.0  0.63150  0.24580  0.56370  1.0000 0.1189766376
H   H13       1.0  0.61620  0.06720  0.94170  1.0000 0.1189766376
H   H14       1.0  0.61620  0.43280  0.44170  1.0000 0.1189766376
H   H15       1.0  0.54760  0.48090  0.06950  1.0000 0.1122455732
H   H16       1.0  0.54760  0.01910  0.56950  1.0000 0.1122455732
H   H17       1.0  0.46460  0.60900  0.10760  1.0000 0.1189766376
H   H18       1.0  0.46460  0.89100  0.60760  1.0000 0.1189766376
H   H19       1.0  0.21320  0.34380  0.04550  1.0000 0.1189766376
H   H20       1.0  0.21320  0.15620  0.54550  1.0000 0.1189766376
H   H21       1.0  0.29570  0.21490  0.00670  1.0000 0.1122455732
H   H22       1.0  0.29570  0.28510  0.50670  1.0000 0.1122455732
H   H23       1.0  0.75340  0.03430  0.09450  1.0000 0.1122455732
H   H24       1.0  0.75340  0.46570  0.59450  1.0000 0.1122455732
H   H25       1.0  0.92180  0.93400  0.12970  1.0000 0.1189766376
H   H26       1.0  0.92180  0.56600  0.62970  1.0000 0.1189766376
H   H27       1.0  0.97140  0.08150  0.01860  1.0000 0.1122455732
H   H28       1.0  0.97140  0.41850  0.51860  1.0000 0.1122455732
H   H29       1.0  0.79820  0.16400  0.97980  1.0000 0.1289589093
H   H30       1.0  0.79820  0.33600  0.47980  1.0000 0.1289589093
H   H31       1.0  0.35280  0.17120  0.65750  1.0000 0.1289589093
H   H32       1.0  0.35280  0.32880  0.15750  1.0000 0.1289589093
H   H33       1.0  0.46560  0.14290  0.70010  1.0000 0.1389279612
H   H34       1.0  0.46560  0.35710  0.20010  1.0000 0.1389279612
H   H35       1.0  0.36450  0.09320  0.70540  1.0000 0.1473537483
H   H36       1.0  0.36450  0.40680  0.20540  1.0000 0.1473537483
H   H37       1.0  0.43830  0.42260  0.77520  1.0000 0.1289589093
H   H38       1.0  0.43830  0.07740  0.27520  1.0000 0.1289589093
H   H39       1.0  0.41680  0.25440  0.78000  1.0000 0.1289589093
H   H40       1.0  0.41680  0.24560  0.28000  1.0000 0.1289589093
H   H41       1.0  0.51930  0.30270  0.77570  1.0000 0.1389279612
H   H42       1.0  0.51930  0.19730  0.27570  1.0000 0.1389279612
H   H43       1.0  0.30600  0.40850  0.65110  1.0000 0.1122455732
H   H44       1.0  0.30600  0.09150  0.15110  1.0000 0.1122455732
H   H45       1.0  0.80140  0.64480  0.71650  1.0000 0.1189766376
H   H46       1.0  0.80140  0.85520  0.21650  1.0000 0.1189766376
H   H47       1.0  0.70540  0.73180  0.63820  1.0000 0.1189766376
H   H48       1.0  0.70540  0.76820  0.13820  1.0000 0.1189766376
H   H49       1.0  0.49290  0.40980  0.61270  1.0000 0.1122455732
H   H50       1.0  0.49290  0.09020  0.11270  1.0000 0.1122455732
H   H51       1.0  0.58710  0.33020  0.69180  1.0000 0.1122455732
H   H52       1.0  0.58710  0.16980  0.19180  1.0000 0.1122455732
H   H53       1.0  0.64630  0.72560  0.55580  1.0000 0.1122455732
H   H54       1.0  0.64630  0.77440  0.05580  1.0000 0.1122455732
H   H55       1.0  0.36850  0.75420  0.43630  1.0000 0.1189766376
H   H56       1.0  0.36850  0.74580  0.93630  1.0000 0.1189766376
H   H57       1.0  0.38380  0.56720  0.55830  1.0000 0.1189766376
H   H58       1.0  0.38380  0.93280  0.05830  1.0000 0.1189766376
H   H59       1.0  0.45240  0.98090  0.43050  1.0000 0.1122455732
H   H60       1.0  0.45240  0.51910  0.93050  1.0000 0.1122455732
H   H61       1.0  0.53540  0.10900  0.39240  1.0000 0.1189766376
H   H62       1.0  0.53540  0.39100  0.89240  1.0000 0.1189766376
H   H63       1.0  0.78680  0.84380  0.45450  1.0000 0.1189766376
H   H64       1.0  0.78680  0.65620  0.95450  1.0000 0.1189766376
H   H65       1.0  0.70430  0.71490  0.49330  1.0000 0.1122455732
H   H66       1.0  0.70430  0.78510  0.99330  1.0000 0.1122455732
H   H67       1.0  0.24660  0.53430  0.40550  1.0000 0.1122455732
H   H68       1.0  0.24660  0.96570  0.90550  1.0000 0.1122455732
H   H69       1.0  0.07820  0.43400  0.37030  1.0000 0.1189766376
H   H70       1.0  0.07820  0.06600  0.87030  1.0000 0.1189766376
H   H71       1.0  0.02860  0.58150  0.48140  1.0000 0.1122455732
H   H72       1.0  0.02860  0.91850  0.98140  1.0000 0.1122455732
H   H73       1.0  0.20180  0.66400  0.52020  1.0000 0.1289589093
H   H74       1.0  0.20180  0.83600  0.02020  1.0000 0.1289589093
H   H75       1.0  0.64720  0.67120  0.84250  1.0000 0.1289589093
H   H76       1.0  0.64720  0.82880  0.34250  1.0000 0.1289589093
H   H77       1.0  0.53440  0.64290  0.79990  1.0000 0.1389279612
H   H78       1.0  0.53440  0.85710  0.29990  1.0000 0.1389279612
H   H79       1.0  0.63550  0.59320  0.79460  1.0000 0.1473537483
H   H80       1.0  0.63550  0.90680  0.29460  1.0000 0.1473537483
H   H81       1.0  0.56170  0.92260  0.72480  1.0000 0.1289589093
H   H82       1.0  0.56170  0.57740  0.22480  1.0000 0.1289589093
H   H83       1.0  0.58320  0.75440  0.72000  1.0000 0.1289589093
H   H84       1.0  0.58320  0.74560  0.22000  1.0000 0.1289589093
H   H85       1.0  0.48070  0.80270  0.72430  1.0000 0.1389279612
H   H86       1.0  0.48070  0.69730  0.22430  1.0000 0.1389279612
H   H87       1.0  0.69400  0.90850  0.84890  1.0000 0.1122455732
H   H88       1.0  0.69400  0.59150  0.34890  1.0000 0.1122455732
H   H89       1.0  0.93240  0.44930  0.88720  1.0000 0.2681061872
H   H90       1.0  0.01200  0.44180  0.86920  1.0000 0.2579807141
H   H91       1.0  0.07570  0.33580  0.94240  1.0000 0.1289589093
H   H92       1.0  0.05670  0.48440  0.96380  1.0000 0.1289589093
H   H93       1.0  0.14270  0.47660  0.94440  1.0000 0.1189766376
H   H94       1.0  0.93310  0.66190  0.85030  1.0000 0.1389279612
H   H95       1.0  0.05290  0.68190  0.88670  1.0000 0.1189766376
H   H96       1.0  0.96630  0.68980  0.90570  1.0000 0.1289589093
H   H97       1.0  0.06760  0.94930  0.61280  1.0000 0.2681061872
H   H98       1.0  0.98800  0.94180  0.63080  1.0000 0.2579807141
H   H99       1.0  0.92430  0.83580  0.55760  1.0000 0.1289589093
H   H100      1.0  0.94330  0.98440  0.53620  1.0000 0.1289589093
H   H101      1.0  0.85730  0.97660  0.55560  1.0000 0.1189766376
H   H102      1.0  0.06690  0.16190  0.64970  1.0000 0.1389279612
H   H103      1.0  0.94710  0.18190  0.61330  1.0000 0.1189766376
H   H104      1.0  0.03370  0.18980  0.59430  1.0000 0.1289589093
H   H105      1.0  0.06760  0.55070  0.11280  1.0000 0.2681061872
H   H106      1.0  0.98800  0.55820  0.13080  1.0000 0.2579807141
H   H107      1.0  0.92430  0.66420  0.05760  1.0000 0.1289589093
H   H108      1.0  0.94330  0.51560  0.03620  1.0000 0.1289589093
H   H109      1.0  0.85730  0.52340  0.05560  1.0000 0.1189766376
H   H110      1.0  0.06690  0.33810  0.14970  1.0000 0.1389279612
H   H111      1.0  0.94710  0.31810  0.11330  1.0000 0.1189766376
H   H112      1.0  0.03370  0.31020  0.09430  1.0000 0.1289589093
H   H113      1.0  0.93240  0.05070  0.38720  1.0000 0.2681061872
H   H114      1.0  0.01200  0.05820  0.36920  1.0000 0.2579807141
H   H115      1.0  0.07570  0.16420  0.44240  1.0000 0.1289589093
H   H116      1.0  0.05670  0.01560  0.46380  1.0000 0.1289589093
H   H117      1.0  0.14270  0.02340  0.44440  1.0000 0.1189766376
H   H118      1.0  0.93310  0.83810  0.35030  1.0000 0.1389279612
H   H119      1.0  0.05290  0.81810  0.38670  1.0000 0.1189766376
H   H120      1.0  0.96630  0.81020  0.40570  1.0000 0.1289589093
C   C1        1.0  0.23541  0.92060  0.73561  1.0000 0.5566654899
C   C2        1.0  0.23541  0.57940  0.23561  1.0000 0.5566654899
C   C3        1.0  0.29665  0.97790  0.78765  1.0000 -0.0229735202
C   C4        1.0  0.29665  0.52210  0.28765  1.0000 -0.0229735202
C   C5        1.0  0.26152  0.09820  0.80412  1.0000 -0.1095858546
C   C6        1.0  0.26152  0.40180  0.30412  1.0000 -0.1095858546
C   C7        1.0  0.31950  0.15040  0.85130  1.0000 -0.1585125363
C   C8        1.0  0.31950  0.34960  0.35130  1.0000 -0.1585125363
C   C9        1.0  0.41348  0.08430  0.88318  1.0000 0.0665282854
C   C10       1.0  0.41348  0.41570  0.38318  1.0000 0.0665282854
C   C11       1.0  0.44609  0.96020  0.86649  1.0000 -0.1585125363
C   C12       1.0  0.44609  0.53980  0.36649  1.0000 -0.1585125363
C   C13       1.0  0.38828  0.91120  0.81898  1.0000 -0.1003555284
C   C14       1.0  0.38828  0.58880  0.31898  1.0000 -0.1003555284
C   C15       1.0  0.47432  0.13720  0.93452  1.0000 0.0797920083
C   C16       1.0  0.47432  0.36280  0.43452  1.0000 0.0797920083
C   C17       1.0  0.42629  0.20830  0.95979  1.0000 -0.1980109974
C   C18       1.0  0.42629  0.29170  0.45979  1.0000 -0.1980109974
C   C19       1.0  0.48414  0.25420  0.00774  1.0000 0.0797920083
C   C20       1.0  0.48414  0.24580  0.50774  1.0000 0.0797920083
C   C21       1.0  0.59226  0.22480  0.03146  1.0000 -0.189440831
C   C22       1.0  0.59226  0.27520  0.53146  1.0000 -0.189440831
C   C23       1.0  0.64237  0.15110  0.00697  1.0000 0.0863455614
C   C24       1.0  0.64237  0.34890  0.50697  1.0000 0.0863455614
C   C25       1.0  0.58267  0.11190  0.95857  1.0000 -0.189440831
C   C26       1.0  0.58267  0.38810  0.45857  1.0000 -0.189440831
C   C27       1.0  0.43092  0.33470  0.03342  1.0000 0.0665282854
C   C28       1.0  0.43092  0.16530  0.53342  1.0000 0.0665282854
C   C29       1.0  0.47959  0.45330  0.06409  1.0000 -0.1585125363
C   C30       1.0  0.47959  0.04670  0.56409  1.0000 -0.1585125363
C   C31       1.0  0.42942  0.53130  0.08672  1.0000 -0.1003555284
C   C32       1.0  0.42942  0.96870  0.58672  1.0000 -0.1003555284
C   C33       1.0  0.32793  0.49560  0.07883  1.0000 -0.0300221883
C   C34       1.0  0.32793  0.00440  0.57883  1.0000 -0.0300221883
C   C35       1.0  0.27996  0.37340  0.04966  1.0000 -0.1095858546
C   C36       1.0  0.27996  0.12660  0.54966  1.0000 -0.1095858546
C   C37       1.0  0.32999  0.29480  0.02669  1.0000 -0.1585125363
C   C38       1.0  0.32999  0.20520  0.52669  1.0000 -0.1585125363
C   C39       1.0  0.27074  0.58150  0.10224  1.0000 0.5410528281
C   C40       1.0  0.27074  0.91850  0.60224  1.0000 0.5410528281
C   C41       1.0  0.75641  0.10790  0.03261  1.0000 0.0595706203
C   C42       1.0  0.75641  0.39210  0.53261  1.0000 0.0595706203
C   C43       1.0  0.79577  0.04040  0.07827  1.0000 -0.1585125363
C   C44       1.0  0.79577  0.45960  0.57827  1.0000 -0.1585125363
C   C45       1.0  0.89759  0.98210  0.09979  1.0000 -0.1095858546
C   C46       1.0  0.89759  0.51790  0.59979  1.0000 -0.1095858546
C   C47       1.0  0.96284  0.99460  0.07754  1.0000 -0.0300221883
C   C48       1.0  0.96284  0.50540  0.57754  1.0000 -0.0300221883
C   C49       1.0  0.92639  0.06760  0.03319  1.0000 -0.1003555284
C   C50       1.0  0.92639  0.43240  0.53319  1.0000 -0.1003555284
C   C51       1.0  0.82301  0.12010  0.01041  1.0000 -0.1330472208
C   C52       1.0  0.82301  0.37990  0.51041  1.0000 -0.1330472208
C   C53       1.0  0.07435  0.93600  0.10085  1.0000 0.5478099683
C   C54       1.0  0.07435  0.56400  0.60085  1.0000 0.5478099683
C   C55       1.0  0.39340  0.16730  0.69220  1.0000 -0.345012804
C   C56       1.0  0.39340  0.33270  0.19220  1.0000 -0.345012804
C   C57       1.0  0.44570  0.32390  0.76540  1.0000 -0.3316249153
C   C58       1.0  0.44570  0.17610  0.26540  1.0000 -0.3316249153
C   C59       1.0  0.33890  0.42440  0.68460  1.0000 0.3082140484
C   C60       1.0  0.33890  0.07560  0.18460  1.0000 0.3082140484
C   C61       1.0  0.76459  0.42060  0.76439  1.0000 0.5566654899
C   C62       1.0  0.76459  0.07940  0.26439  1.0000 0.5566654899
C   C63       1.0  0.70335  0.47790  0.71235  1.0000 -0.0229735202
C   C64       1.0  0.70335  0.02210  0.21235  1.0000 -0.0229735202
C   C65       1.0  0.73848  0.59820  0.69588  1.0000 -0.1095858546
C   C66       1.0  0.73848  0.90180  0.19588  1.0000 -0.1095858546
C   C67       1.0  0.68050  0.65040  0.64870  1.0000 -0.1585125363
C   C68       1.0  0.68050  0.84960  0.14870  1.0000 -0.1585125363
C   C69       1.0  0.58652  0.58430  0.61682  1.0000 0.0665282854
C   C70       1.0  0.58652  0.91570  0.11682  1.0000 0.0665282854
C   C71       1.0  0.55391  0.46020  0.63351  1.0000 -0.1585125363
C   C72       1.0  0.55391  0.03980  0.13351  1.0000 -0.1585125363
C   C73       1.0  0.61172  0.41120  0.68102  1.0000 -0.1003555284
C   C74       1.0  0.61172  0.08880  0.18102  1.0000 -0.1003555284
C   C75       1.0  0.52568  0.63720  0.56548  1.0000 0.0797920083
C   C76       1.0  0.52568  0.86280  0.06548  1.0000 0.0797920083
C   C77       1.0  0.57371  0.70830  0.54021  1.0000 -0.1980109974
C   C78       1.0  0.57371  0.79170  0.04021  1.0000 -0.1980109974
C   C79       1.0  0.51586  0.75420  0.49226  1.0000 0.0797920083
C   C80       1.0  0.51586  0.74580  0.99226  1.0000 0.0797920083
C   C81       1.0  0.40774  0.72480  0.46854  1.0000 -0.189440831
C   C82       1.0  0.40774  0.77520  0.96854  1.0000 -0.189440831
C   C83       1.0  0.35763  0.65110  0.49303  1.0000 0.0863455614
C   C84       1.0  0.35763  0.84890  0.99303  1.0000 0.0863455614
C   C85       1.0  0.41733  0.61190  0.54143  1.0000 -0.189440831
C   C86       1.0  0.41733  0.88810  0.04143  1.0000 -0.189440831
C   C87       1.0  0.56908  0.83470  0.46658  1.0000 0.0665282854
C   C88       1.0  0.56908  0.66530  0.96658  1.0000 0.0665282854
C   C89       1.0  0.52041  0.95330  0.43591  1.0000 -0.1585125363
C   C90       1.0  0.52041  0.54670  0.93591  1.0000 -0.1585125363
C   C91       1.0  0.57058  0.03130  0.41328  1.0000 -0.1003555284
C   C92       1.0  0.57058  0.46870  0.91328  1.0000 -0.1003555284
C   C93       1.0  0.67207  0.99560  0.42117  1.0000 -0.0300221883
C   C94       1.0  0.67207  0.50440  0.92117  1.0000 -0.0300221883
C   C95       1.0  0.72004  0.87340  0.45034  1.0000 -0.1095858546
C   C96       1.0  0.72004  0.62660  0.95034  1.0000 -0.1095858546
C   C97       1.0  0.67001  0.79480  0.47331  1.0000 -0.1585125363
C   C98       1.0  0.67001  0.70520  0.97331  1.0000 -0.1585125363
C   C99       1.0  0.72926  0.08150  0.39776  1.0000 0.5410528281
C   C100      1.0  0.72926  0.41850  0.89776  1.0000 0.5410528281
C   C101      1.0  0.24359  0.60790  0.46739  1.0000 0.0595706203
C   C102      1.0  0.24359  0.89210  0.96739  1.0000 0.0595706203
C   C103      1.0  0.20423  0.54040  0.42173  1.0000 -0.1585125363
C   C104      1.0  0.20423  0.95960  0.92173  1.0000 -0.1585125363
C   C105      1.0  0.10241  0.48210  0.40021  1.0000 -0.1095858546
C   C106      1.0  0.10241  0.01790  0.90021  1.0000 -0.1095858546
C   C107      1.0  0.03716  0.49460  0.42246  1.0000 -0.0300221883
C   C108      1.0  0.03716  0.00540  0.92246  1.0000 -0.0300221883
C   C109      1.0  0.07361  0.56760  0.46681  1.0000 -0.1003555284
C   C110      1.0  0.07361  0.93240  0.96681  1.0000 -0.1003555284
C   C111      1.0  0.17699  0.62010  0.48959  1.0000 -0.1330472208
C   C112      1.0  0.17699  0.87990  0.98959  1.0000 -0.1330472208
C   C113      1.0  0.92565  0.43600  0.39915  1.0000 0.5478099683
C   C114      1.0  0.92565  0.06400  0.89915  1.0000 0.5478099683
C   C115      1.0  0.60660  0.66730  0.80780  1.0000 -0.345012804
C   C116      1.0  0.60660  0.83270  0.30780  1.0000 -0.345012804
C   C117      1.0  0.55430  0.82390  0.73460  1.0000 -0.3316249153
C   C118      1.0  0.55430  0.67610  0.23460  1.0000 -0.3316249153
C   C119      1.0  0.66110  0.92440  0.81540  1.0000 0.3082140484
C   C120      1.0  0.66110  0.57560  0.31540  1.0000 0.3082140484
C   C121      1.0  0.07430  0.44180  0.93960  1.0000 -0.2856288305
C   C122      1.0  0.98620  0.64290  0.88280  1.0000 -0.2811774811
C   C123      1.0  0.92570  0.94180  0.56040  1.0000 -0.2856288305
C   C124      1.0  0.01380  0.14290  0.61720  1.0000 -0.2811774811
C   C125      1.0  0.92570  0.55820  0.06040  1.0000 -0.2856288305
C   C126      1.0  0.01380  0.35710  0.11720  1.0000 -0.2811774811
C   C127      1.0  0.07430  0.05820  0.43960  1.0000 -0.2856288305
C   C128      1.0  0.98620  0.85710  0.38280  1.0000 -0.2811774811
N   N1        1.0  0.38972  0.31240  0.71332  1.0000 0.0388752413
N   N2        1.0  0.38972  0.18760  0.21332  1.0000 0.0388752413
N   N3        1.0  0.61028  0.81240  0.78668  1.0000 0.0388752413
N   N4        1.0  0.61028  0.68760  0.28668  1.0000 0.0388752413
N   N5        1.0  0.99576  0.48470  0.89156  1.0000 -0.0888319141
N   N6        1.0  0.00424  0.98470  0.60844  1.0000 -0.0888319141
N   N7        1.0  0.00424  0.51530  0.10844  1.0000 -0.0888319141
N   N8        1.0  0.99576  0.01530  0.39156  1.0000 -0.0888319141
O   O1        1.0  0.28464  0.82750  0.72304  1.0000 -0.5569536886
O   O2        1.0  0.28464  0.67250  0.22304  1.0000 -0.5569536886
O   O3        1.0  0.14630  0.96710  0.71090  1.0000 -0.5493257544
O   O4        1.0  0.14630  0.53290  0.21090  1.0000 -0.5493257544
O   O5        1.0  0.18103  0.54650  0.09453  1.0000 -0.5305436156
O   O6        1.0  0.18103  0.95350  0.59453  1.0000 -0.5305436156
O   O7        1.0  0.32077  0.68840  0.12937  1.0000 -0.5493257544
O   O8        1.0  0.32077  0.81160  0.62937  1.0000 -0.5493257544
O   O9        1.0  0.09352  0.83700  0.13402  1.0000 -0.5662783882
O   O10       1.0  0.09352  0.66300  0.63402  1.0000 -0.5662783882
O   O11       1.0  0.14193  0.98280  0.08903  1.0000 -0.5569536886
O   O12       1.0  0.14193  0.51720  0.58903  1.0000 -0.5569536886
O   O13       1.0  0.33287  0.54670  0.69957  1.0000 -0.4202923379
O   O14       1.0  0.33287  0.95330  0.19957  1.0000 -0.4202923379
O   O15       1.0  0.71536  0.32750  0.77696  1.0000 -0.5569536886
O   O16       1.0  0.71536  0.17250  0.27696  1.0000 -0.5569536886
O   O17       1.0  0.85370  0.46710  0.78910  1.0000 -0.5493257544
O   O18       1.0  0.85370  0.03290  0.28910  1.0000 -0.5493257544
O   O19       1.0  0.81897  0.04650  0.40547  1.0000 -0.5305436156
O   O20       1.0  0.81897  0.45350  0.90547  1.0000 -0.5305436156
O   O21       1.0  0.67923  0.18840  0.37063  1.0000 -0.5493257544
O   O22       1.0  0.67923  0.31160  0.87063  1.0000 -0.5493257544
O   O23       1.0  0.90648  0.33700  0.36598  1.0000 -0.5662783882
O   O24       1.0  0.90648  0.16300  0.86598  1.0000 -0.5662783882
O   O25       1.0  0.85807  0.48280  0.41097  1.0000 -0.5569536886
O   O26       1.0  0.85807  0.01720  0.91097  1.0000 -0.5569536886
O   O27       1.0  0.66713  0.04670  0.80043  1.0000 -0.4202923379
O   O28       1.0  0.66713  0.45330  0.30043  1.0000 -0.4202923379
