# DDEC6 charges by PACMAN v1.1 (https://github.com/mtap-research/PACMAN-charge/)
data_2015[Ag][nbo]3[ION]5
_chemical_formula_sum              "Ag6 B6 H48 C54 N24 F24"
_cell_length_a       16.9349
_cell_length_b       16.9349
_cell_length_c       16.9349
_cell_angle_alpha    112.265
_cell_angle_beta     112.265
_cell_angle_gamma    112.265

_symmetry_space_group_name_H-M    "P 1"
_symmetry_Int_Tables_number       1

loop_
  _symmetry_equiv_pos_as_xyz
  'x, y, z'

loop_
  _atom_site_type_symbol
  _atom_site_label
  _atom_site_symmetry_multiplicity
  _atom_site_fract_x
  _atom_site_fract_y
  _atom_site_fract_z
  _atom_site_occupancy
  _atom_site_charge
Ag  Ag1       1.0  0.67094  0.19630  0.32286  1.0000 0.2803541211
Ag  Ag2       1.0  0.19630  0.32286  0.67094  1.0000 0.2803541211
Ag  Ag3       1.0  0.32286  0.67094  0.19630  1.0000 0.2803541211
Ag  Ag4       1.0  0.32906  0.80370  0.67714  1.0000 0.2803541211
Ag  Ag5       1.0  0.80370  0.67714  0.32906  1.0000 0.2803541211
Ag  Ag6       1.0  0.67714  0.32906  0.80370  1.0000 0.2803541211
B   B1        1.0  0.95980  0.43220  0.28310  1.0000 1.00990414
B   B2        1.0  0.28310  0.95980  0.43220  1.0000 1.00990414
B   B3        1.0  0.43220  0.28310  0.95980  1.0000 1.00990414
B   B4        1.0  0.04020  0.56780  0.71690  1.0000 1.00990414
B   B5        1.0  0.71690  0.04020  0.56780  1.0000 1.00990414
B   B6        1.0  0.56780  0.71690  0.04020  1.0000 1.00990414
H   H1        1.0  0.52690  0.17720  0.55650  1.0000 0.120047727
H   H2        1.0  0.17720  0.55650  0.52690  1.0000 0.120047727
H   H3        1.0  0.55650  0.52690  0.17720  1.0000 0.120047727
H   H4        1.0  0.47310  0.82280  0.44350  1.0000 0.120047727
H   H5        1.0  0.82280  0.44350  0.47310  1.0000 0.120047727
H   H6        1.0  0.44350  0.47310  0.82280  1.0000 0.120047727
H   H7        1.0  0.83720  0.39690  0.74680  1.0000 0.1311546552
H   H8        1.0  0.39690  0.74680  0.83720  1.0000 0.1311546552
H   H9        1.0  0.74680  0.83720  0.39690  1.0000 0.1311546552
H   H10       1.0  0.16280  0.60310  0.25320  1.0000 0.1311546552
H   H11       1.0  0.60310  0.25320  0.16280  1.0000 0.1311546552
H   H12       1.0  0.25320  0.16280  0.60310  1.0000 0.1311546552
H   H13       1.0  0.47010  0.78600  0.14530  1.0000 0.120047727
H   H14       1.0  0.78600  0.14530  0.47010  1.0000 0.120047727
H   H15       1.0  0.14530  0.47010  0.78600  1.0000 0.120047727
H   H16       1.0  0.52990  0.21400  0.85470  1.0000 0.120047727
H   H17       1.0  0.21400  0.85470  0.52990  1.0000 0.120047727
H   H18       1.0  0.85470  0.52990  0.21400  1.0000 0.120047727
H   H19       1.0  0.37380  0.91290  0.30130  1.0000 0.1365500142
H   H20       1.0  0.91290  0.30130  0.37380  1.0000 0.1365500142
H   H21       1.0  0.30130  0.37380  0.91290  1.0000 0.1365500142
H   H22       1.0  0.62620  0.08710  0.69870  1.0000 0.1365500142
H   H23       1.0  0.08710  0.69870  0.62620  1.0000 0.1365500142
H   H24       1.0  0.69870  0.62620  0.08710  1.0000 0.1365500142
H   H25       1.0  0.42920  0.09330  0.37060  1.0000 0.1500949773
H   H26       1.0  0.09330  0.37060  0.42920  1.0000 0.1500949773
H   H27       1.0  0.37060  0.42920  0.09330  1.0000 0.1500949773
H   H28       1.0  0.57080  0.90670  0.62940  1.0000 0.1500949773
H   H29       1.0  0.90670  0.62940  0.57080  1.0000 0.1500949773
H   H30       1.0  0.62940  0.57080  0.90670  1.0000 0.1500949773
H   H31       1.0  0.48320  0.14950  0.32910  1.0000 0.1500949773
H   H32       1.0  0.14950  0.32910  0.48320  1.0000 0.1500949773
H   H33       1.0  0.32910  0.48320  0.14950  1.0000 0.1500949773
H   H34       1.0  0.51680  0.85050  0.67090  1.0000 0.1500949773
H   H35       1.0  0.85050  0.67090  0.51680  1.0000 0.1500949773
H   H36       1.0  0.67090  0.51680  0.85050  1.0000 0.1500949773
H   H37       1.0  0.84130  0.35610  0.60320  1.0000 0.120047727
H   H38       1.0  0.35610  0.60320  0.84130  1.0000 0.120047727
H   H39       1.0  0.60320  0.84130  0.35610  1.0000 0.120047727
H   H40       1.0  0.15870  0.64390  0.39680  1.0000 0.120047727
H   H41       1.0  0.64390  0.39680  0.15870  1.0000 0.120047727
H   H42       1.0  0.39680  0.15870  0.64390  1.0000 0.120047727
H   H43       1.0  0.57500  0.94400  0.17850  1.0000 0.1365500142
H   H44       1.0  0.94400  0.17850  0.57500  1.0000 0.1365500142
H   H45       1.0  0.17850  0.57500  0.94400  1.0000 0.1365500142
H   H46       1.0  0.42500  0.05600  0.82150  1.0000 0.1365500142
H   H47       1.0  0.05600  0.82150  0.42500  1.0000 0.1365500142
H   H48       1.0  0.82150  0.42500  0.05600  1.0000 0.1365500142
C   C1        1.0  0.59230  0.21650  0.56700  1.0000 -0.0419694136
C   C2        1.0  0.21650  0.56700  0.59230  1.0000 -0.0419694136
C   C3        1.0  0.56700  0.59230  0.21650  1.0000 -0.0419694136
C   C4        1.0  0.40770  0.78350  0.43300  1.0000 -0.0419694136
C   C5        1.0  0.78350  0.43300  0.40770  1.0000 -0.0419694136
C   C6        1.0  0.43300  0.40770  0.78350  1.0000 -0.0419694136
C   C7        1.0  0.77110  0.34130  0.67620  1.0000 0.0463683369
C   C8        1.0  0.34130  0.67620  0.77110  1.0000 0.0463683369
C   C9        1.0  0.67620  0.77110  0.34130  1.0000 0.0463683369
C   C10       1.0  0.22890  0.65870  0.32380  1.0000 0.0463683369
C   C11       1.0  0.65870  0.32380  0.22890  1.0000 0.0463683369
C   C12       1.0  0.32380  0.22890  0.65870  1.0000 0.0463683369
C   C13       1.0  0.47320  0.84550  0.18620  1.0000 0.0403599094
C   C14       1.0  0.84550  0.18620  0.47320  1.0000 0.0403599094
C   C15       1.0  0.18620  0.47320  0.84550  1.0000 0.0403599094
C   C16       1.0  0.52680  0.15450  0.81380  1.0000 0.0403599094
C   C17       1.0  0.15450  0.81380  0.52680  1.0000 0.0403599094
C   C18       1.0  0.81380  0.52680  0.15450  1.0000 0.0403599094
C   C19       1.0  0.48260  0.01430  0.29900  1.0000 0.2487981456
C   C20       1.0  0.01430  0.29900  0.48260  1.0000 0.2487981456
C   C21       1.0  0.29900  0.48260  0.01430  1.0000 0.2487981456
C   C22       1.0  0.51740  0.98570  0.70100  1.0000 0.2487981456
C   C23       1.0  0.98570  0.70100  0.51740  1.0000 0.2487981456
C   C24       1.0  0.70100  0.51740  0.98570  1.0000 0.2487981456
C   C25       1.0  0.41740  0.92000  0.27820  1.0000 -0.0419694136
C   C26       1.0  0.92000  0.27820  0.41740  1.0000 -0.0419694136
C   C27       1.0  0.27820  0.41740  0.92000  1.0000 -0.0419694136
C   C28       1.0  0.58260  0.08000  0.72180  1.0000 -0.0419694136
C   C29       1.0  0.08000  0.72180  0.58260  1.0000 -0.0419694136
C   C30       1.0  0.72180  0.58260  0.08000  1.0000 -0.0419694136
C   C31       1.0  0.59080  0.19510  0.47380  1.0000 0.2803541211
C   C32       1.0  0.19510  0.47380  0.59080  1.0000 0.2803541211
C   C33       1.0  0.47380  0.59080  0.19510  1.0000 0.2803541211
C   C34       1.0  0.40920  0.80490  0.52620  1.0000 0.2803541211
C   C35       1.0  0.80490  0.52620  0.40920  1.0000 0.2803541211
C   C36       1.0  0.52620  0.40920  0.80490  1.0000 0.2803541211
C   C37       1.0  0.48960  0.11650  0.36620  1.0000 -0.3516563935
C   C38       1.0  0.11650  0.36620  0.48960  1.0000 -0.3516563935
C   C39       1.0  0.36620  0.48960  0.11650  1.0000 -0.3516563935
C   C40       1.0  0.51040  0.88350  0.63380  1.0000 -0.3516563935
C   C41       1.0  0.88350  0.63380  0.51040  1.0000 -0.3516563935
C   C42       1.0  0.63380  0.51040  0.88350  1.0000 -0.3516563935
C   C43       1.0  0.77410  0.32030  0.59070  1.0000 0.0220891411
C   C44       1.0  0.32030  0.59070  0.77410  1.0000 0.0220891411
C   C45       1.0  0.59070  0.77410  0.32030  1.0000 0.0220891411
C   C46       1.0  0.22590  0.67970  0.40930  1.0000 0.0220891411
C   C47       1.0  0.67970  0.40930  0.22590  1.0000 0.0220891411
C   C48       1.0  0.40930  0.22590  0.67970  1.0000 0.0220891411
C   C49       1.0  0.53520  0.93920  0.20600  1.0000 -0.0419694136
C   C50       1.0  0.93920  0.20600  0.53520  1.0000 -0.0419694136
C   C51       1.0  0.20600  0.53520  0.93920  1.0000 -0.0419694136
C   C52       1.0  0.46480  0.06080  0.79400  1.0000 -0.0419694136
C   C53       1.0  0.06080  0.79400  0.46480  1.0000 -0.0419694136
C   C54       1.0  0.79400  0.46480  0.06080  1.0000 -0.0419694136
N   N1        1.0  0.68600  0.29160  0.66760  1.0000 -0.1338452262
N   N2        1.0  0.29160  0.66760  0.68600  1.0000 -0.1338452262
N   N3        1.0  0.66760  0.68600  0.29160  1.0000 -0.1338452262
N   N4        1.0  0.31400  0.70840  0.33240  1.0000 -0.1338452262
N   N5        1.0  0.70840  0.33240  0.31400  1.0000 -0.1338452262
N   N6        1.0  0.33240  0.31400  0.70840  1.0000 -0.1338452262
N   N7        1.0  0.54360  0.03200  0.26680  1.0000 -0.21618835
N   N8        1.0  0.03200  0.26680  0.54360  1.0000 -0.21618835
N   N9        1.0  0.26680  0.54360  0.03200  1.0000 -0.21618835
N   N10       1.0  0.45640  0.96800  0.73320  1.0000 -0.21618835
N   N11       1.0  0.96800  0.73320  0.45640  1.0000 -0.21618835
N   N12       1.0  0.73320  0.45640  0.96800  1.0000 -0.21618835
N   N13       1.0  0.41590  0.83480  0.22300  1.0000 -0.1496895117
N   N14       1.0  0.83480  0.22300  0.41590  1.0000 -0.1496895117
N   N15       1.0  0.22300  0.41590  0.83480  1.0000 -0.1496895117
N   N16       1.0  0.58410  0.16520  0.77700  1.0000 -0.1496895117
N   N17       1.0  0.16520  0.77700  0.58410  1.0000 -0.1496895117
N   N18       1.0  0.77700  0.58410  0.16520  1.0000 -0.1496895117
N   N19       1.0  0.68070  0.24810  0.48840  1.0000 -0.21618835
N   N20       1.0  0.24810  0.48840  0.68070  1.0000 -0.21618835
N   N21       1.0  0.48840  0.68070  0.24810  1.0000 -0.21618835
N   N22       1.0  0.31930  0.75190  0.51160  1.0000 -0.21618835
N   N23       1.0  0.75190  0.51160  0.31930  1.0000 -0.21618835
N   N24       1.0  0.51160  0.31930  0.75190  1.0000 -0.21618835
F   F1        1.0  0.98510  0.53040  0.35430  1.0000 -0.4635323969
F   F2        1.0  0.03540  0.42670  0.32250  1.0000 -0.4361374341
F   F3        1.0  0.95530  0.43780  0.20400  1.0000 -0.4361374341
F   F4        1.0  0.86180  0.36010  0.24860  1.0000 -0.4635323969
F   F5        1.0  0.35430  0.98510  0.53040  1.0000 -0.4635323969
F   F6        1.0  0.32250  0.03540  0.42670  1.0000 -0.4361374341
F   F7        1.0  0.20400  0.95530  0.43780  1.0000 -0.4361374341
F   F8        1.0  0.24860  0.86180  0.36010  1.0000 -0.4635323969
F   F9        1.0  0.53040  0.35430  0.98510  1.0000 -0.4635323969
F   F10       1.0  0.42670  0.32250  0.03540  1.0000 -0.4361374341
F   F11       1.0  0.43780  0.20400  0.95530  1.0000 -0.4361374341
F   F12       1.0  0.36010  0.24860  0.86180  1.0000 -0.4635323969
F   F13       1.0  0.01490  0.46960  0.64570  1.0000 -0.4635323969
F   F14       1.0  0.96460  0.57330  0.67750  1.0000 -0.4361374341
F   F15       1.0  0.04470  0.56220  0.79600  1.0000 -0.4361374341
F   F16       1.0  0.13820  0.63990  0.75140  1.0000 -0.4635323969
F   F17       1.0  0.64570  0.01490  0.46960  1.0000 -0.4635323969
F   F18       1.0  0.67750  0.96460  0.57330  1.0000 -0.4361374341
F   F19       1.0  0.79600  0.04470  0.56220  1.0000 -0.4361374341
F   F20       1.0  0.75140  0.13820  0.63990  1.0000 -0.4635323969
F   F21       1.0  0.46960  0.64570  0.01490  1.0000 -0.4635323969
F   F22       1.0  0.57330  0.67750  0.96460  1.0000 -0.4361374341
F   F23       1.0  0.56220  0.79600  0.04470  1.0000 -0.4361374341
F   F24       1.0  0.63990  0.75140  0.13820  1.0000 -0.4635323969
