# DDEC6 charges by PACMAN v1.1 (https://github.com/mtap-research/PACMAN-charge/)
data_2015[Zn][nan]3[ION]3
_chemical_formula_sum              "Zn4 H34 C52 N2 O24"
_cell_length_a       8.517
_cell_length_b       10.3341
_cell_length_c       18.5278
_cell_angle_alpha    72.1459
_cell_angle_beta     77.5532
_cell_angle_gamma    69.521

_symmetry_space_group_name_H-M    "P 1"
_symmetry_Int_Tables_number       1

loop_
  _symmetry_equiv_pos_as_xyz
  'x, y, z'

loop_
  _atom_site_type_symbol
  _atom_site_label
  _atom_site_symmetry_multiplicity
  _atom_site_fract_x
  _atom_site_fract_y
  _atom_site_fract_z
  _atom_site_occupancy
  _atom_site_charge
Zn  Zn1       1.0  0.67065  0.40814  0.78184  1.0000 0.9153481236
Zn  Zn2       1.0  0.32935  0.59186  0.21816  1.0000 0.9153481236
Zn  Zn3       1.0  0.96237  0.17100  0.69065  1.0000 0.9153481236
Zn  Zn4       1.0  0.03763  0.82900  0.30935  1.0000 0.9153481236
H   H1        1.0  0.94870  0.98690  0.59360  1.0000 0.3748080095
H   H2        1.0  0.05130  0.01310  0.40640  1.0000 0.3748080095
H   H3        1.0  0.70190  0.89040  0.75660  1.0000 0.1217027007
H   H4        1.0  0.29810  0.10960  0.24340  1.0000 0.1217027007
H   H5        1.0  0.32800  0.14840  0.87210  1.0000 0.1217027007
H   H6        1.0  0.67200  0.85160  0.12790  1.0000 0.1217027007
H   H7        1.0  0.24530  0.81290  0.02910  1.0000 0.1312307639
H   H8        1.0  0.75470  0.18710  0.97090  1.0000 0.1312307639
H   H9        1.0  0.27490  0.82080  0.57360  1.0000 0.1217027007
H   H10       1.0  0.72510  0.17920  0.42640  1.0000 0.1217027007
H   H11       1.0  0.55540  0.03080  0.61500  1.0000 0.1217027007
H   H12       1.0  0.44460  0.96920  0.38500  1.0000 0.1217027007
H   H13       1.0  0.31560  0.75210  0.88730  1.0000 0.1312307639
H   H14       1.0  0.68440  0.24790  0.11270  1.0000 0.1312307639
H   H15       1.0  0.78560  0.67120  0.53970  1.0000 0.1312307639
H   H16       1.0  0.21440  0.32880  0.46030  1.0000 0.1312307639
H   H17       1.0  0.32900  0.73490  0.45890  1.0000 0.1312307639
H   H18       1.0  0.67100  0.26510  0.54110  1.0000 0.1312307639
H   H19       1.0  0.02140  0.62690  0.69110  1.0000 0.2690653986
H   H20       1.0  0.03210  0.52230  0.77510  1.0000 0.2690653986
H   H21       1.0  0.25350  0.45710  0.64650  1.0000 0.1416387519
H   H22       1.0  0.24800  0.35160  0.73020  1.0000 0.1416387519
H   H23       1.0  0.09360  0.40050  0.68160  1.0000 0.1416387519
H   H24       1.0  0.30230  0.62330  0.69500  1.0000 0.1416387519
H   H25       1.0  0.15530  0.70830  0.74880  1.0000 0.1455009541
H   H26       1.0  0.27330  0.55170  0.78460  1.0000 0.1416387519
H   H27       1.0  0.97860  0.37310  0.30890  1.0000 0.2690653986
H   H28       1.0  0.96790  0.47770  0.22490  1.0000 0.2690653986
H   H29       1.0  0.74650  0.54290  0.35350  1.0000 0.1416387519
H   H30       1.0  0.75200  0.64840  0.26980  1.0000 0.1416387519
H   H31       1.0  0.90640  0.59950  0.31840  1.0000 0.1416387519
H   H32       1.0  0.69770  0.37670  0.30500  1.0000 0.1416387519
H   H33       1.0  0.84470  0.29170  0.25120  1.0000 0.1455009541
H   H34       1.0  0.72670  0.44830  0.21540  1.0000 0.1416387519
C   C1        1.0  0.60300  0.65871  0.79949  1.0000 0.5605342945
C   C2        1.0  0.39700  0.34129  0.20051  1.0000 0.5605342945
C   C3        1.0  0.52070  0.79998  0.81922  1.0000 -0.0047280548
C   C4        1.0  0.47930  0.20002  0.18078  1.0000 -0.0047280548
C   C5        1.0  0.23600  0.04129  0.62871  1.0000 0.5531682333
C   C6        1.0  0.76400  0.95871  0.37129  1.0000 0.5531682333
C   C7        1.0  0.52800  0.72770  0.55210  1.0000 0.0843192338
C   C8        1.0  0.47200  0.27230  0.44790  1.0000 0.0843192338
C   C9        1.0  0.71810  0.42054  0.61626  1.0000 0.5939959845
C   C10       1.0  0.28190  0.57946  0.38374  1.0000 0.5939959845
C   C11       1.0  0.52840  0.03554  0.81046  1.0000 -0.0113409086
C   C12       1.0  0.47160  0.96446  0.18954  1.0000 -0.0113409086
C   C13       1.0  0.59950  0.90628  0.79022  1.0000 -0.1156754533
C   C14       1.0  0.40050  0.09372  0.20978  1.0000 -0.1148746649
C   C15       1.0  0.86270  0.86118  0.58152  1.0000 0.5531682333
C   C16       1.0  0.13730  0.13882  0.41848  1.0000 0.5531682333
C   C17       1.0  0.51340  0.60988  0.52662  1.0000 0.0535893811
C   C18       1.0  0.48660  0.39012  0.47338  1.0000 0.0535893811
C   C19       1.0  0.37680  0.05969  0.85871  1.0000 -0.1476642727
C   C20       1.0  0.62320  0.94031  0.14129  1.0000 -0.1476642727
C   C21       1.0  0.14010  0.97769  0.94301  1.0000 0.0535893811
C   C22       1.0  0.85990  0.02231  0.05699  1.0000 0.0535893811
C   C23       1.0  0.14550  0.88953  0.01707  1.0000 -0.1618263834
C   C24       1.0  0.85450  0.11047  0.98293  1.0000 -0.1618263834
C   C25       1.0  0.38240  0.82813  0.57487  1.0000 -0.1476642727
C   C26       1.0  0.61760  0.17187  0.42513  1.0000 -0.1476642727
C   C27       1.0  0.61970  0.14584  0.78266  1.0000 0.5939959845
C   C28       1.0  0.38030  0.85416  0.21734  1.0000 0.5939959845
C   C29       1.0  0.54840  0.95329  0.59981  1.0000 -0.1148746649
C   C30       1.0  0.45160  0.04671  0.40019  1.0000 -0.1148746649
C   C31       1.0  0.96220  0.18044  0.84626  1.0000 0.5970863661
C   C32       1.0  0.03780  0.81956  0.15374  1.0000 0.5970863661
C   C33       1.0  0.36930  0.82457  0.86763  1.0000 -0.1476642727
C   C34       1.0  0.63070  0.17543  0.13237  1.0000 -0.1476642727
C   C35       1.0  0.61410  0.46753  0.55147  1.0000 -0.0562423879
C   C36       1.0  0.38590  0.53247  0.44853  1.0000 -0.0562423879
C   C37       1.0  0.68500  0.73986  0.55424  1.0000 -0.1290291289
C   C38       1.0  0.31500  0.26014  0.44576  1.0000 -0.1290291289
C   C39       1.0  0.39210  0.93943  0.59957  1.0000 -0.0113409086
C   C40       1.0  0.60790  0.06057  0.40043  1.0000 -0.0113409086
C   C41       1.0  0.99120  0.08955  0.92605  1.0000 -0.0498599859
C   C42       1.0  0.00880  0.91045  0.07395  1.0000 -0.0498599859
C   C43       1.0  0.29610  0.95455  0.88745  1.0000 0.0843192338
C   C44       1.0  0.70390  0.04545  0.11255  1.0000 0.0843192338
C   C45       1.0  0.69470  0.85247  0.57763  1.0000 -0.0342664087
C   C46       1.0  0.30530  0.14753  0.42237  1.0000 -0.0342664087
C   C47       1.0  0.39910  0.63975  0.47555  1.0000 -0.1432073602
C   C48       1.0  0.60090  0.36025  0.52445  1.0000 -0.1432073602
C   C49       1.0  0.18020  0.43050  0.69350  1.0000 -0.2787482777
C   C50       1.0  0.21730  0.61400  0.73970  1.0000 -0.2908435503
C   C51       1.0  0.81980  0.56950  0.30650  1.0000 -0.2787482777
C   C52       1.0  0.78270  0.38600  0.26030  1.0000 -0.2908435503
N   N1        1.0  0.09990  0.55215  0.72605  1.0000 -0.1048784891
N   N2        1.0  0.90010  0.44785  0.27395  1.0000 -0.1048784891
O   O1        1.0  0.52460  0.56430  0.82783  1.0000 -0.5511592904
O   O2        1.0  0.47540  0.43570  0.17217  1.0000 -0.5511592904
O   O3        1.0  0.09590  0.01085  0.64145  1.0000 -0.5597016254
O   O4        1.0  0.90410  0.98915  0.35855  1.0000 -0.5597016254
O   O5        1.0  0.85910  0.99097  0.57983  1.0000 -0.456388835
O   O6        1.0  0.14090  0.00903  0.42017  1.0000 -0.456388835
O   O7        1.0  0.64500  0.46586  0.67404  1.0000 -0.5511592904
O   O8        1.0  0.35500  0.53414  0.32596  1.0000 -0.5448837319
O   O9        1.0  0.74350  0.12497  0.73233  1.0000 -0.5597016254
O   O10       1.0  0.25650  0.87503  0.26767  1.0000 -0.5597016254
O   O11       1.0  0.74060  0.63548  0.75862  1.0000 -0.5668042341
O   O12       1.0  0.25940  0.36452  0.24138  1.0000 -0.5668042341
O   O13       1.0  0.86570  0.30632  0.83948  1.0000 -0.5511592904
O   O14       1.0  0.13430  0.69368  0.16052  1.0000 -0.5511592904
O   O15       1.0  0.23940  0.14983  0.64304  1.0000 -0.5008217359
O   O16       1.0  0.76060  0.85017  0.35696  1.0000 -0.5008217359
O   O17       1.0  0.56660  0.25009  0.81271  1.0000 -0.5448837319
O   O18       1.0  0.43340  0.74991  0.18729  1.0000 -0.5448837319
O   O19       1.0  0.86530  0.33622  0.60948  1.0000 -0.531813387
O   O20       1.0  0.13470  0.66378  0.39052  1.0000 -0.531813387
O   O21       1.0  0.03140  0.12148  0.79292  1.0000 -0.5160985628
O   O22       1.0  0.96860  0.87852  0.20708  1.0000 -0.5160985628
O   O23       1.0  0.99050  0.75928  0.58742  1.0000 -0.5008217359
O   O24       1.0  0.00950  0.24072  0.41258  1.0000 -0.5008217359
