# DDEC6 charges by PACMAN v1.1 (https://github.com/mtap-research/PACMAN-charge/)
data_2015[Zn][sra]3[ION]1
_chemical_formula_sum              "Zn4 H44 C44 N4 O24"
_cell_length_a       9.4469
_cell_length_b       16.2456
_cell_length_c       13.9742
_cell_angle_alpha    90
_cell_angle_beta     125.113
_cell_angle_gamma    90

_symmetry_space_group_name_H-M    "P 1"
_symmetry_Int_Tables_number       1

loop_
  _symmetry_equiv_pos_as_xyz
  'x, y, z'

loop_
  _atom_site_type_symbol
  _atom_site_label
  _atom_site_symmetry_multiplicity
  _atom_site_fract_x
  _atom_site_fract_y
  _atom_site_fract_z
  _atom_site_occupancy
  _atom_site_charge
Zn  Zn1       1.0  0.18337  0.07972  0.54689  1.0000 0.9078999783
Zn  Zn2       1.0  0.81663  0.57972  0.95311  1.0000 0.9078999783
Zn  Zn3       1.0  0.81663  0.92028  0.45311  1.0000 0.9078999783
Zn  Zn4       1.0  0.18337  0.42028  0.04689  1.0000 0.9078999783
H   H1        1.0  0.23270  0.75180  0.16840  1.0000 0.1292092236
H   H2        1.0  0.76730  0.25180  0.33160  1.0000 0.1292092236
H   H3        1.0  0.76730  0.24820  0.83160  1.0000 0.1292092236
H   H4        1.0  0.23270  0.74820  0.66840  1.0000 0.1292092236
H   H5        1.0  0.33090  0.93570  0.38950  1.0000 0.1292092236
H   H6        1.0  0.66910  0.43570  0.11050  1.0000 0.1292092236
H   H7        1.0  0.66910  0.06430  0.61050  1.0000 0.1292092236
H   H8        1.0  0.33090  0.56430  0.88950  1.0000 0.1292092236
H   H9        1.0  0.87450  0.81930  0.22130  1.0000 0.1292092236
H   H10       1.0  0.12550  0.31930  0.27870  1.0000 0.1292092236
H   H11       1.0  0.12550  0.18070  0.77870  1.0000 0.1292092236
H   H12       1.0  0.87450  0.68070  0.72130  1.0000 0.1292092236
H   H13       1.0  0.62140  0.80510  0.79060  1.0000 0.263406905
H   H14       1.0  0.62410  0.88560  0.83510  1.0000 0.246924075
H   H15       1.0  0.88150  0.84220  0.92910  1.0000 0.1219684184
H   H16       1.0  0.86350  0.91630  0.85090  1.0000 0.1219684184
H   H17       1.0  0.86240  0.82570  0.81160  1.0000 0.1292092236
H   H18       1.0  0.41970  0.88280  0.65640  1.0000 0.1292092236
H   H19       1.0  0.54700  0.85350  0.62550  1.0000 0.1357945378
H   H20       1.0  0.56250  0.94270  0.67340  1.0000 0.1219684184
H   H21       1.0  0.37860  0.30510  0.70940  1.0000 0.263406905
H   H22       1.0  0.37590  0.38560  0.66490  1.0000 0.246924075
H   H23       1.0  0.11850  0.34220  0.57090  1.0000 0.1219684184
H   H24       1.0  0.13650  0.41630  0.64910  1.0000 0.1219684184
H   H25       1.0  0.13760  0.32570  0.68840  1.0000 0.1292092236
H   H26       1.0  0.58030  0.38280  0.84360  1.0000 0.1292092236
H   H27       1.0  0.45300  0.35350  0.87450  1.0000 0.1357945378
H   H28       1.0  0.43750  0.44270  0.82660  1.0000 0.1219684184
H   H29       1.0  0.37860  0.19490  0.20940  1.0000 0.263406905
H   H30       1.0  0.37590  0.11440  0.16490  1.0000 0.246924075
H   H31       1.0  0.11850  0.15780  0.07090  1.0000 0.1219684184
H   H32       1.0  0.13650  0.08370  0.14910  1.0000 0.1219684184
H   H33       1.0  0.13760  0.17430  0.18840  1.0000 0.1292092236
H   H34       1.0  0.58030  0.11720  0.34360  1.0000 0.1292092236
H   H35       1.0  0.45300  0.14650  0.37450  1.0000 0.1357945378
H   H36       1.0  0.43750  0.05730  0.32660  1.0000 0.1219684184
H   H37       1.0  0.62140  0.69490  0.29060  1.0000 0.263406905
H   H38       1.0  0.62410  0.61440  0.33510  1.0000 0.246924075
H   H39       1.0  0.88150  0.65780  0.42910  1.0000 0.1219684184
H   H40       1.0  0.86350  0.58370  0.35090  1.0000 0.1219684184
H   H41       1.0  0.86240  0.67430  0.31160  1.0000 0.1292092236
H   H42       1.0  0.41970  0.61720  0.15640  1.0000 0.1292092236
H   H43       1.0  0.54700  0.64650  0.12550  1.0000 0.1357945378
H   H44       1.0  0.56250  0.55730  0.17340  1.0000 0.1219684184
C   C1        1.0  0.19840  0.78525  0.20560  1.0000 -0.1119995614
C   C2        1.0  0.80160  0.28525  0.29440  1.0000 -0.1119995614
C   C3        1.0  0.80160  0.21475  0.79440  1.0000 -0.1119995614
C   C4        1.0  0.19840  0.71475  0.70560  1.0000 -0.1119995614
C   C5        1.0  0.03590  0.77509  0.18250  1.0000 -0.0208774985
C   C6        1.0  0.96410  0.27509  0.31750  1.0000 -0.0208774985
C   C7        1.0  0.96410  0.22491  0.81750  1.0000 -0.0208774985
C   C8        1.0  0.03590  0.72491  0.68250  1.0000 -0.0208774985
C   C9        1.0  0.30970  0.84478  0.28340  1.0000 -0.0287850829
C   C10       1.0  0.69030  0.34478  0.21660  1.0000 -0.0287850829
C   C11       1.0  0.69030  0.15522  0.71660  1.0000 -0.0287850829
C   C12       1.0  0.30970  0.65522  0.78340  1.0000 -0.0287850829
C   C13       1.0  0.48860  0.85265  0.31310  1.0000 0.5559795524
C   C14       1.0  0.51140  0.35265  0.18690  1.0000 0.5559795524
C   C15       1.0  0.51140  0.14735  0.68690  1.0000 0.5559795524
C   C16       1.0  0.48860  0.64735  0.81310  1.0000 0.5559795524
C   C17       1.0  0.09510  0.88552  0.31560  1.0000 -0.0287850829
C   C18       1.0  0.90490  0.38552  0.18440  1.0000 -0.0287850829
C   C19       1.0  0.90490  0.11448  0.68440  1.0000 -0.0287850829
C   C20       1.0  0.09510  0.61448  0.81560  1.0000 -0.0287850829
C   C21       1.0  0.25670  0.89512  0.33770  1.0000 -0.1119995614
C   C22       1.0  0.74330  0.39512  0.16230  1.0000 -0.1119995614
C   C23       1.0  0.74330  0.10488  0.66230  1.0000 -0.1119995614
C   C24       1.0  0.25670  0.60488  0.83770  1.0000 -0.1119995614
C   C25       1.0  0.91730  0.70747  0.10230  1.0000 0.5347967173
C   C26       1.0  0.08270  0.20747  0.39770  1.0000 0.5347967173
C   C27       1.0  0.08270  0.29253  0.89770  1.0000 0.5347967173
C   C28       1.0  0.91730  0.79253  0.60230  1.0000 0.5347967173
C   C29       1.0  0.98400  0.82561  0.23720  1.0000 -0.1187113554
C   C30       1.0  0.01600  0.32561  0.26280  1.0000 -0.1187113554
C   C31       1.0  0.01600  0.17439  0.76280  1.0000 -0.1187113554
C   C32       1.0  0.98400  0.67439  0.73720  1.0000 -0.1187113554
C   C33       1.0  0.04290  0.93719  0.37910  1.0000 0.5822300936
C   C34       1.0  0.95710  0.43719  0.12090  1.0000 0.5822300936
C   C35       1.0  0.95710  0.06281  0.62090  1.0000 0.5822300936
C   C36       1.0  0.04290  0.56281  0.87910  1.0000 0.5822300936
C   C37       1.0  0.82800  0.86080  0.85020  1.0000 -0.2424590023
C   C38       1.0  0.53600  0.88640  0.67790  1.0000 -0.2424590023
C   C39       1.0  0.17200  0.36080  0.64980  1.0000 -0.2424590023
C   C40       1.0  0.46400  0.38640  0.82210  1.0000 -0.2424590023
C   C41       1.0  0.17200  0.13920  0.14980  1.0000 -0.2424590023
C   C42       1.0  0.46400  0.11360  0.32210  1.0000 -0.2424590023
C   C43       1.0  0.82800  0.63920  0.35020  1.0000 -0.2424590023
C   C44       1.0  0.53600  0.61360  0.17790  1.0000 -0.2424590023
N   N1        1.0  0.64920  0.85810  0.79070  1.0000 -0.0998699715
N   N2        1.0  0.35080  0.35810  0.70930  1.0000 -0.0998699715
N   N3        1.0  0.35080  0.14190  0.20930  1.0000 -0.0998699715
N   N4        1.0  0.64920  0.64190  0.29070  1.0000 -0.0998699715
O   O1        1.0  0.15832  0.97980  0.46017  1.0000 -0.539387924
O   O2        1.0  0.84168  0.47980  0.03983  1.0000 -0.539387924
O   O3        1.0  0.84168  0.02020  0.53983  1.0000 -0.539387924
O   O4        1.0  0.15832  0.52020  0.96017  1.0000 -0.539387924
O   O5        1.0  0.88918  0.93238  0.34747  1.0000 -0.5308006232
O   O6        1.0  0.11082  0.43238  0.15253  1.0000 -0.5308006232
O   O7        1.0  0.11082  0.06762  0.65253  1.0000 -0.5308006232
O   O8        1.0  0.88918  0.56762  0.84747  1.0000 -0.5308006232
O   O9        1.0  0.78480  0.69239  0.09460  1.0000 -0.5233063673
O   O10       1.0  0.21520  0.19239  0.40540  1.0000 -0.5233063673
O   O11       1.0  0.21520  0.30761  0.90540  1.0000 -0.5233063673
O   O12       1.0  0.78480  0.80761  0.59460  1.0000 -0.5233063673
O   O13       1.0  0.96946  0.66724  0.05086  1.0000 -0.5500771379
O   O14       1.0  0.03054  0.16724  0.44914  1.0000 -0.5500771379
O   O15       1.0  0.03054  0.33276  0.94914  1.0000 -0.5500771379
O   O16       1.0  0.96946  0.83276  0.55086  1.0000 -0.5500771379
O   O17       1.0  0.54960  0.79690  0.28760  1.0000 -0.5500771379
O   O18       1.0  0.45040  0.29690  0.21240  1.0000 -0.5500771379
O   O19       1.0  0.45040  0.20310  0.71240  1.0000 -0.5500771379
O   O20       1.0  0.54960  0.70310  0.78760  1.0000 -0.5500771379
O   O21       1.0  0.56754  0.91844  0.36418  1.0000 -0.539387924
O   O22       1.0  0.43246  0.41844  0.13582  1.0000 -0.539387924
O   O23       1.0  0.43246  0.08156  0.63582  1.0000 -0.539387924
O   O24       1.0  0.56754  0.58156  0.86418  1.0000 -0.539387924
