# DDEC6 charges by PACMAN v1.1 (https://github.com/mtap-research/PACMAN-charge/)
data_2015[Ag][nbo]3[ION]3
_chemical_formula_sum              "Ag6 P6 H48 C54 N24 F36"
_cell_length_a       17.4101
_cell_length_b       17.4101
_cell_length_c       17.4101
_cell_angle_alpha    112.541
_cell_angle_beta     112.541
_cell_angle_gamma    112.541

_symmetry_space_group_name_H-M    "P 1"
_symmetry_Int_Tables_number       1

loop_
  _symmetry_equiv_pos_as_xyz
  'x, y, z'

loop_
  _atom_site_type_symbol
  _atom_site_label
  _atom_site_symmetry_multiplicity
  _atom_site_fract_x
  _atom_site_fract_y
  _atom_site_fract_z
  _atom_site_occupancy
  _atom_site_charge
Ag  Ag1       1.0  0.20511  0.34490  0.67971  1.0000 0.292560677
Ag  Ag2       1.0  0.34490  0.67971  0.20511  1.0000 0.292560677
Ag  Ag3       1.0  0.67971  0.20511  0.34490  1.0000 0.292560677
Ag  Ag4       1.0  0.79489  0.65510  0.32029  1.0000 0.292560677
Ag  Ag5       1.0  0.65510  0.32029  0.79489  1.0000 0.292560677
Ag  Ag6       1.0  0.32029  0.79489  0.65510  1.0000 0.292560677
P   P1        1.0  0.94359  0.39778  0.24190  1.0000 1.4445914827
P   P2        1.0  0.24190  0.94359  0.39778  1.0000 1.4553762875
P   P3        1.0  0.39778  0.24190  0.94359  1.0000 1.4506028893
P   P4        1.0  0.05641  0.60222  0.75810  1.0000 1.4553762875
P   P5        1.0  0.75810  0.05641  0.60222  1.0000 1.4506028893
P   P6        1.0  0.60222  0.75810  0.05641  1.0000 1.4506028893
H   H1        1.0  0.16870  0.54860  0.51890  1.0000 0.1309794453
H   H2        1.0  0.54860  0.51890  0.16870  1.0000 0.1309794453
H   H3        1.0  0.51890  0.16870  0.54860  1.0000 0.1309794453
H   H4        1.0  0.83130  0.45140  0.48110  1.0000 0.1309794453
H   H5        1.0  0.45140  0.48110  0.83130  1.0000 0.1309794453
H   H6        1.0  0.48110  0.83130  0.45140  1.0000 0.1309794453
H   H7        1.0  0.07960  0.36680  0.42980  1.0000 0.1557949833
H   H8        1.0  0.36680  0.42980  0.07960  1.0000 0.1557949833
H   H9        1.0  0.42980  0.07960  0.36680  1.0000 0.1557949833
H   H10       1.0  0.92040  0.63320  0.57020  1.0000 0.1557949833
H   H11       1.0  0.63320  0.57020  0.92040  1.0000 0.1557949833
H   H12       1.0  0.57020  0.92040  0.63320  1.0000 0.1557949833
H   H13       1.0  0.14140  0.33400  0.48690  1.0000 0.1431011907
H   H14       1.0  0.33400  0.48690  0.14140  1.0000 0.1431011907
H   H15       1.0  0.48690  0.14140  0.33400  1.0000 0.1431011907
H   H16       1.0  0.85860  0.66600  0.51310  1.0000 0.1431011907
H   H17       1.0  0.66600  0.51310  0.85860  1.0000 0.1431011907
H   H18       1.0  0.51310  0.85860  0.66600  1.0000 0.1431011907
H   H19       1.0  0.39800  0.75770  0.82810  1.0000 0.1309794453
H   H20       1.0  0.75770  0.82810  0.39800  1.0000 0.1309794453
H   H21       1.0  0.82810  0.39800  0.75770  1.0000 0.1309794453
H   H22       1.0  0.60200  0.24230  0.17190  1.0000 0.1309794453
H   H23       1.0  0.24230  0.17190  0.60200  1.0000 0.1309794453
H   H24       1.0  0.17190  0.60200  0.24230  1.0000 0.1309794453
H   H25       1.0  0.91470  0.31650  0.39750  1.0000 0.1309794453
H   H26       1.0  0.31650  0.39750  0.91470  1.0000 0.1309794453
H   H27       1.0  0.39750  0.91470  0.31650  1.0000 0.1309794453
H   H28       1.0  0.08530  0.68350  0.60250  1.0000 0.1309794453
H   H29       1.0  0.68350  0.60250  0.08530  1.0000 0.1309794453
H   H30       1.0  0.60250  0.08530  0.68350  1.0000 0.1309794453
H   H31       1.0  0.36200  0.62340  0.83970  1.0000 0.1309794453
H   H32       1.0  0.62340  0.83970  0.36200  1.0000 0.1309794453
H   H33       1.0  0.83970  0.36200  0.62340  1.0000 0.1309794453
H   H34       1.0  0.63800  0.37660  0.16030  1.0000 0.1309794453
H   H35       1.0  0.37660  0.16030  0.63800  1.0000 0.1309794453
H   H36       1.0  0.16030  0.63800  0.37660  1.0000 0.1309794453
H   H37       1.0  0.80560  0.16070  0.49110  1.0000 0.1228374891
H   H38       1.0  0.16070  0.49110  0.80560  1.0000 0.1228374891
H   H39       1.0  0.49110  0.80560  0.16070  1.0000 0.1228374891
H   H40       1.0  0.19440  0.83930  0.50890  1.0000 0.1228374891
H   H41       1.0  0.83930  0.50890  0.19440  1.0000 0.1228374891
H   H42       1.0  0.50890  0.19440  0.83930  1.0000 0.1228374891
H   H43       1.0  0.96720  0.20000  0.59260  1.0000 0.1309794453
H   H44       1.0  0.20000  0.59260  0.96720  1.0000 0.1309794453
H   H45       1.0  0.59260  0.96720  0.20000  1.0000 0.1309794453
H   H46       1.0  0.03280  0.80000  0.40740  1.0000 0.1309794453
H   H47       1.0  0.80000  0.40740  0.03280  1.0000 0.1309794453
H   H48       1.0  0.40740  0.03280  0.80000  1.0000 0.1309794453
C   C1        1.0  0.02040  0.31080  0.49370  1.0000 0.2396337218
C   C2        1.0  0.31080  0.49370  0.02040  1.0000 0.2396337218
C   C3        1.0  0.49370  0.02040  0.31080  1.0000 0.2396337218
C   C4        1.0  0.97960  0.68920  0.50630  1.0000 0.2396337218
C   C5        1.0  0.68920  0.50630  0.97960  1.0000 0.2396337218
C   C6        1.0  0.50630  0.97960  0.68920  1.0000 0.2396337218
C   C7        1.0  0.19372  0.48365  0.59033  1.0000 0.2396337218
C   C8        1.0  0.48365  0.59033  0.19372  1.0000 0.2396337218
C   C9        1.0  0.59033  0.19372  0.48365  1.0000 0.2396337218
C   C10       1.0  0.80628  0.51635  0.40967  1.0000 0.2396337218
C   C11       1.0  0.51635  0.40967  0.80628  1.0000 0.2396337218
C   C12       1.0  0.40967  0.80628  0.51635  1.0000 0.2396337218
C   C13       1.0  0.21146  0.56500  0.58544  1.0000 -0.0221059328
C   C14       1.0  0.56500  0.58544  0.21146  1.0000 -0.0221059328
C   C15       1.0  0.58544  0.21146  0.56500  1.0000 -0.0221059328
C   C16       1.0  0.78854  0.43500  0.41456  1.0000 -0.0221059328
C   C17       1.0  0.43500  0.41456  0.78854  1.0000 -0.0221059328
C   C18       1.0  0.41456  0.78854  0.43500  1.0000 -0.0221059328
C   C19       1.0  0.10910  0.36980  0.49300  1.0000 -0.351483464
C   C20       1.0  0.36980  0.49300  0.10910  1.0000 -0.351483464
C   C21       1.0  0.49300  0.10910  0.36980  1.0000 -0.351483464
C   C22       1.0  0.89090  0.63020  0.50700  1.0000 -0.351483464
C   C23       1.0  0.63020  0.50700  0.89090  1.0000 -0.351483464
C   C24       1.0  0.50700  0.89090  0.63020  1.0000 -0.351483464
C   C25       1.0  0.34320  0.68630  0.76500  1.0000 0.0379623468
C   C26       1.0  0.68630  0.76500  0.34320  1.0000 0.0379623468
C   C27       1.0  0.76500  0.34320  0.68630  1.0000 0.0379623468
C   C28       1.0  0.65680  0.31370  0.23500  1.0000 0.0379623468
C   C29       1.0  0.31370  0.23500  0.65680  1.0000 0.0379623468
C   C30       1.0  0.23500  0.65680  0.31370  1.0000 0.0379623468
C   C31       1.0  0.92410  0.29100  0.43700  1.0000 -0.0050928259
C   C32       1.0  0.29100  0.43700  0.92410  1.0000 -0.0050928259
C   C33       1.0  0.43700  0.92410  0.29100  1.0000 -0.0050928259
C   C34       1.0  0.07590  0.70900  0.56300  1.0000 -0.0050928259
C   C35       1.0  0.70900  0.56300  0.07590  1.0000 -0.0050928259
C   C36       1.0  0.56300  0.07590  0.70900  1.0000 -0.0050928259
C   C37       1.0  0.32350  0.60640  0.77190  1.0000 0.0497188322
C   C38       1.0  0.60640  0.77190  0.32350  1.0000 0.0497188322
C   C39       1.0  0.77190  0.32350  0.60640  1.0000 0.0497188322
C   C40       1.0  0.67650  0.39360  0.22810  1.0000 0.0497188322
C   C41       1.0  0.39360  0.22810  0.67650  1.0000 0.0497188322
C   C42       1.0  0.22810  0.67650  0.39360  1.0000 0.0497188322
C   C43       1.0  0.86130  0.20180  0.49210  1.0000 0.0379623468
C   C44       1.0  0.20180  0.49210  0.86130  1.0000 0.0379623468
C   C45       1.0  0.49210  0.86130  0.20180  1.0000 0.0379623468
C   C46       1.0  0.13870  0.79820  0.50790  1.0000 0.0379623468
C   C47       1.0  0.79820  0.50790  0.13870  1.0000 0.0379623468
C   C48       1.0  0.50790  0.13870  0.79820  1.0000 0.0379623468
C   C49       1.0  0.95750  0.22370  0.55130  1.0000 0.0624353664
C   C50       1.0  0.22370  0.55130  0.95750  1.0000 0.0624353664
C   C51       1.0  0.55130  0.95750  0.22370  1.0000 0.0624353664
C   C52       1.0  0.04250  0.77630  0.44870  1.0000 0.0624353664
C   C53       1.0  0.77630  0.44870  0.04250  1.0000 0.0624353664
C   C54       1.0  0.44870  0.04250  0.77630  1.0000 0.0624353664
N   N1        1.0  0.28882  0.66806  0.67322  1.0000 -0.1376100479
N   N2        1.0  0.66806  0.67322  0.28882  1.0000 -0.1376100479
N   N3        1.0  0.67322  0.28882  0.66806  1.0000 -0.1376100479
N   N4        1.0  0.71118  0.33194  0.32678  1.0000 -0.1376100479
N   N5        1.0  0.33194  0.32678  0.71118  1.0000 -0.1376100479
N   N6        1.0  0.32678  0.71118  0.33194  1.0000 -0.1376100479
N   N7        1.0  0.03702  0.27693  0.55235  1.0000 -0.2018832785
N   N8        1.0  0.27693  0.55235  0.03702  1.0000 -0.2018832785
N   N9        1.0  0.55235  0.03702  0.27693  1.0000 -0.2018832785
N   N10       1.0  0.96298  0.72307  0.44765  1.0000 -0.2018832785
N   N11       1.0  0.72307  0.44765  0.96298  1.0000 -0.2018832785
N   N12       1.0  0.44765  0.96298  0.72307  1.0000 -0.2018832785
N   N13       1.0  0.24951  0.50289  0.68360  1.0000 -0.2260672174
N   N14       1.0  0.50289  0.68360  0.24951  1.0000 -0.2260672174
N   N15       1.0  0.68360  0.24951  0.50289  1.0000 -0.2260672174
N   N16       1.0  0.75049  0.49711  0.31640  1.0000 -0.2260672174
N   N17       1.0  0.49711  0.31640  0.75049  1.0000 -0.2260672174
N   N18       1.0  0.31640  0.75049  0.49711  1.0000 -0.2260672174
N   N19       1.0  0.84408  0.23692  0.43610  1.0000 -0.1474506033
N   N20       1.0  0.23692  0.43610  0.84408  1.0000 -0.1474506033
N   N21       1.0  0.43610  0.84408  0.23692  1.0000 -0.1474506033
N   N22       1.0  0.15592  0.76308  0.56390  1.0000 -0.1474506033
N   N23       1.0  0.76308  0.56390  0.15592  1.0000 -0.1474506033
N   N24       1.0  0.56390  0.15592  0.76308  1.0000 -0.1474506033
F   F1        1.0  0.96680  0.50630  0.30550  1.0000 -0.4376915443
F   F2        1.0  0.82930  0.34600  0.14550  1.0000 -0.3998644492
F   F3        1.0  0.92540  0.29210  0.16810  1.0000 -0.3622230935
F   F4        1.0  0.98510  0.44530  0.19250  1.0000 -0.3660004137
F   F5        1.0  0.06170  0.45060  0.33170  1.0000 -0.4376915443
F   F6        1.0  0.89330  0.33470  0.27070  1.0000 -0.3911058404
F   F7        1.0  0.30550  0.96680  0.50630  1.0000 -0.4376915443
F   F8        1.0  0.14550  0.82930  0.34600  1.0000 -0.3998644492
F   F9        1.0  0.16810  0.92540  0.29210  1.0000 -0.3622230935
F   F10       1.0  0.19250  0.98510  0.44530  1.0000 -0.3660004137
F   F11       1.0  0.33170  0.06170  0.45060  1.0000 -0.4376915443
F   F12       1.0  0.27070  0.89330  0.33470  1.0000 -0.3911058404
F   F13       1.0  0.50630  0.30550  0.96680  1.0000 -0.4376915443
F   F14       1.0  0.34600  0.14550  0.82930  1.0000 -0.3998644492
F   F15       1.0  0.29210  0.16810  0.92540  1.0000 -0.3622230935
F   F16       1.0  0.44530  0.19250  0.98510  1.0000 -0.3622230935
F   F17       1.0  0.45060  0.33170  0.06170  1.0000 -0.4376915443
F   F18       1.0  0.33470  0.27070  0.89330  1.0000 -0.3911058404
F   F19       1.0  0.03320  0.49370  0.69450  1.0000 -0.4376915443
F   F20       1.0  0.17070  0.65400  0.85450  1.0000 -0.3998644492
F   F21       1.0  0.07460  0.70790  0.83190  1.0000 -0.3622230935
F   F22       1.0  0.01490  0.55470  0.80750  1.0000 -0.3660004137
F   F23       1.0  0.93830  0.54940  0.66830  1.0000 -0.4376915443
F   F24       1.0  0.10670  0.66530  0.72930  1.0000 -0.3911058404
F   F25       1.0  0.69450  0.03320  0.49370  1.0000 -0.4376915443
F   F26       1.0  0.85450  0.17070  0.65400  1.0000 -0.3998644492
F   F27       1.0  0.83190  0.07460  0.70790  1.0000 -0.3660004137
F   F28       1.0  0.80750  0.01490  0.55470  1.0000 -0.3660004137
F   F29       1.0  0.66830  0.93830  0.54940  1.0000 -0.4376915443
F   F30       1.0  0.72930  0.10670  0.66530  1.0000 -0.3911058404
F   F31       1.0  0.49370  0.69450  0.03320  1.0000 -0.4376915443
F   F32       1.0  0.65400  0.85450  0.17070  1.0000 -0.3998644492
F   F33       1.0  0.70790  0.83190  0.07460  1.0000 -0.3622230935
F   F34       1.0  0.55470  0.80750  0.01490  1.0000 -0.3660004137
F   F35       1.0  0.54940  0.66830  0.93830  1.0000 -0.4376915443
F   F36       1.0  0.66530  0.72930  0.10670  1.0000 -0.3998644492
