# DDEC6 charges by PACMAN v1.1 (https://github.com/mtap-research/PACMAN-charge/)
data_2015[Ag][nbo]3[ION]2
_chemical_formula_sum              "Ag6 P6 H48 C54 N24 F36"
_cell_length_a       17.2973
_cell_length_b       17.2973
_cell_length_c       17.2973
_cell_angle_alpha    114.247
_cell_angle_beta     114.247
_cell_angle_gamma    114.247

_symmetry_space_group_name_H-M    "P 1"
_symmetry_Int_Tables_number       1

loop_
  _symmetry_equiv_pos_as_xyz
  'x, y, z'

loop_
  _atom_site_type_symbol
  _atom_site_label
  _atom_site_symmetry_multiplicity
  _atom_site_fract_x
  _atom_site_fract_y
  _atom_site_fract_z
  _atom_site_occupancy
  _atom_site_charge
Ag  Ag1       1.0  0.81304  0.68392  0.14270  1.0000 0.293287298
Ag  Ag2       1.0  0.68392  0.14270  0.81304  1.0000 0.293287298
Ag  Ag3       1.0  0.14270  0.81304  0.68392  1.0000 0.293287298
Ag  Ag4       1.0  0.18696  0.31608  0.85730  1.0000 0.293287298
Ag  Ag5       1.0  0.31608  0.85730  0.18696  1.0000 0.293287298
Ag  Ag6       1.0  0.85730  0.18696  0.31608  1.0000 0.293287298
P   P1        1.0  0.39236  0.70761  0.87353  1.0000 1.5222134053
P   P2        1.0  0.87353  0.39236  0.70761  1.0000 1.5222134053
P   P3        1.0  0.70761  0.87353  0.39236  1.0000 1.5222134053
P   P4        1.0  0.60764  0.29239  0.12647  1.0000 1.5222134053
P   P5        1.0  0.12647  0.60764  0.29239  1.0000 1.5222134053
P   P6        1.0  0.29239  0.12647  0.60764  1.0000 1.5222134053
H   H1        1.0  0.78120  0.37920  0.85280  1.0000 0.1310872345
H   H2        1.0  0.37920  0.85280  0.78120  1.0000 0.1310872345
H   H3        1.0  0.85280  0.78120  0.37920  1.0000 0.1310872345
H   H4        1.0  0.21880  0.62080  0.14720  1.0000 0.1310872345
H   H5        1.0  0.62080  0.14720  0.21880  1.0000 0.1310872345
H   H6        1.0  0.14720  0.21880  0.62080  1.0000 0.1310872345
H   H7        1.0  0.62680  0.41340  0.01020  1.0000 0.1310872345
H   H8        1.0  0.41340  0.01020  0.62680  1.0000 0.1310872345
H   H9        1.0  0.01020  0.62680  0.41340  1.0000 0.1310872345
H   H10       1.0  0.37320  0.58660  0.98980  1.0000 0.1310872345
H   H11       1.0  0.58660  0.98980  0.37320  1.0000 0.1310872345
H   H12       1.0  0.98980  0.37320  0.58660  1.0000 0.1310872345
H   H13       1.0  0.58950  0.24520  0.91000  1.0000 0.1310872345
H   H14       1.0  0.24520  0.91000  0.58950  1.0000 0.1310872345
H   H15       1.0  0.91000  0.58950  0.24520  1.0000 0.1310872345
H   H16       1.0  0.41050  0.75480  0.09000  1.0000 0.1310872345
H   H17       1.0  0.75480  0.09000  0.41050  1.0000 0.1310872345
H   H18       1.0  0.09000  0.41050  0.75480  1.0000 0.1310872345
H   H19       1.0  0.26730  0.91670  0.35470  1.0000 0.1368830908
H   H20       1.0  0.91670  0.35470  0.26730  1.0000 0.1368830908
H   H21       1.0  0.35470  0.26730  0.91670  1.0000 0.1368830908
H   H22       1.0  0.73270  0.08330  0.64530  1.0000 0.1368830908
H   H23       1.0  0.08330  0.64530  0.73270  1.0000 0.1368830908
H   H24       1.0  0.64530  0.73270  0.08330  1.0000 0.1368830908
H   H25       1.0  0.11700  0.87080  0.34330  1.0000 0.1310872345
H   H26       1.0  0.87080  0.34330  0.11700  1.0000 0.1310872345
H   H27       1.0  0.34330  0.11700  0.87080  1.0000 0.1310872345
H   H28       1.0  0.88300  0.12920  0.65670  1.0000 0.1310872345
H   H29       1.0  0.12920  0.65670  0.88300  1.0000 0.1310872345
H   H30       1.0  0.65670  0.88300  0.12920  1.0000 0.1310872345
H   H31       1.0  0.04180  0.67190  0.00990  1.0000 0.1310872345
H   H32       1.0  0.67190  0.00990  0.04180  1.0000 0.1310872345
H   H33       1.0  0.00990  0.04180  0.67190  1.0000 0.1310872345
H   H34       1.0  0.95820  0.32810  0.99010  1.0000 0.1310872345
H   H35       1.0  0.32810  0.99010  0.95820  1.0000 0.1310872345
H   H36       1.0  0.99010  0.95820  0.32810  1.0000 0.1310872345
H   H37       1.0  0.80300  0.61560  0.94650  1.0000 0.1450648863
H   H38       1.0  0.61560  0.94650  0.80300  1.0000 0.1450648863
H   H39       1.0  0.94650  0.80300  0.61560  1.0000 0.1450648863
H   H40       1.0  0.19700  0.38440  0.05350  1.0000 0.1450648863
H   H41       1.0  0.38440  0.05350  0.19700  1.0000 0.1450648863
H   H42       1.0  0.05350  0.19700  0.38440  1.0000 0.1450648863
H   H43       1.0  0.83580  0.55260  0.88970  1.0000 0.155835848
H   H44       1.0  0.55260  0.88970  0.83580  1.0000 0.155835848
H   H45       1.0  0.88970  0.83580  0.55260  1.0000 0.155835848
H   H46       1.0  0.16420  0.44740  0.11030  1.0000 0.155835848
H   H47       1.0  0.44740  0.11030  0.16420  1.0000 0.155835848
H   H48       1.0  0.11030  0.16420  0.44740  1.0000 0.155835848
C   C1        1.0  0.96600  0.68310  0.07060  1.0000 0.2360563958
C   C2        1.0  0.68310  0.07060  0.96600  1.0000 0.2360563958
C   C3        1.0  0.07060  0.96600  0.68310  1.0000 0.2360563958
C   C4        1.0  0.03400  0.31690  0.92940  1.0000 0.2360563958
C   C5        1.0  0.31690  0.92940  0.03400  1.0000 0.2360563958
C   C6        1.0  0.92940  0.03400  0.31690  1.0000 0.2360563958
C   C7        1.0  0.74830  0.38420  0.88490  1.0000 0.0122871731
C   C8        1.0  0.38420  0.88490  0.74830  1.0000 0.0122871731
C   C9        1.0  0.88490  0.74830  0.38420  1.0000 0.0122871731
C   C10       1.0  0.25170  0.61580  0.11510  1.0000 0.0122871731
C   C11       1.0  0.61580  0.11510  0.25170  1.0000 0.0122871731
C   C12       1.0  0.11510  0.25170  0.61580  1.0000 0.0122871731
C   C13       1.0  0.65960  0.40760  0.97810  1.0000 0.0617149208
C   C14       1.0  0.40760  0.97810  0.65960  1.0000 0.0617149208
C   C15       1.0  0.97810  0.65960  0.40760  1.0000 0.0617149208
C   C16       1.0  0.34040  0.59240  0.02190  1.0000 0.0617149208
C   C17       1.0  0.59240  0.02190  0.34040  1.0000 0.0617149208
C   C18       1.0  0.02190  0.34040  0.59240  1.0000 0.0617149208
C   C19       1.0  0.76760  0.48410  0.94240  1.0000 0.2480492253
C   C20       1.0  0.48410  0.94240  0.76760  1.0000 0.2480492253
C   C21       1.0  0.94240  0.76760  0.48410  1.0000 0.2480492253
C   C22       1.0  0.23240  0.51590  0.05760  1.0000 0.2480492253
C   C23       1.0  0.51590  0.05760  0.23240  1.0000 0.2480492253
C   C24       1.0  0.05760  0.23240  0.51590  1.0000 0.2480492253
C   C25       1.0  0.63820  0.30750  0.91900  1.0000 0.0283424584
C   C26       1.0  0.30750  0.91900  0.63820  1.0000 0.0283424584
C   C27       1.0  0.91900  0.63820  0.30750  1.0000 0.0283424584
C   C28       1.0  0.36180  0.69250  0.08100  1.0000 0.0283424584
C   C29       1.0  0.69250  0.08100  0.36180  1.0000 0.0283424584
C   C30       1.0  0.08100  0.36180  0.69250  1.0000 0.0283424584
C   C31       1.0  0.18880  0.85690  0.27910  1.0000 0.0502382451
C   C32       1.0  0.85690  0.27910  0.18880  1.0000 0.0502382451
C   C33       1.0  0.27910  0.18880  0.85690  1.0000 0.0502382451
C   C34       1.0  0.81120  0.14310  0.72090  1.0000 0.0502382451
C   C35       1.0  0.14310  0.72090  0.81120  1.0000 0.0502382451
C   C36       1.0  0.72090  0.81120  0.14310  1.0000 0.0502382451
C   C37       1.0  0.09900  0.82850  0.27220  1.0000 0.0502382451
C   C38       1.0  0.82850  0.27220  0.09900  1.0000 0.0502382451
C   C39       1.0  0.27220  0.09900  0.82850  1.0000 0.0502382451
C   C40       1.0  0.90100  0.17150  0.72780  1.0000 0.0502382451
C   C41       1.0  0.17150  0.72780  0.90100  1.0000 0.0502382451
C   C42       1.0  0.72780  0.90100  0.17150  1.0000 0.0502382451
C   C43       1.0  0.05800  0.71460  0.07970  1.0000 -0.0247097115
C   C44       1.0  0.71460  0.07970  0.05800  1.0000 -0.0247097115
C   C45       1.0  0.07970  0.05800  0.71460  1.0000 -0.0247097115
C   C46       1.0  0.94200  0.28540  0.92030  1.0000 -0.0247097115
C   C47       1.0  0.28540  0.92030  0.94200  1.0000 -0.0247097115
C   C48       1.0  0.92030  0.94200  0.28540  1.0000 -0.0247097115
C   C49       1.0  0.83920  0.58410  0.95470  1.0000 -0.346662436
C   C50       1.0  0.58410  0.95470  0.83920  1.0000 -0.346662436
C   C51       1.0  0.95470  0.83920  0.58410  1.0000 -0.346662436
C   C52       1.0  0.16080  0.41590  0.04530  1.0000 -0.346662436
C   C53       1.0  0.41590  0.04530  0.16080  1.0000 -0.346662436
C   C54       1.0  0.04530  0.16080  0.41590  1.0000 -0.346662436
N   N1        1.0  0.98460  0.74220  0.16780  1.0000 -0.2128292959
N   N2        1.0  0.74220  0.16780  0.98460  1.0000 -0.2128292959
N   N3        1.0  0.16780  0.98460  0.74220  1.0000 -0.2128292959
N   N4        1.0  0.01540  0.25780  0.83220  1.0000 -0.2128292959
N   N5        1.0  0.25780  0.83220  0.01540  1.0000 -0.2128292959
N   N6        1.0  0.83220  0.01540  0.25780  1.0000 -0.2128292959
N   N7        1.0  0.17030  0.80450  0.18470  1.0000 -0.1384176801
N   N8        1.0  0.80450  0.18470  0.17030  1.0000 -0.1384176801
N   N9        1.0  0.18470  0.17030  0.80450  1.0000 -0.1384176801
N   N10       1.0  0.82970  0.19550  0.81530  1.0000 -0.1384176801
N   N11       1.0  0.19550  0.81530  0.82970  1.0000 -0.1384176801
N   N12       1.0  0.81530  0.82970  0.19550  1.0000 -0.1384176801
N   N13       1.0  0.68530  0.29510  0.87290  1.0000 -0.1544507484
N   N14       1.0  0.29510  0.87290  0.68530  1.0000 -0.1544507484
N   N15       1.0  0.87290  0.68530  0.29510  1.0000 -0.1544507484
N   N16       1.0  0.31470  0.70490  0.12710  1.0000 -0.1544507484
N   N17       1.0  0.70490  0.12710  0.31470  1.0000 -0.1544507484
N   N18       1.0  0.12710  0.31470  0.70490  1.0000 -0.1544507484
N   N19       1.0  0.72520  0.49680  0.99160  1.0000 -0.1967200479
N   N20       1.0  0.49680  0.99160  0.72520  1.0000 -0.1967200479
N   N21       1.0  0.99160  0.72520  0.49680  1.0000 -0.1967200479
N   N22       1.0  0.27480  0.50320  0.00840  1.0000 -0.1967200479
N   N23       1.0  0.50320  0.00840  0.27480  1.0000 -0.1967200479
N   N24       1.0  0.00840  0.27480  0.50320  1.0000 -0.1967200479
F   F1        1.0  0.45640  0.68540  0.94450  1.0000 -0.41903525
F   F2        1.0  0.33130  0.59170  0.75650  1.0000 -0.4070958958
F   F3        1.0  0.28290  0.63510  0.85630  1.0000 -0.4070958958
F   F4        1.0  0.32110  0.72480  0.79890  1.0000 -0.41903525
F   F5        1.0  0.49930  0.78310  0.88940  1.0000 -0.41903525
F   F6        1.0  0.45240  0.82420  0.99390  1.0000 -0.4505599032
F   F7        1.0  0.94450  0.45640  0.68540  1.0000 -0.41903525
F   F8        1.0  0.75650  0.33130  0.59170  1.0000 -0.4070958958
F   F9        1.0  0.85630  0.28290  0.63510  1.0000 -0.4070958958
F   F10       1.0  0.79890  0.32110  0.72480  1.0000 -0.41903525
F   F11       1.0  0.88940  0.49930  0.78310  1.0000 -0.41903525
F   F12       1.0  0.99390  0.45240  0.82420  1.0000 -0.4505599032
F   F13       1.0  0.68540  0.94450  0.45640  1.0000 -0.41903525
F   F14       1.0  0.59170  0.75650  0.33130  1.0000 -0.4070958958
F   F15       1.0  0.63510  0.85630  0.28290  1.0000 -0.4070958958
F   F16       1.0  0.72480  0.79890  0.32110  1.0000 -0.41903525
F   F17       1.0  0.78310  0.88940  0.49930  1.0000 -0.41903525
F   F18       1.0  0.82420  0.99390  0.45240  1.0000 -0.4505599032
F   F19       1.0  0.54360  0.31460  0.05550  1.0000 -0.41903525
F   F20       1.0  0.66870  0.40830  0.24350  1.0000 -0.4070958958
F   F21       1.0  0.71710  0.36490  0.14370  1.0000 -0.4070958958
F   F22       1.0  0.67890  0.27520  0.20110  1.0000 -0.41903525
F   F23       1.0  0.50070  0.21690  0.11060  1.0000 -0.41903525
F   F24       1.0  0.54760  0.17580  0.00610  1.0000 -0.4505599032
F   F25       1.0  0.05550  0.54360  0.31460  1.0000 -0.41903525
F   F26       1.0  0.24350  0.66870  0.40830  1.0000 -0.4070958958
F   F27       1.0  0.14370  0.71710  0.36490  1.0000 -0.4070958958
F   F28       1.0  0.20110  0.67890  0.27520  1.0000 -0.41903525
F   F29       1.0  0.11060  0.50070  0.21690  1.0000 -0.41903525
F   F30       1.0  0.00610  0.54760  0.17580  1.0000 -0.4505599032
F   F31       1.0  0.31460  0.05550  0.54360  1.0000 -0.41903525
F   F32       1.0  0.40830  0.24350  0.66870  1.0000 -0.4070958958
F   F33       1.0  0.36490  0.14370  0.71710  1.0000 -0.4070958958
F   F34       1.0  0.27520  0.20110  0.67890  1.0000 -0.41903525
F   F35       1.0  0.21690  0.11060  0.50070  1.0000 -0.41903525
F   F36       1.0  0.17580  0.00610  0.54760  1.0000 -0.4505599032
