# DDEC6 charges by PACMAN v1.1 (https://github.com/mtap-research/PACMAN-charge/)
data_2015[CoMo][cds]3[ION]1
_chemical_formula_sum              "Co2 Mo24 P2 H96 C108 N36 O80"
_cell_length_a       15.2859
_cell_length_b       15.2859
_cell_length_c       21.792
_cell_angle_alpha    77.5751
_cell_angle_beta     102.425
_cell_angle_gamma    83.8613

_symmetry_space_group_name_H-M    "P 1"
_symmetry_Int_Tables_number       1

loop_
  _symmetry_equiv_pos_as_xyz
  'x, y, z'

loop_
  _atom_site_type_symbol
  _atom_site_label
  _atom_site_symmetry_multiplicity
  _atom_site_fract_x
  _atom_site_fract_y
  _atom_site_fract_z
  _atom_site_occupancy
  _atom_site_charge
Co  Co1       1.0  0.00000  0.50000  0.00000  1.0000 0.5374180676
Co  Co2       1.0  0.50000  0.00000  0.50000  1.0000 0.5374180676
Mo  Mo1       1.0  0.95759  0.15549  0.15681  1.0000 2.1994900705
Mo  Mo2       1.0  0.15549  0.95759  0.34319  1.0000 2.1994900705
Mo  Mo3       1.0  0.75483  0.91791  0.32373  1.0000 2.1994900705
Mo  Mo4       1.0  0.91791  0.75483  0.17627  1.0000 2.1994900705
Mo  Mo5       1.0  0.76143  0.12801  0.20472  1.0000 2.1994900705
Mo  Mo6       1.0  0.12801  0.76143  0.29528  1.0000 2.1994900705
Mo  Mo7       1.0  0.95575  0.13273  0.31599  1.0000 2.1912623646
Mo  Mo8       1.0  0.13273  0.95575  0.18401  1.0000 2.1912623646
Mo  Mo9       1.0  0.90393  0.96695  0.07990  1.0000 2.1770103576
Mo  Mo10      1.0  0.96695  0.90393  0.42010  1.0000 2.1770103576
Mo  Mo11      1.0  0.73100  0.91580  0.15059  1.0000 2.1994900705
Mo  Mo12      1.0  0.91580  0.73100  0.34941  1.0000 2.1994900705
Mo  Mo13      1.0  0.04241  0.84451  0.84319  1.0000 2.1994900705
Mo  Mo14      1.0  0.84451  0.04241  0.65681  1.0000 2.1994900705
Mo  Mo15      1.0  0.24517  0.08209  0.67627  1.0000 2.1994900705
Mo  Mo16      1.0  0.08209  0.24517  0.82373  1.0000 2.1994900705
Mo  Mo17      1.0  0.23857  0.87199  0.79528  1.0000 2.1994900705
Mo  Mo18      1.0  0.87199  0.23857  0.70472  1.0000 2.1994900705
Mo  Mo19      1.0  0.04425  0.86727  0.68401  1.0000 2.1912623646
Mo  Mo20      1.0  0.86727  0.04425  0.81599  1.0000 2.1912623646
Mo  Mo21      1.0  0.09607  0.03305  0.92010  1.0000 2.1770103576
Mo  Mo22      1.0  0.03305  0.09607  0.57990  1.0000 2.1770103576
Mo  Mo23      1.0  0.26900  0.08420  0.84941  1.0000 2.1994900705
Mo  Mo24      1.0  0.08420  0.26900  0.65059  1.0000 2.1994900705
P   P1        1.0  0.94023  0.94023  0.25000  1.0000 1.5038596394
P   P2        1.0  0.05977  0.05977  0.75000  1.0000 1.5051527025
H   H1        1.0  0.99660  0.43320  0.15730  1.0000 0.1201084364
H   H2        1.0  0.43320  0.99660  0.34270  1.0000 0.1201084364
H   H3        1.0  0.00340  0.56680  0.84270  1.0000 0.1201084364
H   H4        1.0  0.56680  0.00340  0.65730  1.0000 0.1201084364
H   H5        1.0  0.79520  0.46920  0.00010  1.0000 0.1201084364
H   H6        1.0  0.46920  0.79520  0.49990  1.0000 0.1201084364
H   H7        1.0  0.20480  0.53080  0.99990  1.0000 0.1201084364
H   H8        1.0  0.53080  0.20480  0.50010  1.0000 0.1201084364
H   H9        1.0  0.82660  0.32420  0.21650  1.0000 0.1493299367
H   H10       1.0  0.32420  0.82660  0.28350  1.0000 0.1493299367
H   H11       1.0  0.17340  0.67580  0.78350  1.0000 0.1493299367
H   H12       1.0  0.67580  0.17340  0.71650  1.0000 0.1493299367
H   H13       1.0  0.90300  0.37780  0.24650  1.0000 0.1398622396
H   H14       1.0  0.37780  0.90300  0.25350  1.0000 0.1398622396
H   H15       1.0  0.09700  0.62220  0.75350  1.0000 0.1398622396
H   H16       1.0  0.62220  0.09700  0.74650  1.0000 0.1398622396
H   H17       1.0  0.86120  0.53760  0.24600  1.0000 0.130264196
H   H18       1.0  0.53760  0.86120  0.25400  1.0000 0.130264196
H   H19       1.0  0.13880  0.46240  0.75400  1.0000 0.130264196
H   H20       1.0  0.46240  0.13880  0.74600  1.0000 0.130264196
H   H21       1.0  0.75320  0.64380  0.26340  1.0000 0.130264196
H   H22       1.0  0.64380  0.75320  0.23660  1.0000 0.130264196
H   H23       1.0  0.24680  0.35620  0.73660  1.0000 0.130264196
H   H24       1.0  0.35620  0.24680  0.76340  1.0000 0.130264196
H   H25       1.0  0.55920  0.49140  0.21870  1.0000 0.1201084364
H   H26       1.0  0.49140  0.55920  0.28130  1.0000 0.1201084364
H   H27       1.0  0.44080  0.50860  0.78130  1.0000 0.1201084364
H   H28       1.0  0.50860  0.44080  0.71870  1.0000 0.1201084364
H   H29       1.0  0.66710  0.38510  0.20120  1.0000 0.1398622396
H   H30       1.0  0.38510  0.66710  0.29880  1.0000 0.1398622396
H   H31       1.0  0.33290  0.61490  0.79880  1.0000 0.1398622396
H   H32       1.0  0.61490  0.33290  0.70120  1.0000 0.1398622396
H   H33       1.0  0.11170  0.33170  0.96420  1.0000 0.130264196
H   H34       1.0  0.33170  0.11170  0.53580  1.0000 0.130264196
H   H35       1.0  0.88830  0.66830  0.03580  1.0000 0.130264196
H   H36       1.0  0.66830  0.88830  0.46420  1.0000 0.130264196
H   H37       1.0  0.13970  0.36550  0.14390  1.0000 0.1018180421
H   H38       1.0  0.36550  0.13970  0.35610  1.0000 0.1018180421
H   H39       1.0  0.86030  0.63450  0.85610  1.0000 0.1018180421
H   H40       1.0  0.63450  0.86030  0.64390  1.0000 0.1018180421
H   H41       1.0  0.25110  0.12310  0.07160  1.0000 0.1493299367
H   H42       1.0  0.12310  0.25110  0.42840  1.0000 0.1493299367
H   H43       1.0  0.74890  0.87690  0.92840  1.0000 0.1493299367
H   H44       1.0  0.87690  0.74890  0.57160  1.0000 0.1493299367
H   H45       1.0  0.20020  0.16300  0.99690  1.0000 0.1493299367
H   H46       1.0  0.16300  0.20020  0.50310  1.0000 0.1493299367
H   H47       1.0  0.79980  0.83700  0.00310  1.0000 0.1493299367
H   H48       1.0  0.83700  0.79980  0.49690  1.0000 0.1493299367
H   H49       1.0  0.40800  0.08780  0.09030  1.0000 0.130264196
H   H50       1.0  0.08780  0.40800  0.40970  1.0000 0.130264196
H   H51       1.0  0.59200  0.91220  0.90970  1.0000 0.130264196
H   H52       1.0  0.91220  0.59200  0.59030  1.0000 0.130264196
H   H53       1.0  0.54540  0.10420  0.06120  1.0000 0.130264196
H   H54       1.0  0.10420  0.54540  0.43880  1.0000 0.130264196
H   H55       1.0  0.45460  0.89580  0.93880  1.0000 0.130264196
H   H56       1.0  0.89580  0.45460  0.56120  1.0000 0.130264196
H   H57       1.0  0.41670  0.32010  0.91290  1.0000 0.1113352827
H   H58       1.0  0.32010  0.41670  0.58710  1.0000 0.1113352827
H   H59       1.0  0.58330  0.67990  0.08710  1.0000 0.1113352827
H   H60       1.0  0.67990  0.58330  0.41290  1.0000 0.1113352827
H   H61       1.0  0.27930  0.30370  0.94200  1.0000 0.1201084364
H   H62       1.0  0.30370  0.27930  0.55800  1.0000 0.1201084364
H   H63       1.0  0.72070  0.69630  0.05800  1.0000 0.1201084364
H   H64       1.0  0.69630  0.72070  0.44200  1.0000 0.1201084364
H   H65       1.0  0.93430  0.30590  0.00100  1.0000 0.1398622396
H   H66       1.0  0.30590  0.93430  0.49900  1.0000 0.1398622396
H   H67       1.0  0.06570  0.69410  0.99900  1.0000 0.1398622396
H   H68       1.0  0.69410  0.06570  0.50100  1.0000 0.1398622396
H   H69       1.0  0.88640  0.51140  0.84300  1.0000 0.0892039689
H   H70       1.0  0.51140  0.88640  0.65700  1.0000 0.0892039689
H   H71       1.0  0.11360  0.48860  0.15700  1.0000 0.0892039689
H   H72       1.0  0.48860  0.11360  0.34300  1.0000 0.0892039689
H   H73       1.0  0.88050  0.18170  0.94060  1.0000 0.1493299367
H   H74       1.0  0.18170  0.88050  0.55940  1.0000 0.1493299367
H   H75       1.0  0.11950  0.81830  0.05940  1.0000 0.1493299367
H   H76       1.0  0.81830  0.11950  0.44060  1.0000 0.1493299367
H   H77       1.0  0.82690  0.21670  0.86590  1.0000 0.1493299367
H   H78       1.0  0.21670  0.82690  0.63410  1.0000 0.1493299367
H   H79       1.0  0.17310  0.78330  0.13410  1.0000 0.1493299367
H   H80       1.0  0.78330  0.17310  0.36590  1.0000 0.1493299367
H   H81       1.0  0.66740  0.23400  0.83860  1.0000 0.1201084364
H   H82       1.0  0.23400  0.66740  0.66140  1.0000 0.1201084364
H   H83       1.0  0.33260  0.76600  0.16140  1.0000 0.1201084364
H   H84       1.0  0.76600  0.33260  0.33860  1.0000 0.1201084364
H   H85       1.0  0.52970  0.22830  0.86850  1.0000 0.1113352827
H   H86       1.0  0.22830  0.52970  0.63150  1.0000 0.1113352827
H   H87       1.0  0.47030  0.77170  0.13150  1.0000 0.1113352827
H   H88       1.0  0.77170  0.47030  0.36850  1.0000 0.1113352827
H   H89       1.0  0.65790  0.21650  0.05380  1.0000 0.1201084364
H   H90       1.0  0.21650  0.65790  0.44620  1.0000 0.1201084364
H   H91       1.0  0.34210  0.78350  0.94620  1.0000 0.1201084364
H   H92       1.0  0.78350  0.34210  0.55380  1.0000 0.1201084364
H   H93       1.0  0.79560  0.22220  0.02390  1.0000 0.1201084364
H   H94       1.0  0.22220  0.79560  0.47610  1.0000 0.1201084364
H   H95       1.0  0.20440  0.77780  0.97610  1.0000 0.1201084364
H   H96       1.0  0.77780  0.20440  0.52390  1.0000 0.1201084364
C   C1        1.0  0.93860  0.43560  0.12980  1.0000 0.0892039689
C   C2        1.0  0.43560  0.93860  0.37020  1.0000 0.0892039689
C   C3        1.0  0.06140  0.56440  0.87020  1.0000 0.0892039689
C   C4        1.0  0.56440  0.06140  0.62980  1.0000 0.0892039689
C   C5        1.0  0.82870  0.45510  0.04410  1.0000 0.1398622396
C   C6        1.0  0.45510  0.82870  0.45590  1.0000 0.1398622396
C   C7        1.0  0.17130  0.54490  0.95590  1.0000 0.1398622396
C   C8        1.0  0.54490  0.17130  0.54410  1.0000 0.1398622396
C   C9        1.0  0.84650  0.38430  0.21240  1.0000 -0.1781786579
C   C10       1.0  0.38430  0.84650  0.28760  1.0000 -0.1781786579
C   C11       1.0  0.15350  0.61570  0.78760  1.0000 -0.1781786579
C   C12       1.0  0.61570  0.15350  0.71240  1.0000 -0.1781786579
C   C13       1.0  0.77420  0.45140  0.22200  1.0000 0.1018180421
C   C14       1.0  0.45140  0.77420  0.27800  1.0000 0.1018180421
C   C15       1.0  0.22580  0.54860  0.77800  1.0000 0.1018180421
C   C16       1.0  0.54860  0.22580  0.72200  1.0000 0.1018180421
C   C17       1.0  0.79980  0.52820  0.24040  1.0000 -0.1402174444
C   C18       1.0  0.52820  0.79980  0.25960  1.0000 -0.1402174444
C   C19       1.0  0.20020  0.47180  0.75960  1.0000 -0.1402174444
C   C20       1.0  0.47180  0.20020  0.74040  1.0000 -0.1402174444
C   C21       1.0  0.73570  0.59130  0.25080  1.0000 -0.118930999
C   C22       1.0  0.59130  0.73570  0.24920  1.0000 -0.118930999
C   C23       1.0  0.26430  0.40870  0.74920  1.0000 -0.118930999
C   C24       1.0  0.40870  0.26430  0.75080  1.0000 -0.118930999
C   C25       1.0  0.64610  0.57750  0.24270  1.0000 0.0643147614
C   C26       1.0  0.57750  0.64610  0.25730  1.0000 0.0643147614
C   C27       1.0  0.35390  0.42250  0.75730  1.0000 0.0643147614
C   C28       1.0  0.42250  0.35390  0.74270  1.0000 0.0643147614
C   C29       1.0  0.62050  0.50070  0.22420  1.0000 -0.1402174444
C   C30       1.0  0.50070  0.62050  0.27580  1.0000 -0.1402174444
C   C31       1.0  0.37950  0.49930  0.77580  1.0000 -0.1402174444
C   C32       1.0  0.49930  0.37950  0.72420  1.0000 -0.1402174444
C   C33       1.0  0.68450  0.43770  0.21390  1.0000 -0.1402174444
C   C34       1.0  0.43770  0.68450  0.28610  1.0000 -0.1402174444
C   C35       1.0  0.31550  0.56230  0.78610  1.0000 -0.1402174444
C   C36       1.0  0.56230  0.31550  0.71390  1.0000 -0.1402174444
C   C37       1.0  0.13130  0.32250  0.00990  1.0000 0.0643147614
C   C38       1.0  0.32250  0.13130  0.49010  1.0000 0.0643147614
C   C39       1.0  0.86870  0.67750  0.99010  1.0000 0.0643147614
C   C40       1.0  0.67750  0.86870  0.50990  1.0000 0.0643147614
C   C41       1.0  0.14660  0.34100  0.10840  1.0000 0.1201084364
C   C42       1.0  0.34100  0.14660  0.39160  1.0000 0.1201084364
C   C43       1.0  0.85340  0.65900  0.89160  1.0000 0.1201084364
C   C44       1.0  0.65900  0.85340  0.60840  1.0000 0.1201084364
C   C45       1.0  0.23970  0.17710  0.03470  1.0000 -0.1781786579
C   C46       1.0  0.17710  0.23970  0.46530  1.0000 -0.1781786579
C   C47       1.0  0.76030  0.82290  0.96530  1.0000 -0.1781786579
C   C48       1.0  0.82290  0.76030  0.53470  1.0000 -0.1781786579
C   C49       1.0  0.33060  0.19420  0.01890  1.0000 0.1201084364
C   C50       1.0  0.19420  0.33060  0.48110  1.0000 0.1201084364
C   C51       1.0  0.66940  0.80580  0.98110  1.0000 0.1201084364
C   C52       1.0  0.80580  0.66940  0.51890  1.0000 0.1201084364
C   C53       1.0  0.40970  0.13490  0.05440  1.0000 -0.1402174444
C   C54       1.0  0.13490  0.40970  0.44560  1.0000 -0.1402174444
C   C55       1.0  0.59030  0.86510  0.94560  1.0000 -0.1402174444
C   C56       1.0  0.86510  0.59030  0.55440  1.0000 -0.1402174444
C   C57       1.0  0.49150  0.14470  0.03700  1.0000 -0.1097828707
C   C58       1.0  0.14470  0.49150  0.46300  1.0000 -0.1097828707
C   C59       1.0  0.50850  0.85530  0.96300  1.0000 -0.1097828707
C   C60       1.0  0.85530  0.50850  0.53700  1.0000 -0.1097828707
C   C61       1.0  0.49410  0.21370  0.98430  1.0000 0.0757030847
C   C62       1.0  0.21370  0.49410  0.51570  1.0000 0.0757030847
C   C63       1.0  0.50590  0.78630  0.01570  1.0000 0.0757030847
C   C64       1.0  0.78630  0.50590  0.48430  1.0000 0.0757030847
C   C65       1.0  0.41500  0.27300  0.94880  1.0000 -0.1292919552
C   C66       1.0  0.27300  0.41500  0.55120  1.0000 -0.1292919552
C   C67       1.0  0.58500  0.72700  0.05120  1.0000 -0.1292919552
C   C68       1.0  0.72700  0.58500  0.44880  1.0000 -0.1292919552
C   C69       1.0  0.33320  0.26320  0.96620  1.0000 -0.1402174444
C   C70       1.0  0.26320  0.33320  0.53380  1.0000 -0.1402174444
C   C71       1.0  0.66680  0.73680  0.03380  1.0000 -0.1402174444
C   C72       1.0  0.73680  0.66680  0.46620  1.0000 -0.1402174444
C   C73       1.0  0.91340  0.34140  0.95760  1.0000 0.0465241486
C   C74       1.0  0.34140  0.91340  0.54240  1.0000 0.0465241486
C   C75       1.0  0.08660  0.65860  0.04240  1.0000 0.0465241486
C   C76       1.0  0.65860  0.08660  0.45760  1.0000 0.0465241486
C   C77       1.0  0.88710  0.45410  0.87090  1.0000 0.1018180421
C   C78       1.0  0.45410  0.88710  0.62910  1.0000 0.1018180421
C   C79       1.0  0.11290  0.54590  0.12910  1.0000 0.1018180421
C   C80       1.0  0.54590  0.11290  0.37090  1.0000 0.1018180421
C   C81       1.0  0.83410  0.22990  0.90910  1.0000 -0.1781786579
C   C82       1.0  0.22990  0.83410  0.59090  1.0000 -0.1781786579
C   C83       1.0  0.16590  0.77010  0.09090  1.0000 -0.1781786579
C   C84       1.0  0.77010  0.16590  0.40910  1.0000 -0.1781786579
C   C85       1.0  0.74430  0.22870  0.92850  1.0000 0.1113352827
C   C86       1.0  0.22870  0.74430  0.57150  1.0000 0.1113352827
C   C87       1.0  0.25570  0.77130  0.07150  1.0000 0.1113352827
C   C88       1.0  0.77130  0.25570  0.42850  1.0000 0.1113352827
C   C89       1.0  0.66540  0.23040  0.88230  1.0000 -0.1402174444
C   C90       1.0  0.23040  0.66540  0.61770  1.0000 -0.1402174444
C   C91       1.0  0.33460  0.76960  0.11770  1.0000 -0.1402174444
C   C92       1.0  0.76960  0.33460  0.38230  1.0000 -0.1402174444
C   C93       1.0  0.58370  0.22710  0.90010  1.0000 -0.1292919552
C   C94       1.0  0.22710  0.58370  0.59990  1.0000 -0.1292919552
C   C95       1.0  0.41630  0.77290  0.09990  1.0000 -0.1292919552
C   C96       1.0  0.77290  0.41630  0.40010  1.0000 -0.1292919552
C   C97       1.0  0.58090  0.22190  0.96390  1.0000 0.0720910432
C   C98       1.0  0.22190  0.58090  0.53610  1.0000 0.0720910432
C   C99       1.0  0.41910  0.77810  0.03610  1.0000 0.0720910432
C   C100      1.0  0.77810  0.41910  0.46390  1.0000 0.0720910432
C   C101      1.0  0.65980  0.22000  0.01010  1.0000 -0.1097828707
C   C102      1.0  0.22000  0.65980  0.48990  1.0000 -0.1097828707
C   C103      1.0  0.34020  0.78000  0.98990  1.0000 -0.1097828707
C   C104      1.0  0.78000  0.34020  0.51010  1.0000 -0.1097828707
C   C105      1.0  0.74150  0.22350  0.99230  1.0000 -0.1292919552
C   C106      1.0  0.22350  0.74150  0.50770  1.0000 -0.1292919552
C   C107      1.0  0.25850  0.77650  0.00770  1.0000 -0.1292919552
C   C108      1.0  0.77650  0.25850  0.49230  1.0000 -0.1292919552
N   N1        1.0  0.91650  0.46090  0.06490  1.0000 -0.2847518621
N   N2        1.0  0.46090  0.91650  0.43510  1.0000 -0.2853976188
N   N3        1.0  0.08350  0.53910  0.93510  1.0000 -0.2853976188
N   N4        1.0  0.53910  0.08350  0.56490  1.0000 -0.2853976188
N   N5        1.0  0.86440  0.41420  0.14910  1.0000 0.1926290637
N   N6        1.0  0.41420  0.86440  0.35090  1.0000 0.1926290637
N   N7        1.0  0.13560  0.58580  0.85090  1.0000 0.1926290637
N   N8        1.0  0.58580  0.13560  0.64910  1.0000 0.1926290637
N   N9        1.0  0.79650  0.42630  0.09610  1.0000 -0.2123893795
N   N10       1.0  0.42630  0.79650  0.40390  1.0000 -0.2123893795
N   N11       1.0  0.20350  0.57370  0.90390  1.0000 -0.2123893795
N   N12       1.0  0.57370  0.20350  0.59610  1.0000 -0.2123893795
N   N13       1.0  0.10320  0.37740  0.04540  1.0000 -0.3082855491
N   N14       1.0  0.37740  0.10320  0.45460  1.0000 -0.3082855491
N   N15       1.0  0.89680  0.62260  0.95460  1.0000 -0.3082855491
N   N16       1.0  0.62260  0.89680  0.54540  1.0000 -0.3082855491
N   N17       1.0  0.19210  0.25230  0.05090  1.0000 0.2004760208
N   N18       1.0  0.25230  0.19210  0.44910  1.0000 0.2004760208
N   N19       1.0  0.80790  0.74770  0.94910  1.0000 0.2004760208
N   N20       1.0  0.74770  0.80790  0.55090  1.0000 0.2004760208
N   N21       1.0  0.20160  0.26360  0.11180  1.0000 -0.2279908953
N   N22       1.0  0.26360  0.20160  0.38820  1.0000 -0.2279908953
N   N23       1.0  0.79840  0.73640  0.88820  1.0000 -0.2279908953
N   N24       1.0  0.73640  0.79840  0.61180  1.0000 -0.2279908953
N   N25       1.0  0.92760  0.42740  0.93530  1.0000 -0.3197574912
N   N26       1.0  0.42740  0.92760  0.56470  1.0000 -0.3197574912
N   N27       1.0  0.07240  0.57260  0.06470  1.0000 -0.3197574912
N   N28       1.0  0.57260  0.07240  0.43530  1.0000 -0.3197574912
N   N29       1.0  0.86410  0.31510  0.90700  1.0000 0.1926290637
N   N30       1.0  0.31510  0.86410  0.59300  1.0000 0.1926290637
N   N31       1.0  0.13590  0.68490  0.09300  1.0000 0.1926290637
N   N32       1.0  0.68490  0.13590  0.40700  1.0000 0.1926290637
N   N33       1.0  0.84790  0.38470  0.85340  1.0000 -0.2234469352
N   N34       1.0  0.38470  0.84790  0.64660  1.0000 -0.2234469352
N   N35       1.0  0.15210  0.61530  0.14660  1.0000 -0.2234469352
N   N36       1.0  0.61530  0.15210  0.35340  1.0000 -0.2234469352
O   O1        1.0  0.89470  0.90950  0.19030  1.0000 -0.926591113
O   O2        1.0  0.90950  0.89470  0.30970  1.0000 -0.926591113
O   O3        1.0  0.83530  0.17370  0.27590  1.0000 -0.8309102865
O   O4        1.0  0.17370  0.83530  0.22410  1.0000 -0.8309102865
O   O5        1.0  0.83090  0.92210  0.40050  1.0000 -0.8203819392
O   O6        1.0  0.92210  0.83090  0.09950  1.0000 -0.8203819392
O   O7        1.0  0.78280  0.96120  0.07620  1.0000 -0.7994015662
O   O8        1.0  0.96120  0.78280  0.42380  1.0000 -0.7994015662
O   O9        1.0  0.66480  0.20160  0.18890  1.0000 -0.5866729615
O   O10       1.0  0.20160  0.66480  0.31110  1.0000 -0.5866729615
O   O11       1.0  0.90660  0.07420  0.10040  1.0000 -0.7994015662
O   O12       1.0  0.07420  0.90660  0.39960  1.0000 -0.7994015662
O   O13       1.0  0.06400  0.07840  0.17500  1.0000 -0.8203819392
O   O14       1.0  0.07840  0.06400  0.32500  1.0000 -0.8203819392
O   O15       1.0  0.98050  0.21150  0.35600  1.0000 -0.58076583
O   O16       1.0  0.21150  0.98050  0.14400  1.0000 -0.58076583
O   O17       1.0  0.74890  0.03550  0.28100  1.0000 -0.8203819392
O   O18       1.0  0.03550  0.74890  0.21900  1.0000 -0.8203819392
O   O19       1.0  0.82550  0.18950  0.15200  1.0000 -0.8203819392
O   O20       1.0  0.18950  0.82550  0.34800  1.0000 -0.8203819392
O   O21       1.0  0.62230  0.92210  0.11260  1.0000 -0.58076583
O   O22       1.0  0.92210  0.62230  0.38740  1.0000 -0.58076583
O   O23       1.0  0.78390  0.80170  0.15100  1.0000 -0.8203819392
O   O24       1.0  0.80170  0.78390  0.34900  1.0000 -0.8203819392
O   O25       1.0  0.91560  0.04200  0.23750  1.0000 -0.926591113
O   O26       1.0  0.04200  0.91560  0.26250  1.0000 -0.926591113
O   O27       1.0  0.90630  0.98990  0.00220  1.0000 -0.5693471429
O   O28       1.0  0.98990  0.90630  0.49780  1.0000 -0.5693471429
O   O29       1.0  0.97220  0.24440  0.10230  1.0000 -0.6226581333
O   O30       1.0  0.24440  0.97220  0.39770  1.0000 -0.6226581333
O   O31       1.0  0.94040  0.03660  0.37610  1.0000 -0.8203819392
O   O32       1.0  0.03660  0.94040  0.12390  1.0000 -0.8203819392
O   O33       1.0  0.65570  0.91710  0.34400  1.0000 -0.6142717598
O   O34       1.0  0.91710  0.65570  0.15600  1.0000 -0.6142717598
O   O35       1.0  0.98100  0.19720  0.23140  1.0000 -0.8309102865
O   O36       1.0  0.19720  0.98100  0.26860  1.0000 -0.8309102865
O   O37       1.0  0.73300  0.04520  0.15790  1.0000 -0.8309102865
O   O38       1.0  0.04520  0.73300  0.34210  1.0000 -0.8309102865
O   O39       1.0  0.72720  0.89260  0.23680  1.0000 -0.84569782
O   O40       1.0  0.89260  0.72720  0.26320  1.0000 -0.8446959851
O   O41       1.0  0.10530  0.09050  0.80970  1.0000 -0.926591113
O   O42       1.0  0.09050  0.10530  0.69030  1.0000 -0.926591113
O   O43       1.0  0.16470  0.82630  0.72410  1.0000 -0.8309102865
O   O44       1.0  0.82630  0.16470  0.77590  1.0000 -0.8309102865
O   O45       1.0  0.16910  0.07790  0.59950  1.0000 -0.8309102865
O   O46       1.0  0.07790  0.16910  0.90050  1.0000 -0.8309102865
O   O47       1.0  0.21720  0.03880  0.92380  1.0000 -0.7994015662
O   O48       1.0  0.03880  0.21720  0.57620  1.0000 -0.7994015662
O   O49       1.0  0.33520  0.79840  0.81110  1.0000 -0.58076583
O   O50       1.0  0.79840  0.33520  0.68890  1.0000 -0.5866729615
O   O51       1.0  0.09340  0.92580  0.89960  1.0000 -0.7994015662
O   O52       1.0  0.92580  0.09340  0.60040  1.0000 -0.7994015662
O   O53       1.0  0.93600  0.92160  0.82500  1.0000 -0.8203819392
O   O54       1.0  0.92160  0.93600  0.67500  1.0000 -0.8203819392
O   O55       1.0  0.01950  0.78850  0.64400  1.0000 -0.58076583
O   O56       1.0  0.78850  0.01950  0.85600  1.0000 -0.58076583
O   O57       1.0  0.25110  0.96450  0.71900  1.0000 -0.8203819392
O   O58       1.0  0.96450  0.25110  0.78100  1.0000 -0.8203819392
O   O59       1.0  0.17450  0.81050  0.84800  1.0000 -0.8203819392
O   O60       1.0  0.81050  0.17450  0.65200  1.0000 -0.8203819392
O   O61       1.0  0.37770  0.07790  0.88740  1.0000 -0.58076583
O   O62       1.0  0.07790  0.37770  0.61260  1.0000 -0.58076583
O   O63       1.0  0.21610  0.19830  0.84900  1.0000 -0.8203819392
O   O64       1.0  0.19830  0.21610  0.65100  1.0000 -0.8203819392
O   O65       1.0  0.08440  0.95800  0.76250  1.0000 -0.926591113
O   O66       1.0  0.95800  0.08440  0.73750  1.0000 -0.926591113
O   O67       1.0  0.09370  0.01010  0.99780  1.0000 -0.5693471429
O   O68       1.0  0.01010  0.09370  0.50220  1.0000 -0.5693471429
O   O69       1.0  0.02780  0.75560  0.89770  1.0000 -0.6226581333
O   O70       1.0  0.75560  0.02780  0.60230  1.0000 -0.6226581333
O   O71       1.0  0.05960  0.96340  0.62390  1.0000 -0.8203819392
O   O72       1.0  0.96340  0.05960  0.87610  1.0000 -0.8203819392
O   O73       1.0  0.34430  0.08290  0.65600  1.0000 -0.6142717598
O   O74       1.0  0.08290  0.34430  0.84400  1.0000 -0.6226581333
O   O75       1.0  0.01900  0.80280  0.76860  1.0000 -0.8309102865
O   O76       1.0  0.80280  0.01900  0.73140  1.0000 -0.8309102865
O   O77       1.0  0.26700  0.95480  0.84210  1.0000 -0.8309102865
O   O78       1.0  0.95480  0.26700  0.65790  1.0000 -0.8309102865
O   O79       1.0  0.27280  0.10740  0.76320  1.0000 -0.84569782
O   O80       1.0  0.10740  0.27280  0.73680  1.0000 -0.84569782
