# DDEC6 charges by PACMAN v1.1 (https://github.com/mtap-research/PACMAN-charge/)
data_2015[Cd][rtl]3[ION]3
_chemical_formula_sum              "Cd2 H48 C60 N28 O12"
_cell_length_a       11.629
_cell_length_b       17.902
_cell_length_c       13.9468
_cell_angle_alpha    90
_cell_angle_beta     122.961
_cell_angle_gamma    90

_symmetry_space_group_name_H-M    "P 1"
_symmetry_Int_Tables_number       1

loop_
  _symmetry_equiv_pos_as_xyz
  'x, y, z'

loop_
  _atom_site_type_symbol
  _atom_site_label
  _atom_site_symmetry_multiplicity
  _atom_site_fract_x
  _atom_site_fract_y
  _atom_site_fract_z
  _atom_site_occupancy
  _atom_site_charge
Cd  Cd1       1.0  0.00000  0.00000  0.00000  1.0000 0.7002067019
Cd  Cd2       1.0  0.00000  0.50000  0.50000  1.0000 0.7002067019
H   H1        1.0  0.53290  0.29230  0.82770  1.0000 0.1306731527
H   H2        1.0  0.46710  0.79230  0.67230  1.0000 0.1306731527
H   H3        1.0  0.46710  0.70770  0.17230  1.0000 0.1306731527
H   H4        1.0  0.53290  0.20770  0.32770  1.0000 0.1306731527
H   H5        1.0  0.18880  0.23140  0.80890  1.0000 0.1306731527
H   H6        1.0  0.81120  0.73140  0.69110  1.0000 0.1306731527
H   H7        1.0  0.81120  0.76860  0.19110  1.0000 0.1306731527
H   H8        1.0  0.18880  0.26860  0.30890  1.0000 0.1306731527
H   H9        1.0  0.48510  0.07900  0.89380  1.0000 0.1439560962
H   H10       1.0  0.51490  0.57900  0.60620  1.0000 0.1439560962
H   H11       1.0  0.51490  0.92100  0.10620  1.0000 0.1439560962
H   H12       1.0  0.48510  0.42100  0.39380  1.0000 0.1439560962
H   H13       1.0  0.12340  0.32740  0.62440  1.0000 0.1014685866
H   H14       1.0  0.87660  0.82740  0.87560  1.0000 0.1014685866
H   H15       1.0  0.87660  0.67260  0.37560  1.0000 0.1014685866
H   H16       1.0  0.12340  0.17260  0.12440  1.0000 0.1014685866
H   H17       1.0  0.28320  0.51710  0.77940  1.0000 0.1164363746
H   H18       1.0  0.71680  0.01710  0.72060  1.0000 0.1164363746
H   H19       1.0  0.71680  0.48290  0.22060  1.0000 0.1164363746
H   H20       1.0  0.28320  0.98290  0.27940  1.0000 0.1164363746
H   H21       1.0  0.43820  0.41790  0.90210  1.0000 0.1306731527
H   H22       1.0  0.56180  0.91790  0.59790  1.0000 0.1306731527
H   H23       1.0  0.56180  0.58210  0.09790  1.0000 0.1306731527
H   H24       1.0  0.43820  0.08210  0.40210  1.0000 0.1306731527
H   H25       1.0  0.68670  0.05520  0.92550  1.0000 0.1079048191
H   H26       1.0  0.31330  0.55520  0.57450  1.0000 0.1079048191
H   H27       1.0  0.31330  0.94480  0.07450  1.0000 0.1079048191
H   H28       1.0  0.68670  0.44480  0.42550  1.0000 0.1079048191
H   H29       1.0  0.93940  0.19270  0.91440  1.0000 0.1079048191
H   H30       1.0  0.06060  0.69270  0.58560  1.0000 0.1079048191
H   H31       1.0  0.06060  0.80730  0.08560  1.0000 0.1079048191
H   H32       1.0  0.93940  0.30730  0.41440  1.0000 0.1079048191
H   H33       1.0  0.73470  0.26470  0.86090  1.0000 0.1306731527
H   H34       1.0  0.26530  0.76470  0.63910  1.0000 0.1306731527
H   H35       1.0  0.26530  0.73530  0.13910  1.0000 0.1306731527
H   H36       1.0  0.73470  0.23530  0.36090  1.0000 0.1306731527
H   H37       1.0  0.18420  0.14210  0.95860  1.0000 0.1014685866
H   H38       1.0  0.81580  0.64210  0.54140  1.0000 0.1014685866
H   H39       1.0  0.81580  0.85790  0.04140  1.0000 0.1014685866
H   H40       1.0  0.18420  0.35790  0.45860  1.0000 0.1014685866
H   H41       1.0  0.08310  0.94510  0.81450  1.0000 0.1164363746
H   H42       1.0  0.91690  0.44510  0.68550  1.0000 0.1164363746
H   H43       1.0  0.91690  0.05490  0.18550  1.0000 0.1164363746
H   H44       1.0  0.08310  0.55490  0.31450  1.0000 0.1164363746
H   H45       1.0  0.24060  0.00070  0.76870  1.0000 0.1306731527
H   H46       1.0  0.75940  0.50070  0.73130  1.0000 0.1306731527
H   H47       1.0  0.75940  0.99930  0.23130  1.0000 0.1306731527
H   H48       1.0  0.24060  0.49930  0.26870  1.0000 0.1306731527
C   C1        1.0  0.52850  0.18314  0.86370  1.0000 0.2105314892
C   C2        1.0  0.47150  0.68314  0.63630  1.0000 0.2105314892
C   C3        1.0  0.47150  0.81686  0.13630  1.0000 0.2105314892
C   C4        1.0  0.52850  0.31686  0.36370  1.0000 0.2105314892
C   C5        1.0  0.48060  0.25565  0.83390  1.0000 -0.2417290385
C   C6        1.0  0.51940  0.75565  0.66610  1.0000 -0.2417290385
C   C7        1.0  0.51940  0.74435  0.16610  1.0000 -0.2417290385
C   C8        1.0  0.48060  0.24435  0.33390  1.0000 -0.2417290385
C   C9        1.0  0.35310  0.27225  0.81350  1.0000 0.1797763754
C   C10       1.0  0.64690  0.77225  0.68650  1.0000 0.1797763754
C   C11       1.0  0.64690  0.72775  0.18650  1.0000 0.1797763754
C   C12       1.0  0.35310  0.22775  0.31350  1.0000 0.1797763754
C   C13       1.0  0.27420  0.21918  0.82250  1.0000 -0.2673454832
C   C14       1.0  0.72580  0.71918  0.67750  1.0000 -0.2673454832
C   C15       1.0  0.72580  0.78082  0.17750  1.0000 -0.2673454832
C   C16       1.0  0.27420  0.28082  0.32250  1.0000 -0.2673454832
C   C17       1.0  0.32440  0.14712  0.85230  1.0000 0.2105314892
C   C18       1.0  0.67560  0.64712  0.64770  1.0000 0.2105314892
C   C19       1.0  0.67560  0.85288  0.14770  1.0000 0.2105314892
C   C20       1.0  0.32440  0.35288  0.35230  1.0000 0.2105314892
C   C21       1.0  0.45210  0.12757  0.87360  1.0000 -0.2562330763
C   C22       1.0  0.54790  0.62757  0.62640  1.0000 -0.2562330763
C   C23       1.0  0.54790  0.87243  0.12640  1.0000 -0.2562330763
C   C24       1.0  0.45210  0.37243  0.37360  1.0000 -0.2562330763
C   C25       1.0  0.18180  0.36271  0.67770  1.0000 0.0796809218
C   C26       1.0  0.81820  0.86271  0.82230  1.0000 0.0796809218
C   C27       1.0  0.81820  0.63729  0.32230  1.0000 0.0796809218
C   C28       1.0  0.18180  0.13729  0.17770  1.0000 0.0796809218
C   C29       1.0  0.27030  0.46621  0.76330  1.0000 -0.050272132
C   C30       1.0  0.72970  0.96621  0.73670  1.0000 -0.050272132
C   C31       1.0  0.72970  0.53379  0.23670  1.0000 -0.050272132
C   C32       1.0  0.27030  0.03379  0.26330  1.0000 -0.050272132
C   C33       1.0  0.35650  0.41175  0.83170  1.0000 -0.0966053249
C   C34       1.0  0.64350  0.91175  0.66830  1.0000 -0.0966053249
C   C35       1.0  0.64350  0.58825  0.16830  1.0000 -0.0966053249
C   C36       1.0  0.35650  0.08825  0.33170  1.0000 -0.0966053249
C   C37       1.0  0.72440  0.09836  0.91640  1.0000 0.1079048191
C   C38       1.0  0.27560  0.59836  0.58360  1.0000 0.1079048191
C   C39       1.0  0.27560  0.90164  0.08360  1.0000 0.1079048191
C   C40       1.0  0.72440  0.40164  0.41640  1.0000 0.1079048191
C   C41       1.0  0.86200  0.17405  0.91000  1.0000 -0.0606931837
C   C42       1.0  0.13800  0.67405  0.59000  1.0000 -0.0606931837
C   C43       1.0  0.13800  0.82595  0.09000  1.0000 -0.0606931837
C   C44       1.0  0.86200  0.32595  0.41000  1.0000 -0.0606931837
C   C45       1.0  0.74940  0.21429  0.88020  1.0000 -0.0966053249
C   C46       1.0  0.25060  0.71429  0.61980  1.0000 -0.0966053249
C   C47       1.0  0.25060  0.78571  0.11980  1.0000 -0.0966053249
C   C48       1.0  0.74940  0.28571  0.38020  1.0000 -0.0966053249
C   C49       1.0  0.17790  0.09996  0.91710  1.0000 0.0796809218
C   C50       1.0  0.82210  0.59996  0.58290  1.0000 0.0796809218
C   C51       1.0  0.82210  0.90004  0.08290  1.0000 0.0796809218
C   C52       1.0  0.17790  0.40004  0.41710  1.0000 0.0796809218
C   C53       1.0  0.12370  0.99191  0.83810  1.0000 -0.042962373
C   C54       1.0  0.87630  0.49191  0.66190  1.0000 -0.042962373
C   C55       1.0  0.87630  0.00809  0.16190  1.0000 -0.042962373
C   C56       1.0  0.12370  0.50809  0.33810  1.0000 -0.042962373
C   C57       1.0  0.21010  0.02239  0.81160  1.0000 -0.0844309802
C   C58       1.0  0.78990  0.52239  0.68840  1.0000 -0.0844309802
C   C59       1.0  0.78990  0.97761  0.18840  1.0000 -0.0844309802
C   C60       1.0  0.21010  0.47761  0.31160  1.0000 -0.0844309802
N   N1        1.0  0.16016  0.43490  0.66596  1.0000 -0.2798480529
N   N2        1.0  0.83984  0.93490  0.83404  1.0000 -0.2798480529
N   N3        1.0  0.83984  0.56510  0.33404  1.0000 -0.2798480529
N   N4        1.0  0.16016  0.06510  0.16596  1.0000 -0.2798480529
N   N5        1.0  0.29956  0.34606  0.77677  1.0000 0.0064803532
N   N6        1.0  0.70044  0.84606  0.72323  1.0000 0.0064803532
N   N7        1.0  0.70044  0.65394  0.22323  1.0000 0.0064803532
N   N8        1.0  0.29956  0.15394  0.27677  1.0000 0.0064803532
N   N9        1.0  0.84642  0.10189  0.93304  1.0000 -0.2798480529
N   N10       1.0  0.15358  0.60189  0.56696  1.0000 -0.2798480529
N   N11       1.0  0.15358  0.89811  0.06696  1.0000 -0.2798480529
N   N12       1.0  0.84642  0.39811  0.43304  1.0000 -0.2798480529
N   N13       1.0  0.65984  0.16531  0.88416  1.0000 0.0064803532
N   N14       1.0  0.34016  0.66531  0.61584  1.0000 0.0064803532
N   N15       1.0  0.34016  0.83469  0.11584  1.0000 0.0064803532
N   N16       1.0  0.65984  0.33469  0.38416  1.0000 0.0064803532
N   N17       1.0  0.10485  0.04058  0.90484  1.0000 -0.2922533701
N   N18       1.0  0.89515  0.54058  0.59516  1.0000 -0.2922533701
N   N19       1.0  0.89515  0.95942  0.09516  1.0000 -0.2922533701
N   N20       1.0  0.10485  0.45942  0.40484  1.0000 -0.2922533701
N   N21       1.0  0.24286  0.09179  0.86139  1.0000 0.0064803532
N   N22       1.0  0.75714  0.59179  0.63861  1.0000 0.0064803532
N   N23       1.0  0.75714  0.90821  0.13861  1.0000 0.0064803532
N   N24       1.0  0.24286  0.40821  0.36139  1.0000 0.0064803532
N   N25       1.0  0.53530  0.39222  0.67430  1.0000 0.6780540098
N   N26       1.0  0.46470  0.89222  0.82570  1.0000 0.6780540098
N   N27       1.0  0.46470  0.60778  0.32570  1.0000 0.6780540098
N   N28       1.0  0.53530  0.10778  0.17430  1.0000 0.6780540098
O   O1        1.0  0.48550  0.45259  0.62920  1.0000 -0.4345225345
O   O2        1.0  0.64790  0.38906  0.76810  1.0000 -0.4389777568
O   O3        1.0  0.47430  0.33348  0.62740  1.0000 -0.4389777568
O   O4        1.0  0.51450  0.95259  0.87080  1.0000 -0.4389777568
O   O5        1.0  0.35210  0.88906  0.73190  1.0000 -0.4389777568
O   O6        1.0  0.52570  0.83348  0.87260  1.0000 -0.4389777568
O   O7        1.0  0.51450  0.54741  0.37080  1.0000 -0.4389777568
O   O8        1.0  0.35210  0.61094  0.23190  1.0000 -0.4389777568
O   O9        1.0  0.52570  0.66652  0.37260  1.0000 -0.4389777568
O   O10       1.0  0.48550  0.04741  0.12920  1.0000 -0.4389777568
O   O11       1.0  0.64790  0.11094  0.26810  1.0000 -0.4389777568
O   O12       1.0  0.47430  0.16652  0.12740  1.0000 -0.4389777568
