# DDEC6 charges by PACMAN v1.1 (https://github.com/mtap-research/PACMAN-charge/)
data_2016[AsAg][lvt]3[ION]1
_chemical_formula_sum              "Ag4 As4 H144 C120 S16 N16 F24"
_cell_length_a       18.5828
_cell_length_b       18.5828
_cell_length_c       18.5828
_cell_angle_alpha    97.8621
_cell_angle_beta     97.8621
_cell_angle_gamma    136.587

_symmetry_space_group_name_H-M    "P 1"
_symmetry_Int_Tables_number       1

loop_
  _symmetry_equiv_pos_as_xyz
  'x, y, z'

loop_
  _atom_site_type_symbol
  _atom_site_label
  _atom_site_symmetry_multiplicity
  _atom_site_fract_x
  _atom_site_fract_y
  _atom_site_fract_z
  _atom_site_occupancy
  _atom_site_charge
Ag  Ag1       1.0  0.62500  0.45313  0.32813  1.0000 0.2425341138
Ag  Ag2       1.0  0.70313  0.37500  0.82813  1.0000 0.2425341138
Ag  Ag3       1.0  0.12500  0.29687  0.67187  1.0000 0.2425341138
Ag  Ag4       1.0  0.54687  0.87500  0.17187  1.0000 0.2425341138
As  As1       1.0  0.15278  0.37500  0.27778  1.0000 1.6332123557
As  As2       1.0  0.62500  0.90278  0.77778  1.0000 1.6332123557
As  As3       1.0  0.09722  0.87500  0.72222  1.0000 1.6332123557
As  As4       1.0  0.12500  0.84722  0.22222  1.0000 1.6332123557
H   H1        1.0  0.86210  0.64630  0.29560  1.0000 0.1196398084
H   H2        1.0  0.43350  0.13790  0.78420  1.0000 0.1196398084
H   H3        1.0  0.35070  0.56650  0.70440  1.0000 0.1196398084
H   H4        1.0  0.35370  0.64930  0.21580  1.0000 0.1196398084
H   H5        1.0  0.89930  0.10370  0.71580  1.0000 0.1196398084
H   H6        1.0  0.81650  0.10070  0.20440  1.0000 0.1196398084
H   H7        1.0  0.38790  0.18350  0.28420  1.0000 0.1196398084
H   H8        1.0  0.89630  0.61210  0.79560  1.0000 0.1196398084
H   H9        1.0  0.72710  0.51030  0.48600  1.0000 0.1032919741
H   H10       1.0  0.75890  0.27290  0.78320  1.0000 0.1032919741
H   H11       1.0  0.02430  0.24110  0.51400  1.0000 0.1032919741
H   H12       1.0  0.48970  0.97570  0.21680  1.0000 0.1032919741
H   H13       1.0  0.22570  0.23970  0.71680  1.0000 0.1032919741
H   H14       1.0  0.49110  0.77430  0.01400  1.0000 0.1032919741
H   H15       1.0  0.52290  0.50890  0.28320  1.0000 0.1032919741
H   H16       1.0  0.76030  0.47710  0.98600  1.0000 0.1032919741
H   H17       1.0  0.81510  0.63420  0.54650  1.0000 0.1390612388
H   H18       1.0  0.73140  0.18490  0.81910  1.0000 0.1390612388
H   H19       1.0  0.08770  0.26860  0.45350  1.0000 0.1390612388
H   H20       1.0  0.36580  0.91230  0.18090  1.0000 0.1390612388
H   H21       1.0  0.16230  0.11580  0.68090  1.0000 0.1390612388
H   H22       1.0  0.51860  0.83770  0.95350  1.0000 0.1390612388
H   H23       1.0  0.43490  0.48140  0.31910  1.0000 0.1390612388
H   H24       1.0  0.88420  0.56510  0.04650  1.0000 0.1390612388
H   H25       1.0  0.03070  0.75410  0.51780  1.0000 0.1390612388
H   H26       1.0  0.48710  0.96930  0.72340  1.0000 0.1390612388
H   H27       1.0  0.23630  0.51290  0.48220  1.0000 0.1390612388
H   H28       1.0  0.24590  0.76370  0.27660  1.0000 0.1390612388
H   H29       1.0  0.01370  0.99590  0.77660  1.0000 0.1390612388
H   H30       1.0  0.76290  0.98630  0.98220  1.0000 0.1390612388
H   H31       1.0  0.21930  0.23710  0.22340  1.0000 0.1390612388
H   H32       1.0  0.00410  0.78070  0.01780  1.0000 0.1390612388
H   H33       1.0  0.05550  0.79160  0.39390  1.0000 0.1591651717
H   H34       1.0  0.33840  0.94450  0.73610  1.0000 0.1591651717
H   H35       1.0  0.39770  0.66160  0.60610  1.0000 0.1591651717
H   H36       1.0  0.20840  0.60230  0.26390  1.0000 0.1591651717
H   H37       1.0  0.85230  0.95840  0.76390  1.0000 0.1591651717
H   H38       1.0  0.91160  0.14770  0.10610  1.0000 0.1591651717
H   H39       1.0  0.19450  0.08840  0.23610  1.0000 0.1591651717
H   H40       1.0  0.04160  0.80550  0.89390  1.0000 0.1591651717
H   H41       1.0  0.83320  0.55160  0.60960  1.0000 0.1390612388
H   H42       1.0  0.77640  0.16680  0.71840  1.0000 0.1390612388
H   H43       1.0  0.94200  0.22360  0.39040  1.0000 0.1390612388
H   H44       1.0  0.44840  0.05800  0.28160  1.0000 0.1390612388
H   H45       1.0  0.30800  0.19840  0.78160  1.0000 0.1390612388
H   H46       1.0  0.47360  0.69200  0.89040  1.0000 0.1390612388
H   H47       1.0  0.41680  0.52640  0.21840  1.0000 0.1390612388
H   H48       1.0  0.80160  0.58320  0.10960  1.0000 0.1390612388
H   H49       1.0  0.93870  0.62650  0.58200  1.0000 0.1390612388
H   H50       1.0  0.64330  0.06130  0.68780  1.0000 0.1390612388
H   H51       1.0  0.04450  0.35670  0.41800  1.0000 0.1390612388
H   H52       1.0  0.37350  0.95550  0.31220  1.0000 0.1390612388
H   H53       1.0  0.20550  0.12350  0.81220  1.0000 0.1390612388
H   H54       1.0  0.60670  0.79450  0.91800  1.0000 0.1390612388
H   H55       1.0  0.31130  0.39330  0.18780  1.0000 0.1390612388
H   H56       1.0  0.87650  0.68870  0.08200  1.0000 0.1390612388
H   H57       1.0  0.54680  0.24480  0.64460  1.0000 0.1196398084
H   H58       1.0  0.09780  0.45320  0.69800  1.0000 0.1196398084
H   H59       1.0  0.60020  0.90220  0.35540  1.0000 0.1196398084
H   H60       1.0  0.75520  0.39980  0.30200  1.0000 0.1196398084
H   H61       1.0  0.64980  0.50520  0.80200  1.0000 0.1196398084
H   H62       1.0  0.15220  0.35020  0.85540  1.0000 0.1196398084
H   H63       1.0  0.70320  0.84780  0.19800  1.0000 0.1196398084
H   H64       1.0  0.49480  0.29680  0.14460  1.0000 0.1196398084
H   H65       1.0  0.41630  0.14840  0.41290  1.0000 0.1301417001
H   H66       1.0  0.99660  0.58370  0.73210  1.0000 0.1301417001
H   H67       1.0  0.73550  0.00340  0.58710  1.0000 0.1301417001
H   H68       1.0  0.85160  0.26450  0.26790  1.0000 0.1301417001
H   H69       1.0  0.51450  0.60160  0.76790  1.0000 0.1301417001
H   H70       1.0  0.25340  0.48550  0.08710  1.0000 0.1301417001
H   H71       1.0  0.83370  0.74660  0.23210  1.0000 0.1301417001
H   H72       1.0  0.39840  0.16630  0.91290  1.0000 0.1301417001
H   H73       1.0  0.28360  0.14450  0.46450  1.0000 0.1301417001
H   H74       1.0  0.18090  0.71640  0.86090  1.0000 0.1301417001
H   H75       1.0  0.68000  0.81910  0.53550  1.0000 0.1301417001
H   H76       1.0  0.85550  0.32000  0.13910  1.0000 0.1301417001
H   H77       1.0  0.57000  0.60550  0.63910  1.0000 0.1301417001
H   H78       1.0  0.06910  0.43000  0.03550  1.0000 0.1301417001
H   H79       1.0  0.96640  0.93090  0.36090  1.0000 0.1301417001
H   H80       1.0  0.39450  0.03360  0.96450  1.0000 0.1301417001
H   H81       1.0  0.18890  0.02400  0.47210  1.0000 0.1301417001
H   H82       1.0  0.28320  0.81110  0.83510  1.0000 0.1301417001
H   H83       1.0  0.55190  0.71680  0.52790  1.0000 0.1301417001
H   H84       1.0  0.97600  0.44810  0.16490  1.0000 0.1301417001
H   H85       1.0  0.69810  0.72600  0.66490  1.0000 0.1301417001
H   H86       1.0  0.96680  0.30190  0.02790  1.0000 0.1301417001
H   H87       1.0  0.06110  0.03320  0.33510  1.0000 0.1301417001
H   H88       1.0  0.27400  0.93890  0.97210  1.0000 0.1301417001
H   H89       1.0  0.26160  0.04670  0.42050  1.0000 0.1301417001
H   H90       1.0  0.15890  0.73840  0.78510  1.0000 0.1301417001
H   H91       1.0  0.62620  0.84110  0.57950  1.0000 0.1301417001
H   H92       1.0  0.95330  0.37380  0.21490  1.0000 0.1301417001
H   H93       1.0  0.62380  0.70330  0.71490  1.0000 0.1301417001
H   H94       1.0  0.09110  0.37620  0.07950  1.0000 0.1301417001
H   H95       1.0  0.98840  0.90890  0.28510  1.0000 0.1301417001
H   H96       1.0  0.29670  0.01160  0.92050  1.0000 0.1301417001
H   H97       1.0  0.29900  0.97030  0.50030  1.0000 0.1301417001
H   H98       1.0  0.20130  0.70100  0.67130  1.0000 0.1301417001
H   H99       1.0  0.47000  0.79870  0.49970  1.0000 0.1301417001
H   H100      1.0  0.02970  0.53000  0.32870  1.0000 0.1301417001
H   H101      1.0  0.78000  0.77970  0.82870  1.0000 0.1301417001
H   H102      1.0  0.04870  0.22000  0.99970  1.0000 0.1301417001
H   H103      1.0  0.95100  0.95130  0.17130  1.0000 0.1301417001
H   H104      1.0  0.22030  0.04900  0.00030  1.0000 0.1301417001
H   H105      1.0  0.23040  0.95990  0.55070  1.0000 0.1301417001
H   H106      1.0  0.32030  0.76960  0.72950  1.0000 0.1301417001
H   H107      1.0  0.40920  0.67970  0.44930  1.0000 0.1301417001
H   H108      1.0  0.04010  0.59080  0.27050  1.0000 0.1301417001
H   H109      1.0  0.84080  0.79010  0.77050  1.0000 0.1301417001
H   H110      1.0  0.92970  0.15920  0.94930  1.0000 0.1301417001
H   H111      1.0  0.01960  0.07030  0.22950  1.0000 0.1301417001
H   H112      1.0  0.20990  0.98040  0.05070  1.0000 0.1301417001
H   H113      1.0  0.35600  0.02980  0.59240  1.0000 0.1301417001
H   H114      1.0  0.23640  0.64400  0.67380  1.0000 0.1301417001
H   H115      1.0  0.43740  0.76360  0.40760  1.0000 0.1301417001
H   H116      1.0  0.97020  0.56260  0.32620  1.0000 0.1301417001
H   H117      1.0  0.81260  0.72020  0.82620  1.0000 0.1301417001
H   H118      1.0  0.01360  0.18740  0.90760  1.0000 0.1301417001
H   H119      1.0  0.89400  0.98640  0.17380  1.0000 0.1301417001
H   H120      1.0  0.27980  0.10600  0.09240  1.0000 0.1301417001
H   H121      1.0  0.28190  0.13000  0.61150  1.0000 0.1390612388
H   H122      1.0  0.32960  0.71810  0.84810  1.0000 0.1390612388
H   H123      1.0  0.51850  0.67040  0.38850  1.0000 0.1390612388
H   H124      1.0  0.87000  0.48150  0.15190  1.0000 0.1390612388
H   H125      1.0  0.73150  0.62000  0.65190  1.0000 0.1390612388
H   H126      1.0  0.92040  0.26850  0.88850  1.0000 0.1390612388
H   H127      1.0  0.96810  0.07960  0.34810  1.0000 0.1390612388
H   H128      1.0  0.38000  0.03190  0.11150  1.0000 0.1390612388
H   H129      1.0  0.39080  0.24730  0.60630  1.0000 0.1301417001
H   H130      1.0  0.21550  0.60920  0.85650  1.0000 0.1301417001
H   H131      1.0  0.64100  0.78450  0.39370  1.0000 0.1301417001
H   H132      1.0  0.75270  0.35900  0.14350  1.0000 0.1301417001
H   H133      1.0  0.60900  0.50270  0.64350  1.0000 0.1301417001
H   H134      1.0  0.03450  0.39100  0.89370  1.0000 0.1301417001
H   H135      1.0  0.85920  0.96550  0.35650  1.0000 0.1301417001
H   H136      1.0  0.49730  0.14080  0.10630  1.0000 0.1301417001
H   H137      1.0  0.40280  0.19070  0.65590  1.0000 0.1196398084
H   H138      1.0  0.25310  0.59720  0.78790  1.0000 0.1196398084
H   H139      1.0  0.53480  0.74690  0.34410  1.0000 0.1196398084
H   H140      1.0  0.80930  0.46520  0.21210  1.0000 0.1196398084
H   H141      1.0  0.71520  0.55930  0.71210  1.0000 0.1196398084
H   H142      1.0  0.99690  0.28480  0.84410  1.0000 0.1196398084
H   H143      1.0  0.84720  0.00310  0.28790  1.0000 0.1196398084
H   H144      1.0  0.44070  0.15280  0.15590  1.0000 0.1196398084
C   C1        1.0  0.87950  0.65390  0.34860  1.0000 -0.018673214
C   C2        1.0  0.46910  0.12050  0.77440  1.0000 -0.018673214
C   C3        1.0  0.30530  0.53090  0.65140  1.0000 -0.018673214
C   C4        1.0  0.34610  0.69470  0.22560  1.0000 -0.018673214
C   C5        1.0  0.94470  0.09610  0.72560  1.0000 -0.018673214
C   C6        1.0  0.78090  0.05530  0.15140  1.0000 -0.018673214
C   C7        1.0  0.37050  0.21910  0.27440  1.0000 -0.018673214
C   C8        1.0  0.90390  0.62950  0.84860  1.0000 -0.018673214
C   C9        1.0  0.80780  0.58130  0.51350  1.0000 -0.1321651324
C   C10       1.0  0.70570  0.19220  0.77350  1.0000 -0.1321651324
C   C11       1.0  0.06780  0.29430  0.48650  1.0000 -0.1321651324
C   C12       1.0  0.41870  0.93220  0.22650  1.0000 -0.1321651324
C   C13       1.0  0.18220  0.16870  0.72650  1.0000 -0.1321651324
C   C14       1.0  0.54430  0.81780  0.98650  1.0000 -0.1321651324
C   C15       1.0  0.44220  0.45570  0.27350  1.0000 -0.1321651324
C   C16       1.0  0.83130  0.55780  0.01350  1.0000 -0.1321651324
C   C17       1.0  0.97280  0.71410  0.46970  1.0000 -0.0584896367
C   C18       1.0  0.49690  0.02720  0.74130  1.0000 -0.0584896367
C   C19       1.0  0.24440  0.50310  0.53030  1.0000 -0.0584896367
C   C20       1.0  0.28590  0.75560  0.25870  1.0000 -0.0584896367
C   C21       1.0  0.00560  0.03590  0.75870  1.0000 -0.0584896367
C   C22       1.0  0.75310  0.99440  0.03030  1.0000 -0.0584896367
C   C23       1.0  0.27720  0.24690  0.24130  1.0000 -0.0584896367
C   C24       1.0  0.96410  0.72280  0.96970  1.0000 -0.0584896367
C   C25       1.0  0.98720  0.73480  0.40220  1.0000 -0.1635640247
C   C26       1.0  0.41500  0.01280  0.74760  1.0000 -0.1635640247
C   C27       1.0  0.33260  0.58500  0.59780  1.0000 -0.1635640247
C   C28       1.0  0.26520  0.66740  0.25240  1.0000 -0.1635640247
C   C29       1.0  0.91740  0.01520  0.75240  1.0000 -0.1635640247
C   C30       1.0  0.83500  0.08260  0.09780  1.0000 -0.1635640247
C   C31       1.0  0.26280  0.16500  0.24760  1.0000 -0.1635640247
C   C32       1.0  0.98480  0.73720  0.90220  1.0000 -0.1635640247
C   C33       1.0  0.85630  0.56030  0.56360  1.0000 -0.2398008427
C   C34       1.0  0.70730  0.14370  0.70400  1.0000 -0.2398008427
C   C35       1.0  0.99670  0.29270  0.43640  1.0000 -0.2398008427
C   C36       1.0  0.43970  0.00330  0.29600  1.0000 -0.2398008427
C   C37       1.0  0.25330  0.18970  0.79600  1.0000 -0.2398008427
C   C38       1.0  0.54270  0.74670  0.93640  1.0000 -0.2398008427
C   C39       1.0  0.39370  0.45730  0.20400  1.0000 -0.2398008427
C   C40       1.0  0.81030  0.60630  0.06360  1.0000 -0.2398008427
C   C41       1.0  0.67980  0.33580  0.52160  1.0000 -0.0373330454
C   C42       1.0  0.84180  0.32020  0.65600  1.0000 -0.0373330454
C   C43       1.0  0.81420  0.15820  0.47840  1.0000 -0.0373330454
C   C44       1.0  0.66420  0.18580  0.34400  1.0000 -0.0373330454
C   C45       1.0  0.43580  0.41420  0.84400  1.0000 -0.0373330454
C   C46       1.0  0.40820  0.56420  0.97840  1.0000 -0.0373330454
C   C47       1.0  0.57020  0.59180  0.15600  1.0000 -0.0373330454
C   C48       1.0  0.58580  0.42980  0.02160  1.0000 -0.0373330454
C   C49       1.0  0.66330  0.32460  0.59190  1.0000 0.0284072655
C   C50       1.0  0.92860  0.33670  0.66130  1.0000 0.0284072655
C   C51       1.0  0.73270  0.07140  0.40810  1.0000 0.0284072655
C   C52       1.0  0.67540  0.26730  0.33870  1.0000 0.0284072655
C   C53       1.0  0.51730  0.42540  0.83870  1.0000 0.0284072655
C   C54       1.0  0.32140  0.48270  0.90810  1.0000 0.0284072655
C   C55       1.0  0.58670  0.67860  0.16130  1.0000 0.0284072655
C   C56       1.0  0.57460  0.41330  0.09190  1.0000 0.0284072655
C   C57       1.0  0.58590  0.26670  0.45540  1.0000 0.0284072655
C   C58       1.0  0.86950  0.41410  0.68080  1.0000 0.0284072655
C   C59       1.0  0.81130  0.13050  0.54460  1.0000 0.0284072655
C   C60       1.0  0.73330  0.18870  0.31920  1.0000 0.0284072655
C   C61       1.0  0.43870  0.48330  0.81920  1.0000 0.0284072655
C   C62       1.0  0.38050  0.56130  0.04460  1.0000 0.0284072655
C   C63       1.0  0.66410  0.61950  0.18080  1.0000 0.0284072655
C   C64       1.0  0.51670  0.33590  0.95540  1.0000 0.0284072655
C   C65       1.0  0.55600  0.25180  0.59600  1.0000 -0.2000561117
C   C66       1.0  0.04000  0.44400  0.69580  1.0000 -0.2000561117
C   C67       1.0  0.65580  0.96000  0.40400  1.0000 -0.2000561117
C   C68       1.0  0.74820  0.34420  0.30420  1.0000 -0.2000561117
C   C69       1.0  0.59420  0.49820  0.80420  1.0000 -0.2000561117
C   C70       1.0  0.21000  0.40580  0.90400  1.0000 -0.2000561117
C   C71       1.0  0.69400  0.79000  0.19580  1.0000 -0.2000561117
C   C72       1.0  0.50180  0.30600  0.09600  1.0000 -0.2000561117
C   C73       1.0  0.47880  0.19450  0.45930  1.0000 -0.1918729192
C   C74       1.0  0.98050  0.52120  0.71570  1.0000 -0.1918729192
C   C75       1.0  0.73520  0.01950  0.54070  1.0000 -0.1918729192
C   C76       1.0  0.80550  0.26480  0.28430  1.0000 -0.1918729192
C   C77       1.0  0.51480  0.55550  0.78430  1.0000 -0.1918729192
C   C78       1.0  0.26950  0.48520  0.04070  1.0000 -0.1918729192
C   C79       1.0  0.77120  0.73050  0.21570  1.0000 -0.1918729192
C   C80       1.0  0.44450  0.22880  0.95930  1.0000 -0.1918729192
C   C81       1.0  0.46210  0.18920  0.53090  1.0000 0.1075935622
C   C82       1.0  0.06880  0.53790  0.72710  1.0000 0.1075935622
C   C83       1.0  0.65830  0.93120  0.46910  1.0000 0.1075935622
C   C84       1.0  0.81080  0.34170  0.27290  1.0000 0.1075935622
C   C85       1.0  0.59170  0.56080  0.77290  1.0000 0.1075935622
C   C86       1.0  0.18120  0.40830  0.96910  1.0000 0.1075935622
C   C87       1.0  0.78790  0.81880  0.22710  1.0000 0.1075935622
C   C88       1.0  0.43920  0.21210  0.03090  1.0000 0.1075935622
C   C89       1.0  0.34770  0.11540  0.53770  1.0000 0.2665720785
C   C90       1.0  0.19000  0.65230  0.76770  1.0000 0.2665720785
C   C91       1.0  0.57770  0.81000  0.46230  1.0000 0.2665720785
C   C92       1.0  0.88460  0.42230  0.23230  1.0000 0.2665720785
C   C93       1.0  0.67230  0.63460  0.73230  1.0000 0.2665720785
C   C94       1.0  0.06000  0.32770  0.96230  1.0000 0.2665720785
C   C95       1.0  0.90230  0.94000  0.26770  1.0000 0.2665720785
C   C96       1.0  0.36540  0.09770  0.03770  1.0000 0.2665720785
C   C97       1.0  0.26300  0.07950  0.46750  1.0000 -0.466754583
C   C98       1.0  0.20450  0.73700  0.81650  1.0000 -0.466754583
C   C99       1.0  0.61200  0.79550  0.53250  1.0000 -0.466754583
C   C100      1.0  0.92050  0.38800  0.18350  1.0000 -0.466754583
C   C101      1.0  0.63800  0.67050  0.68350  1.0000 -0.466754583
C   C102      1.0  0.04550  0.36200  0.03250  1.0000 -0.466754583
C   C103      1.0  0.98700  0.95450  0.31650  1.0000 -0.466754583
C   C104      1.0  0.32950  0.01300  0.96750  1.0000 -0.466754583
C   C105      1.0  0.30440  0.00920  0.54600  1.0000 -0.4585181778
C   C106      1.0  0.24160  0.69560  0.70480  1.0000 -0.4585181778
C   C107      1.0  0.46320  0.75840  0.45400  1.0000 -0.4585181778
C   C108      1.0  0.99080  0.53680  0.29520  1.0000 -0.4585181778
C   C109      1.0  0.78680  0.74080  0.79520  1.0000 -0.4585181778
C   C110      1.0  0.00840  0.21320  0.95400  1.0000 -0.4585181778
C   C111      1.0  0.94560  0.99160  0.20480  1.0000 -0.4585181778
C   C112      1.0  0.25920  0.05440  0.04600  1.0000 -0.4585181778
C   C113      1.0  0.35660  0.17630  0.60930  1.0000 -0.466754583
C   C114      1.0  0.25270  0.64340  0.81970  1.0000 -0.466754583
C   C115      1.0  0.56700  0.74730  0.39070  1.0000 -0.466754583
C   C116      1.0  0.82370  0.43300  0.18030  1.0000 -0.466754583
C   C117      1.0  0.68300  0.57370  0.68030  1.0000 -0.4585181778
C   C118      1.0  0.99730  0.31700  0.89070  1.0000 -0.466754583
C   C119      1.0  0.89340  0.00270  0.31970  1.0000 -0.4585181778
C   C120      1.0  0.42630  0.10660  0.10930  1.0000 -0.4585181778
S   S1        1.0  0.81570  0.43709  0.51617  1.0000 0.0377707665
S   S2        1.0  0.70047  0.18430  0.62139  1.0000 0.0377707665
S   S3        1.0  0.92092  0.29953  0.48383  1.0000 0.0377707665
S   S4        1.0  0.56291  0.07908  0.37861  1.0000 0.0377707665
S   S5        1.0  0.32908  0.31291  0.87861  1.0000 0.0377707665
S   S6        1.0  0.54953  0.67092  0.98383  1.0000 0.0377707665
S   S7        1.0  0.43430  0.45047  0.12139  1.0000 0.0377707665
S   S8        1.0  0.68709  0.56570  0.01617  1.0000 0.0377707665
S   S9        1.0  0.77019  0.40876  0.68357  1.0000 -0.018673214
S   S10       1.0  0.91338  0.22981  0.63857  1.0000 -0.018673214
S   S11       1.0  0.72519  0.08662  0.31643  1.0000 -0.018673214
S   S12       1.0  0.59124  0.27481  0.36143  1.0000 -0.018673214
S   S13       1.0  0.52481  0.34124  0.86143  1.0000 -0.018673214
S   S14       1.0  0.33662  0.47519  0.81643  1.0000 -0.018673214
S   S15       1.0  0.47981  0.66338  0.13857  1.0000 -0.018673214
S   S16       1.0  0.65876  0.52019  0.18357  1.0000 -0.018673214
N   N1        1.0  0.44660  0.32780  0.28440  1.0000 -0.1918729192
N   N2        1.0  0.83780  0.55340  0.88120  1.0000 -0.1918729192
N   N3        1.0  0.04340  0.16220  0.71560  1.0000 -0.1918729192
N   N4        1.0  0.67220  0.95660  0.11880  1.0000 -0.1918729192
N   N5        1.0  0.20660  0.42220  0.61880  1.0000 -0.1918729192
N   N6        1.0  0.41220  0.79340  0.21560  1.0000 -0.1918729192
N   N7        1.0  0.80340  0.58780  0.38120  1.0000 -0.1918729192
N   N8        1.0  0.57780  0.19660  0.78440  1.0000 -0.1918729192
N   N9        1.0  0.86170  0.62690  0.45640  1.0000 0.1993649674
N   N10       1.0  0.59470  0.13830  0.76520  1.0000 0.1993649674
N   N11       1.0  0.17050  0.40530  0.54360  1.0000 0.1993649674
N   N12       1.0  0.37310  0.82950  0.23480  1.0000 0.1993649674
N   N13       1.0  0.07950  0.12310  0.73480  1.0000 0.1993649674
N   N14       1.0  0.65530  0.92050  0.04360  1.0000 0.1993649674
N   N15       1.0  0.38830  0.34470  0.26520  1.0000 0.1993649674
N   N16       1.0  0.87690  0.61170  0.95640  1.0000 0.1993649674
F   F1        1.0  0.02260  0.29690  0.24390  1.0000 -0.4319237882
F   F2        1.0  0.19700  0.45310  0.22570  1.0000 -0.4319237882
F   F3        1.0  0.13260  0.28600  0.20800  1.0000 -0.4585181778
F   F4        1.0  0.17200  0.46400  0.34660  1.0000 -0.4585181778
F   F5        1.0  0.12010  0.30240  0.33450  1.0000 -0.4319237882
F   F6        1.0  0.28210  0.44760  0.31770  1.0000 -0.4319237882
F   F7        1.0  0.70310  0.94700  0.72570  1.0000 -0.4319237882
F   F8        1.0  0.54690  0.77260  0.74390  1.0000 -0.4319237882
F   F9        1.0  0.71400  0.92200  0.84660  1.0000 -0.4585181778
F   F10       1.0  0.53600  0.88260  0.70800  1.0000 -0.4585181778
F   F11       1.0  0.69760  0.03210  0.81770  1.0000 -0.4319237882
F   F12       1.0  0.55240  0.87010  0.83450  1.0000 -0.4319237882
F   F13       1.0  0.05300  0.77870  0.75610  1.0000 -0.4319237882
F   F14       1.0  0.22740  0.97130  0.77430  1.0000 -0.4319237882
F   F15       1.0  0.07800  0.92460  0.79200  1.0000 -0.4585181778
F   F16       1.0  0.11740  0.82540  0.65340  1.0000 -0.4585181778
F   F17       1.0  0.96790  0.78560  0.66550  1.0000 -0.4319237882
F   F18       1.0  0.12990  0.96440  0.68230  1.0000 -0.4319237882
F   F19       1.0  0.22130  0.97740  0.27430  1.0000 -0.4319237882
F   F20       1.0  0.02870  0.80300  0.25610  1.0000 -0.4319237882
F   F21       1.0  0.07540  0.86740  0.15340  1.0000 -0.4585181778
F   F22       1.0  0.17460  0.82800  0.29200  1.0000 -0.4585181778
F   F23       1.0  0.21440  0.87990  0.18230  1.0000 -0.4319237882
F   F24       1.0  0.03560  0.71790  0.16550  1.0000 -0.4319237882
