# DDEC6 charges by PACMAN v1.1 (https://github.com/mtap-research/PACMAN-charge/)
data_2016[FeDy][nan]3[ION]1
_chemical_formula_sum              "Dy4 Fe2 H36 C16 S8 N4 O44"
_cell_length_a       11.3188
_cell_length_b       11.3188
_cell_length_c       12.477
_cell_angle_alpha    88.4081
_cell_angle_beta     91.5919
_cell_angle_gamma    86.9536

_symmetry_space_group_name_H-M    "P 1"
_symmetry_Int_Tables_number       1

loop_
  _symmetry_equiv_pos_as_xyz
  'x, y, z'

loop_
  _atom_site_type_symbol
  _atom_site_label
  _atom_site_symmetry_multiplicity
  _atom_site_fract_x
  _atom_site_fract_y
  _atom_site_fract_z
  _atom_site_occupancy
  _atom_site_charge
Dy  Dy1       1.0  0.69316  0.93262  0.09270  1.0000 2.0629359972
Dy  Dy2       1.0  0.93262  0.69316  0.40730  1.0000 2.0629359972
Dy  Dy3       1.0  0.30684  0.06738  0.90730  1.0000 2.0629359972
Dy  Dy4       1.0  0.06738  0.30684  0.59270  1.0000 2.0629359972
Fe  Fe1       1.0  0.95169  0.95169  0.25000  1.0000 1.1574647319
Fe  Fe2       1.0  0.04831  0.04831  0.75000  1.0000 1.1574647319
H   H1        1.0  0.94180  0.10880  0.99910  1.0000 0.1393906267
H   H2        1.0  0.10880  0.94180  0.50090  1.0000 0.1393906267
H   H3        1.0  0.05820  0.89120  0.00090  1.0000 0.1393906267
H   H4        1.0  0.89120  0.05820  0.49910  1.0000 0.1393906267
H   H5        1.0  0.84860  0.62900  0.77690  1.0000 0.1527050849
H   H6        1.0  0.90530  0.60610  0.89220  1.0000 0.1589333605
H   H7        1.0  0.88970  0.73550  0.84370  1.0000 0.1393906267
H   H8        1.0  0.19770  0.66790  0.82140  1.0000 0.1589333605
H   H9        1.0  0.10640  0.75900  0.87000  1.0000 0.1393906267
H   H10       1.0  0.12190  0.62970  0.91850  1.0000 0.1527050849
H   H11       1.0  0.04560  0.56500  0.76350  1.0000 0.2627780985
H   H12       1.0  0.03130  0.68390  0.71890  1.0000 0.2651296448
H   H13       1.0  0.62900  0.84860  0.72310  1.0000 0.1527050849
H   H14       1.0  0.60610  0.90530  0.60780  1.0000 0.1589333605
H   H15       1.0  0.73550  0.88970  0.65630  1.0000 0.1393906267
H   H16       1.0  0.66790  0.19770  0.67860  1.0000 0.1589333605
H   H17       1.0  0.75900  0.10640  0.63000  1.0000 0.1393906267
H   H18       1.0  0.62970  0.12190  0.58150  1.0000 0.1527050849
H   H19       1.0  0.56500  0.04560  0.73650  1.0000 0.2627780985
H   H20       1.0  0.68390  0.03130  0.78110  1.0000 0.2627780985
H   H21       1.0  0.15140  0.37100  0.22310  1.0000 0.1527050849
H   H22       1.0  0.09470  0.39390  0.10780  1.0000 0.1589333605
H   H23       1.0  0.11030  0.26450  0.15630  1.0000 0.1393906267
H   H24       1.0  0.80230  0.33210  0.17860  1.0000 0.1589333605
H   H25       1.0  0.89360  0.24100  0.13000  1.0000 0.1393906267
H   H26       1.0  0.87810  0.37030  0.08150  1.0000 0.1527050849
H   H27       1.0  0.95440  0.43500  0.23650  1.0000 0.2627780985
H   H28       1.0  0.96870  0.31610  0.28110  1.0000 0.2651296448
H   H29       1.0  0.37100  0.15140  0.27690  1.0000 0.1527050849
H   H30       1.0  0.39390  0.09470  0.39220  1.0000 0.1589333605
H   H31       1.0  0.26450  0.11030  0.34370  1.0000 0.1393906267
H   H32       1.0  0.33210  0.80230  0.32140  1.0000 0.1589333605
H   H33       1.0  0.24100  0.89360  0.37000  1.0000 0.1393906267
H   H34       1.0  0.37030  0.87810  0.41850  1.0000 0.1527050849
H   H35       1.0  0.43500  0.95440  0.26350  1.0000 0.2627780985
H   H36       1.0  0.31610  0.96870  0.21890  1.0000 0.2651296448
C   C1        1.0  0.86190  0.99190  0.90770  1.0000 0.6044632089
C   C2        1.0  0.99190  0.86190  0.59230  1.0000 0.6044632089
C   C3        1.0  0.13810  0.00810  0.09230  1.0000 0.6044632089
C   C4        1.0  0.00810  0.13810  0.40770  1.0000 0.6044632089
C   C5        1.0  0.93920  0.02240  0.00220  1.0000 -0.0023746747
C   C6        1.0  0.02240  0.93920  0.49780  1.0000 -0.0023746747
C   C7        1.0  0.06080  0.97760  0.99780  1.0000 -0.0023746747
C   C8        1.0  0.97760  0.06080  0.50220  1.0000 -0.0023746747
C   C9        1.0  0.90600  0.65400  0.82800  1.0000 -0.2540890682
C   C10       1.0  0.12200  0.67740  0.85400  1.0000 -0.2581807706
C   C11       1.0  0.65400  0.90600  0.67200  1.0000 -0.2540890682
C   C12       1.0  0.67740  0.12200  0.64600  1.0000 -0.2581807706
C   C13       1.0  0.09400  0.34600  0.17200  1.0000 -0.2540890682
C   C14       1.0  0.87800  0.32260  0.14600  1.0000 -0.2581807706
C   C15       1.0  0.34600  0.09400  0.32800  1.0000 -0.2540890682
C   C16       1.0  0.32260  0.87800  0.35400  1.0000 -0.2581807706
S   S1        1.0  0.67570  0.88548  0.33644  1.0000 1.4513679933
S   S2        1.0  0.88548  0.67570  0.16356  1.0000 1.4513679933
S   S3        1.0  0.32430  0.11452  0.66356  1.0000 1.4513679933
S   S4        1.0  0.11452  0.32430  0.83644  1.0000 1.4513679933
S   S5        1.0  0.45997  0.83749  0.92710  1.0000 1.4359661531
S   S6        1.0  0.83749  0.45997  0.57290  1.0000 1.4359661531
S   S7        1.0  0.54003  0.16251  0.07290  1.0000 1.4359661531
S   S8        1.0  0.16251  0.54003  0.42710  1.0000 1.4359661531
N   N1        1.0  0.03040  0.64040  0.77900  1.0000 -0.0930818632
N   N2        1.0  0.64040  0.03040  0.72100  1.0000 -0.0930818632
N   N3        1.0  0.96960  0.35960  0.22100  1.0000 -0.0930818632
N   N4        1.0  0.35960  0.96960  0.27900  1.0000 -0.0930818632
O   O1        1.0  0.88070  0.99430  0.10070  1.0000 -0.7179224361
O   O2        1.0  0.99430  0.88070  0.39930  1.0000 -0.7179224361
O   O3        1.0  0.11930  0.00570  0.89930  1.0000 -0.7179224361
O   O4        1.0  0.00570  0.11930  0.60070  1.0000 -0.7179224361
O   O5        1.0  0.75790  0.96010  0.27640  1.0000 -0.765981387
O   O6        1.0  0.96010  0.75790  0.22360  1.0000 -0.765981387
O   O7        1.0  0.24210  0.03990  0.72360  1.0000 -0.765981387
O   O8        1.0  0.03990  0.24210  0.77640  1.0000 -0.765981387
O   O9        1.0  0.77120  0.93860  0.92720  1.0000 -0.5910959351
O   O10       1.0  0.93860  0.77120  0.57280  1.0000 -0.5910959351
O   O11       1.0  0.22880  0.06140  0.07280  1.0000 -0.5910959351
O   O12       1.0  0.06140  0.22880  0.42720  1.0000 -0.5910959351
O   O13       1.0  0.74470  0.78790  0.39250  1.0000 -0.7179224361
O   O14       1.0  0.78790  0.74470  0.10750  1.0000 -0.7121708799
O   O15       1.0  0.25530  0.21210  0.60750  1.0000 -0.7121708799
O   O16       1.0  0.21210  0.25530  0.89250  1.0000 -0.7121708799
O   O17       1.0  0.55310  0.82470  0.00980  1.0000 -0.7042769301
O   O18       1.0  0.82470  0.55310  0.49020  1.0000 -0.7042769301
O   O19       1.0  0.44690  0.17530  0.99020  1.0000 -0.7121708799
O   O20       1.0  0.17530  0.44690  0.50980  1.0000 -0.7042769301
O   O21       1.0  0.59740  0.83880  0.25180  1.0000 -0.6888726461
O   O22       1.0  0.83880  0.59740  0.24820  1.0000 -0.6888726461
O   O23       1.0  0.40260  0.16120  0.74820  1.0000 -0.6888726461
O   O24       1.0  0.16120  0.40260  0.75180  1.0000 -0.6888726461
O   O25       1.0  0.88490  0.03050  0.81720  1.0000 -0.4932510215
O   O26       1.0  0.03050  0.88490  0.68280  1.0000 -0.4950381327
O   O27       1.0  0.11510  0.96950  0.18280  1.0000 -0.4950381327
O   O28       1.0  0.96950  0.11510  0.31720  1.0000 -0.4932510215
O   O29       1.0  0.60880  0.95580  0.41070  1.0000 -0.5401305515
O   O30       1.0  0.95580  0.60880  0.08930  1.0000 -0.5401305515
O   O31       1.0  0.39120  0.04420  0.58930  1.0000 -0.5401305515
O   O32       1.0  0.04420  0.39120  0.91070  1.0000 -0.5401305515
O   O33       1.0  0.34620  0.86640  0.97260  1.0000 -0.6800429482
O   O34       1.0  0.86640  0.34620  0.52740  1.0000 -0.6800429482
O   O35       1.0  0.65380  0.13360  0.02740  1.0000 -0.6800429482
O   O36       1.0  0.13360  0.65380  0.47260  1.0000 -0.6800429482
O   O37       1.0  0.46500  0.73460  0.86500  1.0000 -0.4711202491
O   O38       1.0  0.73460  0.46500  0.63500  1.0000 -0.4711202491
O   O39       1.0  0.53500  0.26540  0.13500  1.0000 -0.4711202491
O   O40       1.0  0.26540  0.53500  0.36500  1.0000 -0.4711202491
O   O41       1.0  0.47460  0.94280  0.86060  1.0000 -0.7253380525
O   O42       1.0  0.94280  0.47460  0.63940  1.0000 -0.7253380525
O   O43       1.0  0.52540  0.05720  0.13940  1.0000 -0.7253380525
O   O44       1.0  0.05720  0.52540  0.36060  1.0000 -0.7253380525
