# DDEC6 charges by PACMAN v1.1 (https://github.com/mtap-research/PACMAN-charge/)
data_2016[FeEu][nan]3[ION]1
_chemical_formula_sum              "Eu4 Fe2 H36 C16 S8 N4 O44"
_cell_length_a       11.2908
_cell_length_b       11.2908
_cell_length_c       12.6433
_cell_angle_alpha    87.8865
_cell_angle_beta     92.1135
_cell_angle_gamma    86.8624

_symmetry_space_group_name_H-M    "P 1"
_symmetry_Int_Tables_number       1

loop_
  _symmetry_equiv_pos_as_xyz
  'x, y, z'

loop_
  _atom_site_type_symbol
  _atom_site_label
  _atom_site_symmetry_multiplicity
  _atom_site_fract_x
  _atom_site_fract_y
  _atom_site_fract_z
  _atom_site_occupancy
  _atom_site_charge
Eu  Eu1       1.0  0.68904  0.93298  0.08853  1.0000 2.0781559066
Eu  Eu2       1.0  0.93298  0.68904  0.41147  1.0000 2.0781559066
Eu  Eu3       1.0  0.31096  0.06702  0.91147  1.0000 2.0781559066
Eu  Eu4       1.0  0.06702  0.31096  0.58853  1.0000 2.0781559066
Fe  Fe1       1.0  0.95041  0.95041  0.25000  1.0000 1.1301292494
Fe  Fe2       1.0  0.04959  0.04959  0.75000  1.0000 1.1301292494
H   H1        1.0  0.94050  0.10170  0.00030  1.0000 0.1512300537
H   H2        1.0  0.10170  0.94050  0.49970  1.0000 0.1512300537
H   H3        1.0  0.05950  0.89830  0.99970  1.0000 0.1512300537
H   H4        1.0  0.89830  0.05950  0.50030  1.0000 0.1512300537
H   H5        1.0  0.82670  0.61970  0.77860  1.0000 0.1512300537
H   H6        1.0  0.87260  0.60400  0.89710  1.0000 0.157231908
H   H7        1.0  0.85170  0.73150  0.84410  1.0000 0.1387833149
H   H8        1.0  0.18400  0.66600  0.80430  1.0000 0.157231908
H   H9        1.0  0.11130  0.76490  0.86210  1.0000 0.1387833149
H   H10       1.0  0.13220  0.63740  0.91510  1.0000 0.1512300537
H   H11       1.0  0.02310  0.56970  0.78190  1.0000 0.229900764
H   H12       1.0  0.00420  0.68500  0.73400  1.0000 0.2488148824
H   H13       1.0  0.61970  0.82670  0.72140  1.0000 0.1512300537
H   H14       1.0  0.60400  0.87260  0.60290  1.0000 0.157231908
H   H15       1.0  0.73150  0.85170  0.65590  1.0000 0.1387833149
H   H16       1.0  0.66600  0.18400  0.69570  1.0000 0.157231908
H   H17       1.0  0.76490  0.11130  0.63790  1.0000 0.1387833149
H   H18       1.0  0.63740  0.13220  0.58490  1.0000 0.1512300537
H   H19       1.0  0.56970  0.02310  0.71810  1.0000 0.229900764
H   H20       1.0  0.68500  0.00420  0.76600  1.0000 0.2488148824
H   H21       1.0  0.17330  0.38030  0.22140  1.0000 0.1512300537
H   H22       1.0  0.12740  0.39600  0.10290  1.0000 0.157231908
H   H23       1.0  0.14830  0.26850  0.15590  1.0000 0.1387833149
H   H24       1.0  0.81600  0.33400  0.19570  1.0000 0.157231908
H   H25       1.0  0.88870  0.23510  0.13790  1.0000 0.1387833149
H   H26       1.0  0.86780  0.36260  0.08490  1.0000 0.1512300537
H   H27       1.0  0.97690  0.43030  0.21810  1.0000 0.229900764
H   H28       1.0  0.99580  0.31500  0.26600  1.0000 0.2488148824
H   H29       1.0  0.38030  0.17330  0.27860  1.0000 0.1512300537
H   H30       1.0  0.39600  0.12740  0.39710  1.0000 0.157231908
H   H31       1.0  0.26850  0.14830  0.34410  1.0000 0.1387833149
H   H32       1.0  0.33400  0.81600  0.30430  1.0000 0.157231908
H   H33       1.0  0.23510  0.88870  0.36210  1.0000 0.1387833149
H   H34       1.0  0.36260  0.86780  0.41510  1.0000 0.1512300537
H   H35       1.0  0.43030  0.97690  0.28190  1.0000 0.229900764
H   H36       1.0  0.31500  0.99580  0.23400  1.0000 0.2488148824
C   C1        1.0  0.86180  0.99140  0.90480  1.0000 0.6059068755
C   C2        1.0  0.99140  0.86180  0.59520  1.0000 0.6059068755
C   C3        1.0  0.13820  0.00860  0.09520  1.0000 0.6059068755
C   C4        1.0  0.00860  0.13820  0.40480  1.0000 0.6059068755
C   C5        1.0  0.94120  0.01480  0.00310  1.0000 -0.001305255
C   C6        1.0  0.01480  0.94120  0.49690  1.0000 -0.001305255
C   C7        1.0  0.05880  0.98520  0.99690  1.0000 -0.001305255
C   C8        1.0  0.98520  0.05880  0.50310  1.0000 -0.001305255
C   C9        1.0  0.87720  0.65060  0.83300  1.0000 -0.24918866
C   C10       1.0  0.11860  0.68160  0.84900  1.0000 -0.2387687362
C   C11       1.0  0.65060  0.87720  0.66700  1.0000 -0.24918866
C   C12       1.0  0.68160  0.11860  0.65100  1.0000 -0.2387687362
C   C13       1.0  0.12280  0.34940  0.16700  1.0000 -0.24918866
C   C14       1.0  0.88140  0.31840  0.15100  1.0000 -0.2387687362
C   C15       1.0  0.34940  0.12280  0.33300  1.0000 -0.24918866
C   C16       1.0  0.31840  0.88140  0.34900  1.0000 -0.2387687362
S   S1        1.0  0.67355  0.88805  0.33297  1.0000 1.4516485051
S   S2        1.0  0.88805  0.67355  0.16703  1.0000 1.4516485051
S   S3        1.0  0.32645  0.11195  0.66703  1.0000 1.4516485051
S   S4        1.0  0.11195  0.32645  0.83297  1.0000 1.4516485051
S   S5        1.0  0.46684  0.83414  0.92430  1.0000 1.4393315331
S   S6        1.0  0.83414  0.46684  0.57570  1.0000 1.4393315331
S   S7        1.0  0.53316  0.16586  0.07570  1.0000 1.4393315331
S   S8        1.0  0.16586  0.53316  0.42430  1.0000 1.4393315331
N   N1        1.0  0.00780  0.64540  0.79600  1.0000 -0.0900798909
N   N2        1.0  0.64540  0.00780  0.70400  1.0000 -0.0900798909
N   N3        1.0  0.99220  0.35460  0.20400  1.0000 -0.0900798909
N   N4        1.0  0.35460  0.99220  0.29600  1.0000 -0.0900798909
O   O1        1.0  0.88330  0.99230  0.09890  1.0000 -0.6863198861
O   O2        1.0  0.99230  0.88330  0.40110  1.0000 -0.6811102911
O   O3        1.0  0.11670  0.00770  0.90110  1.0000 -0.6811102911
O   O4        1.0  0.00770  0.11670  0.59890  1.0000 -0.6863198861
O   O5        1.0  0.75550  0.96170  0.27210  1.0000 -0.7694658323
O   O6        1.0  0.96170  0.75550  0.22790  1.0000 -0.7694658323
O   O7        1.0  0.24450  0.03830  0.72790  1.0000 -0.7694658323
O   O8        1.0  0.03830  0.24450  0.77210  1.0000 -0.7694658323
O   O9        1.0  0.77050  0.94310  0.92340  1.0000 -0.5546270891
O   O10       1.0  0.94310  0.77050  0.57660  1.0000 -0.5560057445
O   O11       1.0  0.22950  0.05690  0.07660  1.0000 -0.5546270891
O   O12       1.0  0.05690  0.22950  0.42340  1.0000 -0.5560057445
O   O13       1.0  0.74200  0.79040  0.39150  1.0000 -0.71617022
O   O14       1.0  0.79040  0.74200  0.10850  1.0000 -0.71617022
O   O15       1.0  0.25800  0.20960  0.60850  1.0000 -0.71617022
O   O16       1.0  0.20960  0.25800  0.89150  1.0000 -0.71617022
O   O17       1.0  0.55220  0.80560  0.01120  1.0000 -0.6738149891
O   O18       1.0  0.80560  0.55220  0.48880  1.0000 -0.6811102911
O   O19       1.0  0.44780  0.19440  0.98880  1.0000 -0.6738149891
O   O20       1.0  0.19440  0.44780  0.51120  1.0000 -0.6738149891
O   O21       1.0  0.59560  0.83960  0.25050  1.0000 -0.6738149891
O   O22       1.0  0.83960  0.59560  0.24950  1.0000 -0.6738149891
O   O23       1.0  0.40440  0.16040  0.74950  1.0000 -0.6738149891
O   O24       1.0  0.16040  0.40440  0.75050  1.0000 -0.6738149891
O   O25       1.0  0.88390  0.03370  0.81580  1.0000 -0.484287171
O   O26       1.0  0.03370  0.88390  0.68420  1.0000 -0.484287171
O   O27       1.0  0.11610  0.96630  0.18420  1.0000 -0.484287171
O   O28       1.0  0.96630  0.11610  0.31580  1.0000 -0.484287171
O   O29       1.0  0.60510  0.95850  0.40380  1.0000 -0.5316827729
O   O30       1.0  0.95850  0.60510  0.09620  1.0000 -0.5316827729
O   O31       1.0  0.39490  0.04150  0.59620  1.0000 -0.5316827729
O   O32       1.0  0.04150  0.39490  0.90380  1.0000 -0.5316827729
O   O33       1.0  0.34510  0.85470  0.95920  1.0000 -0.7026813014
O   O34       1.0  0.85470  0.34510  0.54080  1.0000 -0.7026813014
O   O35       1.0  0.65490  0.14530  0.04080  1.0000 -0.7026813014
O   O36       1.0  0.14530  0.65490  0.45920  1.0000 -0.7026813014
O   O37       1.0  0.47960  0.74260  0.84740  1.0000 -0.5166475906
O   O38       1.0  0.74260  0.47960  0.65260  1.0000 -0.5166475906
O   O39       1.0  0.52040  0.25740  0.15260  1.0000 -0.5166475906
O   O40       1.0  0.25740  0.52040  0.34740  1.0000 -0.5166475906
O   O41       1.0  0.49480  0.95040  0.87720  1.0000 -0.7757809593
O   O42       1.0  0.95040  0.49480  0.62280  1.0000 -0.7757809593
O   O43       1.0  0.50520  0.04960  0.12280  1.0000 -0.7757809593
O   O44       1.0  0.04960  0.50520  0.37720  1.0000 -0.7757809593
