# DDEC6 charges by PACMAN v1.1 (https://github.com/mtap-research/PACMAN-charge/)
data_2016[ZnCo][sab]3[ION]1
_chemical_formula_sum              "Zn8 Co4 H116 C100 N12 O56"
_cell_length_a       16.9353
_cell_length_b       16.9353
_cell_length_c       16.9353
_cell_angle_alpha    106.237
_cell_angle_beta     106.237
_cell_angle_gamma    116.154

_symmetry_space_group_name_H-M    "P 1"
_symmetry_Int_Tables_number       1

loop_
  _symmetry_equiv_pos_as_xyz
  'x, y, z'

loop_
  _atom_site_type_symbol
  _atom_site_label
  _atom_site_symmetry_multiplicity
  _atom_site_fract_x
  _atom_site_fract_y
  _atom_site_fract_z
  _atom_site_occupancy
  _atom_site_charge
Zn  Zn1       1.0  0.02242  0.88158  0.37598  1.0000 0.9789255705
Zn  Zn2       1.0  0.50560  0.64644  0.62402  1.0000 0.9789255705
Zn  Zn3       1.0  0.64644  0.02242  0.14084  1.0000 0.9789255705
Zn  Zn4       1.0  0.88158  0.50560  0.85916  1.0000 0.9789255705
Zn  Zn5       1.0  0.52242  0.14644  0.14084  1.0000 0.9789255705
Zn  Zn6       1.0  0.00560  0.38158  0.85916  1.0000 0.9789255705
Zn  Zn7       1.0  0.14644  0.00560  0.62402  1.0000 0.9789255705
Zn  Zn8       1.0  0.38158  0.52242  0.37598  1.0000 0.9789255705
Co  Co1       1.0  0.96612  0.77200  0.50000  1.0000 1.0735791844
Co  Co2       1.0  0.27200  0.46612  0.50000  1.0000 1.0735791844
Co  Co3       1.0  0.46612  0.96612  0.19412  1.0000 1.0735791844
Co  Co4       1.0  0.77200  0.27200  0.80588  1.0000 1.0735791844
H   H1        1.0  0.77430  0.66430  0.50000  1.0000 0.1142007041
H   H2        1.0  0.16430  0.27430  0.50000  1.0000 0.1142007041
H   H3        1.0  0.27430  0.77430  0.11000  1.0000 0.1142007041
H   H4        1.0  0.66430  0.16430  0.89000  1.0000 0.1142007041
H   H5        1.0  0.78290  0.91870  0.31220  1.0000 0.1286564924
H   H6        1.0  0.60650  0.47070  0.68780  1.0000 0.1286564924
H   H7        1.0  0.47070  0.78290  0.86420  1.0000 0.1286564924
H   H8        1.0  0.91870  0.60650  0.13580  1.0000 0.1286564924
H   H9        1.0  0.28290  0.97070  0.86420  1.0000 0.1286564924
H   H10       1.0  0.10650  0.41870  0.13580  1.0000 0.1286564924
H   H11       1.0  0.97070  0.10650  0.68780  1.0000 0.1286564924
H   H12       1.0  0.41870  0.28290  0.31220  1.0000 0.1286564924
H   H13       1.0  0.67340  0.70420  0.38700  1.0000 0.1174528521
H   H14       1.0  0.31720  0.28640  0.61300  1.0000 0.1174528521
H   H15       1.0  0.28640  0.67340  0.96920  1.0000 0.1174528521
H   H16       1.0  0.70420  0.31720  0.03080  1.0000 0.1174528521
H   H17       1.0  0.17340  0.78640  0.96920  1.0000 0.1174528521
H   H18       1.0  0.81720  0.20420  0.03080  1.0000 0.1174528521
H   H19       1.0  0.78640  0.81720  0.61300  1.0000 0.1174528521
H   H20       1.0  0.20420  0.17340  0.38700  1.0000 0.1174528521
H   H21       1.0  0.60360  0.45760  0.50000  1.0000 0.1412642992
H   H22       1.0  0.95760  0.10360  0.50000  1.0000 0.1412642992
H   H23       1.0  0.10360  0.60360  0.14600  1.0000 0.1412642992
H   H24       1.0  0.45760  0.95760  0.85400  1.0000 0.1412642992
H   H25       1.0  0.59850  0.51780  0.44550  1.0000 0.1412642992
H   H26       1.0  0.07230  0.15300  0.55450  1.0000 0.1412642992
H   H27       1.0  0.15300  0.59850  0.08070  1.0000 0.1412642992
H   H28       1.0  0.51780  0.07230  0.91930  1.0000 0.1412642992
H   H29       1.0  0.09850  0.65300  0.08070  1.0000 0.1412642992
H   H30       1.0  0.57230  0.01780  0.91930  1.0000 0.1412642992
H   H31       1.0  0.65300  0.57230  0.55450  1.0000 0.1412642992
H   H32       1.0  0.01780  0.09850  0.44550  1.0000 0.1412642992
H   H33       1.0  0.69540  0.41240  0.50000  1.0000 0.1286564924
H   H34       1.0  0.91240  0.19540  0.50000  1.0000 0.1286564924
H   H35       1.0  0.19540  0.69540  0.28300  1.0000 0.1286564924
H   H36       1.0  0.41240  0.91240  0.71700  1.0000 0.1286564924
H   H37       1.0  0.81010  0.49450  0.55460  1.0000 0.1412642992
H   H38       1.0  0.93990  0.25550  0.44540  1.0000 0.1412642992
H   H39       1.0  0.25550  0.81010  0.31560  1.0000 0.1412642992
H   H40       1.0  0.49450  0.93990  0.68440  1.0000 0.1412642992
H   H41       1.0  0.31010  0.75550  0.31560  1.0000 0.1412642992
H   H42       1.0  0.43990  0.99450  0.68440  1.0000 0.1412642992
H   H43       1.0  0.75550  0.43990  0.44540  1.0000 0.1412642992
H   H44       1.0  0.99450  0.31010  0.55460  1.0000 0.1412642992
H   H45       1.0  0.01850  0.70480  0.70170  1.0000 0.1286564924
H   H46       1.0  0.00310  0.31680  0.29830  1.0000 0.1286564924
H   H47       1.0  0.31680  0.01850  0.31370  1.0000 0.1286564924
H   H48       1.0  0.70480  0.00310  0.68630  1.0000 0.1286564924
H   H49       1.0  0.51850  0.81680  0.31370  1.0000 0.1286564924
H   H50       1.0  0.50310  0.20480  0.68630  1.0000 0.1286564924
H   H51       1.0  0.81680  0.50310  0.29830  1.0000 0.1286564924
H   H52       1.0  0.20480  0.51850  0.70170  1.0000 0.1286564924
H   H53       1.0  0.99630  0.80340  0.06510  1.0000 0.1412642992
H   H54       1.0  0.10720  0.83980  0.09220  1.0000 0.1492973087
H   H55       1.0  0.08240  0.89760  0.16000  1.0000 0.1412642992
H   H56       1.0  0.04820  0.88320  0.99240  1.0000 0.208386894
H   H57       1.0  0.02570  0.93560  0.05390  1.0000 0.1836729084
H   H58       1.0  0.13890  0.03880  0.03370  1.0000 0.1142007041
H   H59       1.0  0.18180  0.06160  0.13820  1.0000 0.1286564924
H   H60       1.0  0.20660  0.00380  0.07040  1.0000 0.1492973087
H   H61       1.0  0.73830  0.93120  0.93490  1.0000 0.1412642992
H   H62       1.0  0.74760  0.01500  0.90780  1.0000 0.1492973087
H   H63       1.0  0.73760  0.92240  0.84000  1.0000 0.1412642992
H   H64       1.0  0.89080  0.05580  0.00760  1.0000 0.208386894
H   H65       1.0  0.88170  0.97180  0.94610  1.0000 0.1836729084
H   H66       1.0  0.00510  0.10520  0.96630  1.0000 0.1142007041
H   H67       1.0  0.92340  0.04360  0.86180  1.0000 0.1286564924
H   H68       1.0  0.93340  0.13620  0.92960  1.0000 0.1492973087
H   H69       1.0  0.93120  0.99630  0.19290  1.0000 0.1412642992
H   H70       1.0  0.01500  0.10720  0.26740  1.0000 0.1492973087
H   H71       1.0  0.92240  0.08240  0.18480  1.0000 0.1412642992
H   H72       1.0  0.05580  0.04820  0.16500  1.0000 0.208386894
H   H73       1.0  0.97180  0.02570  0.09010  1.0000 0.1836729084
H   H74       1.0  0.10520  0.13890  0.10010  1.0000 0.1142007041
H   H75       1.0  0.04360  0.18180  0.12020  1.0000 0.1286564924
H   H76       1.0  0.13620  0.20660  0.20280  1.0000 0.1492973087
H   H77       1.0  0.80340  0.73830  0.80710  1.0000 0.1412642992
H   H78       1.0  0.83980  0.74760  0.73260  1.0000 0.1492973087
H   H79       1.0  0.89760  0.73760  0.81520  1.0000 0.1412642992
H   H80       1.0  0.88320  0.89080  0.83500  1.0000 0.208386894
H   H81       1.0  0.93560  0.88170  0.90990  1.0000 0.1836729084
H   H82       1.0  0.03880  0.00510  0.89990  1.0000 0.1142007041
H   H83       1.0  0.06160  0.92340  0.87980  1.0000 0.1286564924
H   H84       1.0  0.00380  0.93340  0.79720  1.0000 0.1492973087
H   H85       1.0  0.49630  0.43120  0.19290  1.0000 0.1412642992
H   H86       1.0  0.60720  0.51500  0.26740  1.0000 0.1492973087
H   H87       1.0  0.58240  0.42240  0.18480  1.0000 0.1412642992
H   H88       1.0  0.54820  0.55580  0.16500  1.0000 0.208386894
H   H89       1.0  0.52570  0.47180  0.09010  1.0000 0.1836729084
H   H90       1.0  0.63890  0.60520  0.10010  1.0000 0.1142007041
H   H91       1.0  0.68180  0.54360  0.12020  1.0000 0.1286564924
H   H92       1.0  0.70660  0.63620  0.20280  1.0000 0.1492973087
H   H93       1.0  0.23830  0.30340  0.80710  1.0000 0.1412642992
H   H94       1.0  0.24760  0.33980  0.73260  1.0000 0.1492973087
H   H95       1.0  0.23760  0.39760  0.81520  1.0000 0.1412642992
H   H96       1.0  0.39080  0.38320  0.83500  1.0000 0.208386894
H   H97       1.0  0.38170  0.43560  0.90990  1.0000 0.1836729084
H   H98       1.0  0.50510  0.53880  0.89990  1.0000 0.1142007041
H   H99       1.0  0.42340  0.56160  0.87980  1.0000 0.1286564924
H   H100      1.0  0.43340  0.50380  0.79720  1.0000 0.1492973087
H   H101      1.0  0.43120  0.23830  0.93490  1.0000 0.1412642992
H   H102      1.0  0.51500  0.24760  0.90780  1.0000 0.1492973087
H   H103      1.0  0.42240  0.23760  0.84000  1.0000 0.1412642992
H   H104      1.0  0.55580  0.39080  0.00760  1.0000 0.208386894
H   H105      1.0  0.47180  0.38170  0.94610  1.0000 0.1836729084
H   H106      1.0  0.60520  0.50510  0.96630  1.0000 0.1142007041
H   H107      1.0  0.54360  0.42340  0.86180  1.0000 0.1286564924
H   H108      1.0  0.63620  0.43340  0.92960  1.0000 0.1492973087
H   H109      1.0  0.30340  0.49630  0.06510  1.0000 0.1412642992
H   H110      1.0  0.33980  0.60720  0.09220  1.0000 0.1492973087
H   H111      1.0  0.39760  0.58240  0.16000  1.0000 0.1412642992
H   H112      1.0  0.38320  0.54820  0.99240  1.0000 0.208386894
H   H113      1.0  0.43560  0.52570  0.05390  1.0000 0.1836729084
H   H114      1.0  0.53880  0.63890  0.03370  1.0000 0.1142007041
H   H115      1.0  0.56160  0.68180  0.13820  1.0000 0.1286564924
H   H116      1.0  0.50380  0.70660  0.07040  1.0000 0.1492973087
C   C1        1.0  0.83810  0.81720  0.37690  1.0000 0.5758888048
C   C2        1.0  0.44030  0.46120  0.62310  1.0000 0.5758888048
C   C3        1.0  0.46120  0.83810  0.02090  1.0000 0.5758888048
C   C4        1.0  0.81720  0.44030  0.97910  1.0000 0.5758888048
C   C5        1.0  0.33810  0.96120  0.02090  1.0000 0.5758888048
C   C6        1.0  0.94030  0.31720  0.97910  1.0000 0.5758888048
C   C7        1.0  0.96120  0.94030  0.62310  1.0000 0.5758888048
C   C8        1.0  0.31720  0.33810  0.37690  1.0000 0.5758888048
C   C9        1.0  0.74440  0.81450  0.35550  1.0000 -0.0305013206
C   C10       1.0  0.45900  0.38890  0.64450  1.0000 -0.0305013206
C   C11       1.0  0.38890  0.74440  0.92990  1.0000 -0.0305013206
C   C12       1.0  0.81450  0.45900  0.07010  1.0000 -0.0305013206
C   C13       1.0  0.24440  0.88890  0.92990  1.0000 -0.0305013206
C   C14       1.0  0.95900  0.31450  0.07010  1.0000 -0.0305013206
C   C15       1.0  0.88890  0.95900  0.64450  1.0000 -0.0305013206
C   C16       1.0  0.31450  0.24440  0.35550  1.0000 -0.0305013206
C   C17       1.0  0.79200  0.61960  0.50000  1.0000 0.2781884965
C   C18       1.0  0.11960  0.29200  0.50000  1.0000 0.2781884965
C   C19       1.0  0.29200  0.79200  0.17240  1.0000 0.2781884965
C   C20       1.0  0.61960  0.11960  0.82760  1.0000 0.2781884965
C   C21       1.0  0.13410  0.86240  0.68990  1.0000 0.5916659754
C   C22       1.0  0.17250  0.44420  0.31010  1.0000 0.5916659754
C   C23       1.0  0.44420  0.13410  0.27170  1.0000 0.5916659754
C   C24       1.0  0.86240  0.17250  0.72830  1.0000 0.5916659754
C   C25       1.0  0.63410  0.94420  0.27170  1.0000 0.5916659754
C   C26       1.0  0.67250  0.36240  0.72830  1.0000 0.5916659754
C   C27       1.0  0.94420  0.67250  0.31010  1.0000 0.5916659754
C   C28       1.0  0.36240  0.63410  0.68990  1.0000 0.5916659754
C   C29       1.0  0.73400  0.87770  0.32370  1.0000 -0.1178462229
C   C30       1.0  0.55400  0.41030  0.67630  1.0000 -0.1178462229
C   C31       1.0  0.41030  0.73400  0.85630  1.0000 -0.1178462229
C   C32       1.0  0.87770  0.55400  0.14370  1.0000 -0.1178462229
C   C33       1.0  0.23400  0.91030  0.85630  1.0000 -0.1178462229
C   C34       1.0  0.05400  0.37770  0.14370  1.0000 -0.1178462229
C   C35       1.0  0.91030  0.05400  0.67630  1.0000 -0.1178462229
C   C36       1.0  0.37770  0.23400  0.32370  1.0000 -0.1178462229
C   C37       1.0  0.66700  0.74810  0.36730  1.0000 -0.1310148243
C   C38       1.0  0.38080  0.29970  0.63270  1.0000 -0.1310148243
C   C39       1.0  0.29970  0.66700  0.91890  1.0000 -0.1310148243
C   C40       1.0  0.74810  0.38080  0.08110  1.0000 -0.1310148243
C   C41       1.0  0.16700  0.79970  0.91890  1.0000 -0.1310148243
C   C42       1.0  0.88080  0.24810  0.08110  1.0000 -0.1310148243
C   C43       1.0  0.79970  0.88080  0.63270  1.0000 -0.1310148243
C   C44       1.0  0.24810  0.16700  0.36730  1.0000 -0.1310148243
C   C45       1.0  0.14930  0.84060  0.76950  1.0000 -0.0405840407
C   C46       1.0  0.07110  0.37980  0.23050  1.0000 -0.0405840407
C   C47       1.0  0.37980  0.14930  0.30870  1.0000 -0.0405840407
C   C48       1.0  0.84060  0.07110  0.69130  1.0000 -0.0405840407
C   C49       1.0  0.64930  0.87980  0.30870  1.0000 -0.0405840407
C   C50       1.0  0.57110  0.34060  0.69130  1.0000 -0.0405840407
C   C51       1.0  0.87980  0.57110  0.23050  1.0000 -0.0405840407
C   C52       1.0  0.34060  0.64930  0.76950  1.0000 -0.0405840407
C   C53       1.0  0.58320  0.74790  0.35030  1.0000 -0.0305013206
C   C54       1.0  0.39760  0.23290  0.64970  1.0000 -0.0305013206
C   C55       1.0  0.23290  0.58320  0.83530  1.0000 -0.0305013206
C   C56       1.0  0.74790  0.39760  0.16470  1.0000 -0.0305013206
C   C57       1.0  0.08320  0.73290  0.83530  1.0000 -0.0305013206
C   C58       1.0  0.89760  0.24790  0.16470  1.0000 -0.0305013206
C   C59       1.0  0.73290  0.89760  0.64970  1.0000 -0.0305013206
C   C60       1.0  0.24790  0.08320  0.35030  1.0000 -0.0305013206
C   C61       1.0  0.63880  0.52020  0.50000  1.0000 -0.3063540371
C   C62       1.0  0.02020  0.13880  0.50000  1.0000 -0.3044420857
C   C63       1.0  0.13880  0.63880  0.11860  1.0000 -0.3044420857
C   C64       1.0  0.52020  0.02020  0.88140  1.0000 -0.3044420857
C   C65       1.0  0.74940  0.46560  0.50000  1.0000 -0.2728272009
C   C66       1.0  0.96560  0.24940  0.50000  1.0000 -0.2728272009
C   C67       1.0  0.24940  0.74940  0.28380  1.0000 -0.2728272009
C   C68       1.0  0.46560  0.96560  0.71620  1.0000 -0.2728272009
C   C69       1.0  0.07440  0.75160  0.75940  1.0000 -0.1178462229
C   C70       1.0  0.99220  0.31500  0.24060  1.0000 -0.1178462229
C   C71       1.0  0.31500  0.07440  0.32280  1.0000 -0.1178462229
C   C72       1.0  0.75160  0.99220  0.67720  1.0000 -0.1178462229
C   C73       1.0  0.57440  0.81500  0.32280  1.0000 -0.1178462229
C   C74       1.0  0.49220  0.25160  0.67720  1.0000 -0.1178462229
C   C75       1.0  0.81500  0.49220  0.24060  1.0000 -0.1178462229
C   C76       1.0  0.25160  0.57440  0.75940  1.0000 -0.1178462229
C   C77       1.0  0.49890  0.67560  0.35910  1.0000 0.5409395617
C   C78       1.0  0.31650  0.13980  0.64090  1.0000 0.5409395617
C   C79       1.0  0.13980  0.49890  0.82330  1.0000 0.5409395617
C   C80       1.0  0.67560  0.31650  0.17670  1.0000 0.5409395617
C   C81       1.0  0.99890  0.63980  0.82330  1.0000 0.5409395617
C   C82       1.0  0.81650  0.17560  0.17670  1.0000 0.5409395617
C   C83       1.0  0.63980  0.81650  0.64090  1.0000 0.5409395617
C   C84       1.0  0.17560  0.99890  0.35910  1.0000 0.5409395617
C   C85       1.0  0.06300  0.86100  0.09600  1.0000 -0.3063540371
C   C86       1.0  0.15700  0.01500  0.07600  1.0000 -0.3433584053
C   C87       1.0  0.76500  0.96700  0.90400  1.0000 -0.3063540371
C   C88       1.0  0.93900  0.08100  0.92400  1.0000 -0.3433584053
C   C89       1.0  0.96700  0.06300  0.20200  1.0000 -0.3063540371
C   C90       1.0  0.08100  0.15700  0.14200  1.0000 -0.3433584053
C   C91       1.0  0.86100  0.76500  0.79800  1.0000 -0.3063540371
C   C92       1.0  0.01500  0.93900  0.85800  1.0000 -0.3433584053
C   C93       1.0  0.56300  0.46700  0.20200  1.0000 -0.3063540371
C   C94       1.0  0.65700  0.58100  0.14200  1.0000 -0.3433584053
C   C95       1.0  0.26500  0.36100  0.79800  1.0000 -0.3063540371
C   C96       1.0  0.43900  0.51500  0.85800  1.0000 -0.3433584053
C   C97       1.0  0.46700  0.26500  0.90400  1.0000 -0.3063540371
C   C98       1.0  0.58100  0.43900  0.92400  1.0000 -0.3433584053
C   C99       1.0  0.36100  0.56300  0.09600  1.0000 -0.3063540371
C   C100      1.0  0.51500  0.65700  0.07600  1.0000 -0.3433584053
N   N1        1.0  0.73040  0.53940  0.50000  1.0000 0.0134472324
N   N2        1.0  0.03940  0.23040  0.50000  1.0000 0.0134472324
N   N3        1.0  0.23040  0.73040  0.19100  1.0000 0.0134472324
N   N4        1.0  0.53940  0.03940  0.80900  1.0000 0.0134472324
N   N5        1.0  0.07000  0.92200  0.05200  1.0000 -0.1408557132
N   N6        1.0  0.87000  0.01800  0.94800  1.0000 -0.1408557132
N   N7        1.0  0.01800  0.07000  0.14800  1.0000 -0.1408557132
N   N8        1.0  0.92200  0.87000  0.85200  1.0000 -0.1408557132
N   N9        1.0  0.57000  0.51800  0.14800  1.0000 -0.1408557132
N   N10       1.0  0.37000  0.42200  0.85200  1.0000 -0.1408557132
N   N11       1.0  0.51800  0.37000  0.94800  1.0000 -0.1408557132
N   N12       1.0  0.42200  0.57000  0.05200  1.0000 -0.1408557132
O   O1        1.0  0.08070  0.89330  0.50000  1.0000 -0.8488323766
O   O2        1.0  0.39330  0.58070  0.50000  1.0000 -0.8488323766
O   O3        1.0  0.58070  0.08070  0.18740  1.0000 -0.8488323766
O   O4        1.0  0.89330  0.39330  0.81260  1.0000 -0.8488323766
O   O5        1.0  0.90420  0.88220  0.36620  1.0000 -0.5393961746
O   O6        1.0  0.51600  0.53800  0.63380  1.0000 -0.5393961746
O   O7        1.0  0.53800  0.90420  0.02200  1.0000 -0.5393961746
O   O8        1.0  0.88220  0.51600  0.97800  1.0000 -0.5393961746
O   O9        1.0  0.40420  0.03800  0.02200  1.0000 -0.5393961746
O   O10       1.0  0.01600  0.38220  0.97800  1.0000 -0.5393961746
O   O11       1.0  0.03800  0.01600  0.63380  1.0000 -0.5393961746
O   O12       1.0  0.38220  0.40420  0.36620  1.0000 -0.5393961746
O   O13       1.0  0.96910  0.74500  0.29030  1.0000 -0.5586629438
O   O14       1.0  0.45470  0.67880  0.70970  1.0000 -0.5586629438
O   O15       1.0  0.67880  0.96910  0.22410  1.0000 -0.5586629438
O   O16       1.0  0.74500  0.45470  0.77590  1.0000 -0.5586629438
O   O17       1.0  0.46910  0.17880  0.22410  1.0000 -0.5586629438
O   O18       1.0  0.95470  0.24500  0.77590  1.0000 -0.5586629438
O   O19       1.0  0.17880  0.95470  0.70970  1.0000 -0.5586629438
O   O20       1.0  0.24500  0.46910  0.29030  1.0000 -0.5586629438
O   O21       1.0  0.10160  0.99900  0.36340  1.0000 -0.5586629438
O   O22       1.0  0.63560  0.73820  0.63660  1.0000 -0.5586629438
O   O23       1.0  0.73820  0.10160  0.10260  1.0000 -0.5586629438
O   O24       1.0  0.99900  0.63560  0.89740  1.0000 -0.5586629438
O   O25       1.0  0.60160  0.23820  0.10260  1.0000 -0.5586629438
O   O26       1.0  0.13560  0.49900  0.89740  1.0000 -0.5586629438
O   O27       1.0  0.23820  0.13560  0.63660  1.0000 -0.5586629438
O   O28       1.0  0.49900  0.60160  0.36340  1.0000 -0.5586629438
O   O29       1.0  0.84530  0.75670  0.40260  1.0000 -0.5938815552
O   O30       1.0  0.35410  0.44270  0.59740  1.0000 -0.5938815552
O   O31       1.0  0.44270  0.84530  0.08860  1.0000 -0.5938815552
O   O32       1.0  0.75670  0.35410  0.91140  1.0000 -0.5938815552
O   O33       1.0  0.34530  0.94270  0.08860  1.0000 -0.5938815552
O   O34       1.0  0.85410  0.25670  0.91140  1.0000 -0.5938815552
O   O35       1.0  0.94270  0.85410  0.59740  1.0000 -0.5938815552
O   O36       1.0  0.25670  0.34530  0.40260  1.0000 -0.5938815552
O   O37       1.0  0.87000  0.64160  0.50000  1.0000 -0.3944175619
O   O38       1.0  0.14160  0.37000  0.50000  1.0000 -0.3944175619
O   O39       1.0  0.37000  0.87000  0.22840  1.0000 -0.3944175619
O   O40       1.0  0.64160  0.14160  0.77160  1.0000 -0.3944175619
O   O41       1.0  0.96930  0.68120  0.39130  1.0000 -0.5154054719
O   O42       1.0  0.28990  0.57800  0.60870  1.0000 -0.5154054719
O   O43       1.0  0.57800  0.96930  0.28810  1.0000 -0.5147669393
O   O44       1.0  0.68120  0.28990  0.71190  1.0000 -0.5154054719
O   O45       1.0  0.46930  0.07800  0.28810  1.0000 -0.5147669393
O   O46       1.0  0.78990  0.18120  0.71190  1.0000 -0.5147669393
O   O47       1.0  0.07800  0.78990  0.60870  1.0000 -0.5154054719
O   O48       1.0  0.18120  0.46930  0.39130  1.0000 -0.5154054719
O   O49       1.0  0.43270  0.68820  0.36010  1.0000 -0.5002924133
O   O50       1.0  0.32810  0.07260  0.63990  1.0000 -0.5002924133
O   O51       1.0  0.07260  0.43270  0.74450  1.0000 -0.5002924133
O   O52       1.0  0.68820  0.32810  0.25550  1.0000 -0.5002924133
O   O53       1.0  0.93270  0.57260  0.74450  1.0000 -0.5002924133
O   O54       1.0  0.82810  0.18820  0.25550  1.0000 -0.5002924133
O   O55       1.0  0.57260  0.82810  0.63990  1.0000 -0.5002924133
O   O56       1.0  0.18820  0.93270  0.36010  1.0000 -0.5002924133
