# DDEC6 charges by PACMAN v1.1 (https://github.com/mtap-research/PACMAN-charge/)
data_2016[Ag][lvt]3[ION]2
_chemical_formula_sum              "Ag4 P4 H144 C120 S16 N16 F24"
_cell_length_a       18.4639
_cell_length_b       18.4639
_cell_length_c       18.4639
_cell_angle_alpha    97.8889
_cell_angle_beta     97.8889
_cell_angle_gamma    136.51

_symmetry_space_group_name_H-M    "P 1"
_symmetry_Int_Tables_number       1

loop_
  _symmetry_equiv_pos_as_xyz
  'x, y, z'

loop_
  _atom_site_type_symbol
  _atom_site_label
  _atom_site_symmetry_multiplicity
  _atom_site_fract_x
  _atom_site_fract_y
  _atom_site_fract_z
  _atom_site_occupancy
  _atom_site_charge
Ag  Ag1       1.0  0.62500  0.45266  0.32766  1.0000 0.2413648787
Ag  Ag2       1.0  0.12500  0.29734  0.67234  1.0000 0.2413648787
Ag  Ag3       1.0  0.70266  0.37500  0.82766  1.0000 0.2413648787
Ag  Ag4       1.0  0.54734  0.87500  0.17234  1.0000 0.2413648787
P   P1        1.0  0.15327  0.37500  0.27827  1.0000 1.4825696396
P   P2        1.0  0.09673  0.87500  0.72173  1.0000 1.4825696396
P   P3        1.0  0.62500  0.90327  0.77827  1.0000 1.4825696396
P   P4        1.0  0.12500  0.84673  0.22173  1.0000 1.4825696396
H   H1        1.0  0.70620  0.85030  0.20030  1.0000 0.1209903879
H   H2        1.0  0.65000  0.50590  0.79970  1.0000 0.1136591441
H   H3        1.0  0.49410  0.29380  0.14410  1.0000 0.1209903879
H   H4        1.0  0.14970  0.35000  0.85590  1.0000 0.1136591441
H   H5        1.0  0.54380  0.24410  0.64410  1.0000 0.1136591441
H   H6        1.0  0.60000  0.89970  0.35590  1.0000 0.1209903879
H   H7        1.0  0.75590  0.40000  0.29970  1.0000 0.1209903879
H   H8        1.0  0.10030  0.45620  0.70030  1.0000 0.1209903879
H   H9        1.0  0.83600  0.74800  0.23500  1.0000 0.1209903879
H   H10       1.0  0.51300  0.60100  0.76500  1.0000 0.1209903879
H   H11       1.0  0.39900  0.16400  0.91200  1.0000 0.1209903879
H   H12       1.0  0.25200  0.48700  0.08800  1.0000 0.1209903879
H   H13       1.0  0.41400  0.14900  0.41200  1.0000 0.1209903879
H   H14       1.0  0.73700  0.00200  0.58800  1.0000 0.1209903879
H   H15       1.0  0.85100  0.26300  0.26500  1.0000 0.1209903879
H   H16       1.0  0.99800  0.58600  0.73500  1.0000 0.1209903879
H   H17       1.0  0.30640  0.38970  0.18470  1.0000 0.1400967889
H   H18       1.0  0.20500  0.12170  0.81530  1.0000 0.1400967889
H   H19       1.0  0.87830  0.69360  0.08330  1.0000 0.1400967889
H   H20       1.0  0.61030  0.79500  0.91670  1.0000 0.1400967889
H   H21       1.0  0.94360  0.62830  0.58330  1.0000 0.1400967889
H   H22       1.0  0.04500  0.36030  0.41670  1.0000 0.1400967889
H   H23       1.0  0.37170  0.95500  0.31530  1.0000 0.1400967889
H   H24       1.0  0.63970  0.05640  0.68470  1.0000 0.1400967889
H   H25       1.0  0.41120  0.52380  0.21600  1.0000 0.1307142856
H   H26       1.0  0.30780  0.19520  0.78400  1.0000 0.1307142856
H   H27       1.0  0.80480  0.58880  0.11260  1.0000 0.1307142856
H   H28       1.0  0.47620  0.69220  0.88740  1.0000 0.1307142856
H   H29       1.0  0.83880  0.55480  0.61260  1.0000 0.1307142856
H   H30       1.0  0.94220  0.22620  0.38740  1.0000 0.1307142856
H   H31       1.0  0.44520  0.05780  0.28400  1.0000 0.1307142856
H   H32       1.0  0.77380  0.16120  0.71600  1.0000 0.1307142856
H   H33       1.0  0.42900  0.47840  0.31960  1.0000 0.1400967889
H   H34       1.0  0.15880  0.10940  0.68040  1.0000 0.1400967889
H   H35       1.0  0.89060  0.57100  0.04940  1.0000 0.1400967889
H   H36       1.0  0.52160  0.84120  0.95060  1.0000 0.1400967889
H   H37       1.0  0.82100  0.64060  0.54940  1.0000 0.1400967889
H   H38       1.0  0.09120  0.27160  0.45060  1.0000 0.1400967889
H   H39       1.0  0.35940  0.90880  0.18040  1.0000 0.1400967889
H   H40       1.0  0.72840  0.17900  0.81960  1.0000 0.1400967889
H   H41       1.0  0.52010  0.50870  0.28540  1.0000 0.0995032918
H   H42       1.0  0.22330  0.23470  0.71460  1.0000 0.0995032918
H   H43       1.0  0.76530  0.47990  0.98860  1.0000 0.0995032918
H   H44       1.0  0.49130  0.77670  0.01140  1.0000 0.0995032918
H   H45       1.0  0.72990  0.51530  0.48860  1.0000 0.0995032918
H   H46       1.0  0.02670  0.24130  0.51140  1.0000 0.0995032918
H   H47       1.0  0.48470  0.97330  0.21460  1.0000 0.0995032918
H   H48       1.0  0.75870  0.27010  0.78540  1.0000 0.0995032918
H   H49       1.0  0.38700  0.18170  0.28270  1.0000 0.1209903879
H   H50       1.0  0.89900  0.10430  0.71730  1.0000 0.1209903879
H   H51       1.0  0.89570  0.61300  0.79470  1.0000 0.1209903879
H   H52       1.0  0.81830  0.10100  0.20530  1.0000 0.1209903879
H   H53       1.0  0.86300  0.64570  0.29470  1.0000 0.1209903879
H   H54       1.0  0.35100  0.56830  0.70530  1.0000 0.1209903879
H   H55       1.0  0.35430  0.64900  0.21730  1.0000 0.1209903879
H   H56       1.0  0.43170  0.13700  0.78270  1.0000 0.1209903879
H   H57       1.0  0.19230  0.08670  0.23660  1.0000 0.1622400927
H   H58       1.0  0.85010  0.95570  0.76340  1.0000 0.1622400927
H   H59       1.0  0.04430  0.80770  0.89440  1.0000 0.1622400927
H   H60       1.0  0.91330  0.14990  0.10560  1.0000 0.1622400927
H   H61       1.0  0.05770  0.79430  0.39440  1.0000 0.1622400927
H   H62       1.0  0.39990  0.66330  0.60560  1.0000 0.1622400927
H   H63       1.0  0.20570  0.60010  0.26340  1.0000 0.1622400927
H   H64       1.0  0.33670  0.94230  0.73660  1.0000 0.1622400927
H   H65       1.0  0.21870  0.23920  0.23130  1.0000 0.1400967889
H   H66       1.0  0.00790  0.98740  0.76870  1.0000 0.1400967889
H   H67       1.0  0.01260  0.78130  0.02050  1.0000 0.1400967889
H   H68       1.0  0.76080  0.99210  0.97950  1.0000 0.1400967889
H   H69       1.0  0.03130  0.76260  0.52050  1.0000 0.1400967889
H   H70       1.0  0.24210  0.51080  0.47950  1.0000 0.1400967889
H   H71       1.0  0.23740  0.75790  0.26870  1.0000 0.1400967889
H   H72       1.0  0.48920  0.96870  0.73130  1.0000 0.1400967889
H   H73       1.0  0.86720  0.97060  0.36100  1.0000 0.1307142856
H   H74       1.0  0.60960  0.50620  0.63900  1.0000 0.1307142856
H   H75       1.0  0.49380  0.13280  0.10340  1.0000 0.1307142856
H   H76       1.0  0.02940  0.39040  0.89660  1.0000 0.1307142856
H   H77       1.0  0.38280  0.24380  0.60340  1.0000 0.1307142856
H   H78       1.0  0.64040  0.77940  0.39660  1.0000 0.1307142856
H   H79       1.0  0.75620  0.35960  0.13900  1.0000 0.1307142856
H   H80       1.0  0.22060  0.61720  0.86100  1.0000 0.1307142856
H   H81       1.0  0.97060  0.08350  0.34710  1.0000 0.1307142856
H   H82       1.0  0.73640  0.62350  0.65290  1.0000 0.1307142856
H   H83       1.0  0.37650  0.02940  0.11290  1.0000 0.1307142856
H   H84       1.0  0.91650  0.26360  0.88710  1.0000 0.1307142856
H   H85       1.0  0.27940  0.12650  0.61290  1.0000 0.1307142856
H   H86       1.0  0.51360  0.66650  0.38710  1.0000 0.1307142856
H   H87       1.0  0.87350  0.48640  0.15290  1.0000 0.1307142856
H   H88       1.0  0.33350  0.72060  0.84710  1.0000 0.1307142856
H   H89       1.0  0.84500  0.00050  0.29030  1.0000 0.1136591441
H   H90       1.0  0.71020  0.55470  0.70970  1.0000 0.1136591441
H   H91       1.0  0.44530  0.15500  0.15550  1.0000 0.1136591441
H   H92       1.0  0.99950  0.28980  0.84450  1.0000 0.1136591441
H   H93       1.0  0.40500  0.19530  0.65550  1.0000 0.1136591441
H   H94       1.0  0.53980  0.74950  0.34450  1.0000 0.1136591441
H   H95       1.0  0.80470  0.46020  0.20970  1.0000 0.1136591441
H   H96       1.0  0.25050  0.59500  0.79030  1.0000 0.1136591441
H   H97       1.0  0.88940  0.98100  0.17080  1.0000 0.1307142856
H   H98       1.0  0.81020  0.71860  0.82920  1.0000 0.1307142856
H   H99       1.0  0.28140  0.11060  0.09160  1.0000 0.1307142856
H   H100      1.0  0.01900  0.18980  0.90840  1.0000 0.1307142856
H   H101      1.0  0.36060  0.03140  0.59160  1.0000 0.1307142856
H   H102      1.0  0.43980  0.76900  0.40840  1.0000 0.1307142856
H   H103      1.0  0.96860  0.56020  0.32920  1.0000 0.1307142856
H   H104      1.0  0.23100  0.63940  0.67080  1.0000 0.1307142856
H   H105      1.0  0.01630  0.07570  0.22960  1.0000 0.1307142856
H   H106      1.0  0.84610  0.78670  0.77040  1.0000 0.1307142856
H   H107      1.0  0.21330  0.98370  0.05940  1.0000 0.1307142856
H   H108      1.0  0.92430  0.15390  0.94060  1.0000 0.1307142856
H   H109      1.0  0.23370  0.96330  0.55940  1.0000 0.1307142856
H   H110      1.0  0.40390  0.67430  0.44060  1.0000 0.1307142856
H   H111      1.0  0.03670  0.59610  0.27040  1.0000 0.1307142856
H   H112      1.0  0.32570  0.76630  0.72960  1.0000 0.1307142856
H   H113      1.0  0.96030  0.96060  0.17390  1.0000 0.1307142856
H   H114      1.0  0.78670  0.78640  0.82610  1.0000 0.1307142856
H   H115      1.0  0.21360  0.03970  0.00030  1.0000 0.1307142856
H   H116      1.0  0.03940  0.21330  0.99970  1.0000 0.1307142856
H   H117      1.0  0.28970  0.96360  0.50030  1.0000 0.1307142856
H   H118      1.0  0.46330  0.78940  0.49970  1.0000 0.1307142856
H   H119      1.0  0.03640  0.53670  0.32610  1.0000 0.1307142856
H   H120      1.0  0.21060  0.71030  0.67390  1.0000 0.1307142856
H   H121      1.0  0.00550  0.92620  0.28450  1.0000 0.1209903879
H   H122      1.0  0.64170  0.72100  0.71550  1.0000 0.1209903879
H   H123      1.0  0.27900  0.99450  0.92070  1.0000 0.1209903879
H   H124      1.0  0.07380  0.35830  0.07930  1.0000 0.1209903879
H   H125      1.0  0.24450  0.02900  0.42070  1.0000 0.1209903879
H   H126      1.0  0.60830  0.82380  0.57930  1.0000 0.1209903879
H   H127      1.0  0.97100  0.39170  0.21550  1.0000 0.1209903879
H   H128      1.0  0.17620  0.75550  0.78450  1.0000 0.1209903879
H   H129      1.0  0.05750  0.03340  0.34970  1.0000 0.1307142856
H   H130      1.0  0.68370  0.70780  0.65030  1.0000 0.1307142856
H   H131      1.0  0.29220  0.94250  0.97590  1.0000 0.1307142856
H   H132      1.0  0.96660  0.31630  0.02410  1.0000 0.1307142856
H   H133      1.0  0.19250  0.04220  0.47590  1.0000 0.1307142856
H   H134      1.0  0.56630  0.71660  0.52410  1.0000 0.1307142856
H   H135      1.0  0.95780  0.43370  0.15030  1.0000 0.1307142856
H   H136      1.0  0.28340  0.80750  0.84970  1.0000 0.1307142856
H   H137      1.0  0.95590  0.91070  0.35320  1.0000 0.1307142856
H   H138      1.0  0.55750  0.60270  0.64680  1.0000 0.1209903879
H   H139      1.0  0.39730  0.04410  0.95480  1.0000 0.1209903879
H   H140      1.0  0.08930  0.44250  0.04520  1.0000 0.1209903879
H   H141      1.0  0.29410  0.14730  0.45480  1.0000 0.1209903879
H   H142      1.0  0.69250  0.83930  0.54520  1.0000 0.1209903879
H   H143      1.0  0.85270  0.30750  0.14680  1.0000 0.1209903879
H   H144      1.0  0.16070  0.70590  0.85320  1.0000 0.1307142856
C   C1        1.0  0.66480  0.61890  0.18210  1.0000 0.0229580768
C   C2        1.0  0.43680  0.48270  0.81790  1.0000 0.0229580768
C   C3        1.0  0.51730  0.33520  0.95410  1.0000 0.0229580768
C   C4        1.0  0.38110  0.56320  0.04590  1.0000 0.0229580768
C   C5        1.0  0.58520  0.26730  0.45410  1.0000 0.0229580768
C   C6        1.0  0.81320  0.13110  0.54590  1.0000 0.0229580768
C   C7        1.0  0.73270  0.18680  0.31790  1.0000 0.0229580768
C   C8        1.0  0.86890  0.41480  0.68210  1.0000 0.0229580768
C   C9        1.0  0.57000  0.59130  0.15690  1.0000 -0.0519486763
C   C10       1.0  0.43440  0.41310  0.84310  1.0000 -0.0519486763
C   C11       1.0  0.58690  0.43000  0.02130  1.0000 -0.0519486763
C   C12       1.0  0.40870  0.56560  0.97870  1.0000 -0.0519486763
C   C13       1.0  0.68000  0.33690  0.52130  1.0000 -0.0519486763
C   C14       1.0  0.81560  0.15870  0.47870  1.0000 -0.0519486763
C   C15       1.0  0.66310  0.18440  0.34310  1.0000 -0.0519486763
C   C16       1.0  0.84130  0.32000  0.65690  1.0000 -0.0519486763
C   C17       1.0  0.58810  0.68010  0.16220  1.0000 0.0229580768
C   C18       1.0  0.51790  0.42590  0.83780  1.0000 0.0229580768
C   C19       1.0  0.57410  0.41190  0.09200  1.0000 0.0229580768
C   C20       1.0  0.31990  0.48210  0.90800  1.0000 0.0229580768
C   C21       1.0  0.66190  0.32410  0.59200  1.0000 0.0229580768
C   C22       1.0  0.73210  0.06990  0.40800  1.0000 0.0229580768
C   C23       1.0  0.67590  0.26790  0.33780  1.0000 0.0229580768
C   C24       1.0  0.93010  0.33810  0.66220  1.0000 0.0229580768
C   C25       1.0  0.69610  0.79150  0.19740  1.0000 -0.200451876
C   C26       1.0  0.59410  0.49870  0.80260  1.0000 -0.200451876
C   C27       1.0  0.50130  0.30390  0.09540  1.0000 -0.200451876
C   C28       1.0  0.20850  0.40590  0.90460  1.0000 -0.200451876
C   C29       1.0  0.55390  0.25130  0.59540  1.0000 -0.200451876
C   C30       1.0  0.65590  0.95850  0.40460  1.0000 -0.200451876
C   C31       1.0  0.74870  0.34410  0.30260  1.0000 -0.200451876
C   C32       1.0  0.04150  0.44610  0.69740  1.0000 -0.200451876
C   C33       1.0  0.78840  0.81850  0.22830  1.0000 0.0995032918
C   C34       1.0  0.59020  0.56010  0.77170  1.0000 0.0995032918
C   C35       1.0  0.43990  0.21160  0.03010  1.0000 0.0995032918
C   C36       1.0  0.18150  0.40980  0.96990  1.0000 0.0995032918
C   C37       1.0  0.46160  0.18990  0.53010  1.0000 0.0995032918
C   C38       1.0  0.65980  0.93150  0.46990  1.0000 0.0995032918
C   C39       1.0  0.81010  0.34020  0.27170  1.0000 0.0995032918
C   C40       1.0  0.06850  0.53840  0.72830  1.0000 0.0995032918
C   C41       1.0  0.77300  0.73140  0.21780  1.0000 -0.200451876
C   C42       1.0  0.51360  0.55520  0.78220  1.0000 -0.200451876
C   C43       1.0  0.44480  0.22700  0.95840  1.0000 -0.200451876
C   C44       1.0  0.26860  0.48640  0.04160  1.0000 -0.200451876
C   C45       1.0  0.47700  0.19480  0.45840  1.0000 -0.200451876
C   C46       1.0  0.73640  0.01860  0.54160  1.0000 -0.200451876
C   C47       1.0  0.80520  0.26360  0.28220  1.0000 -0.200451876
C   C48       1.0  0.98140  0.52300  0.71780  1.0000 -0.200451876
C   C49       1.0  0.38930  0.45500  0.20210  1.0000 -0.2541920496
C   C50       1.0  0.25290  0.18720  0.79790  1.0000 -0.2541920496
C   C51       1.0  0.81280  0.61070  0.06570  1.0000 -0.2541920496
C   C52       1.0  0.54500  0.74710  0.93430  1.0000 -0.2541920496
C   C53       1.0  0.86070  0.56280  0.56570  1.0000 -0.2541920496
C   C54       1.0  0.99710  0.29500  0.43430  1.0000 -0.2541920496
C   C55       1.0  0.43720  0.00290  0.29790  1.0000 -0.2541920496
C   C56       1.0  0.70500  0.13930  0.70210  1.0000 -0.2541920496
C   C57       1.0  0.43870  0.45420  0.27450  1.0000 -0.1321328906
C   C58       1.0  0.17970  0.16420  0.72550  1.0000 -0.1321328906
C   C59       1.0  0.83580  0.56130  0.01550  1.0000 -0.1321328906
C   C60       1.0  0.54580  0.82030  0.98450  1.0000 -0.1321328906
C   C61       1.0  0.81130  0.58580  0.51550  1.0000 -0.1321328906
C   C62       1.0  0.07030  0.29580  0.48450  1.0000 -0.1321328906
C   C63       1.0  0.41420  0.92970  0.22550  1.0000 -0.1321328906
C   C64       1.0  0.70420  0.18870  0.77450  1.0000 -0.1321328906
C   C65       1.0  0.36950  0.21780  0.27410  1.0000 -0.00204797
C   C66       1.0  0.94370  0.09540  0.72590  1.0000 -0.00204797
C   C67       1.0  0.90460  0.63050  0.84830  1.0000 -0.00204797
C   C68       1.0  0.78220  0.05630  0.15170  1.0000 -0.00204797
C   C69       1.0  0.88050  0.65460  0.34830  1.0000 -0.00204797
C   C70       1.0  0.30630  0.53220  0.65170  1.0000 -0.00204797
C   C71       1.0  0.34540  0.69370  0.22590  1.0000 -0.00204797
C   C72       1.0  0.46780  0.11950  0.77410  1.0000 -0.00204797
C   C73       1.0  0.26120  0.16400  0.24880  1.0000 -0.1678159004
C   C74       1.0  0.91520  0.01240  0.75120  1.0000 -0.1678159004
C   C75       1.0  0.98760  0.73880  0.90280  1.0000 -0.1678159004
C   C76       1.0  0.83600  0.08480  0.09720  1.0000 -0.1678159004
C   C77       1.0  0.98880  0.73760  0.40280  1.0000 -0.1678159004
C   C78       1.0  0.33480  0.58600  0.59720  1.0000 -0.1678159004
C   C79       1.0  0.26240  0.66520  0.25120  1.0000 -0.1678159004
C   C80       1.0  0.41400  0.01120  0.74880  1.0000 -0.1678159004
C   C81       1.0  0.27650  0.24760  0.24550  1.0000 -0.0445256298
C   C82       1.0  0.00210  0.03100  0.75450  1.0000 -0.0445256298
C   C83       1.0  0.96900  0.72350  0.97110  1.0000 -0.0445256298
C   C84       1.0  0.75240  0.99790  0.02890  1.0000 -0.0445256298
C   C85       1.0  0.97350  0.71900  0.47110  1.0000 -0.0445256298
C   C86       1.0  0.24790  0.50240  0.52890  1.0000 -0.0445256298
C   C87       1.0  0.28100  0.75210  0.25450  1.0000 -0.0445256298
C   C88       1.0  0.49760  0.02650  0.74550  1.0000 -0.0445256298
C   C89       1.0  0.90460  0.94180  0.26860  1.0000 0.2753078091
C   C90       1.0  0.67320  0.63600  0.73140  1.0000 0.2753078091
C   C91       1.0  0.36400  0.09540  0.03720  1.0000 0.2753078091
C   C92       1.0  0.05820  0.32680  0.96280  1.0000 0.2753078091
C   C93       1.0  0.34540  0.11400  0.53720  1.0000 0.2753078091
C   C94       1.0  0.57680  0.80820  0.46280  1.0000 0.2753078091
C   C95       1.0  0.88600  0.42320  0.23140  1.0000 0.2753078091
C   C96       1.0  0.19180  0.65460  0.76860  1.0000 0.2753078091
C   C97       1.0  0.89610  0.00480  0.32150  1.0000 -0.4723898349
C   C98       1.0  0.68330  0.57460  0.67850  1.0000 -0.4723898349
C   C99       1.0  0.42540  0.10390  0.10870  1.0000 -0.4723898349
C   C100      1.0  0.99520  0.31670  0.89130  1.0000 -0.4723898349
C   C101      1.0  0.35390  0.17540  0.60870  1.0000 -0.4723898349
C   C102      1.0  0.56670  0.74520  0.39130  1.0000 -0.4723898349
C   C103      1.0  0.82460  0.43330  0.17850  1.0000 -0.4723898349
C   C104      1.0  0.25480  0.64610  0.82150  1.0000 -0.4723898349
C   C105      1.0  0.94650  0.99470  0.20480  1.0000 -0.4637947035
C   C106      1.0  0.78990  0.74170  0.79520  1.0000 -0.4637947035
C   C107      1.0  0.25830  0.05350  0.04820  1.0000 -0.4637947035
C   C108      1.0  0.00530  0.21010  0.95180  1.0000 -0.4637947035
C   C109      1.0  0.30350  0.00830  0.54820  1.0000 -0.4637947035
C   C110      1.0  0.46010  0.75530  0.45180  1.0000 -0.4637947035
C   C111      1.0  0.99170  0.53990  0.29520  1.0000 -0.4637947035
C   C112      1.0  0.24470  0.69650  0.70480  1.0000 -0.4637947035
C   C113      1.0  0.98840  0.95410  0.31850  1.0000 -0.4723898349
C   C114      1.0  0.63560  0.66990  0.68150  1.0000 -0.4723898349
C   C115      1.0  0.33010  0.01160  0.96570  1.0000 -0.4723898349
C   C116      1.0  0.04590  0.36440  0.03430  1.0000 -0.4723898349
C   C117      1.0  0.26160  0.08010  0.46570  1.0000 -0.4723898349
C   C118      1.0  0.61440  0.79590  0.53430  1.0000 -0.4723898349
C   C119      1.0  0.91990  0.38560  0.18150  1.0000 -0.4723898349
C   C120      1.0  0.20410  0.73840  0.81850  1.0000 -0.4723898349
S   S1        1.0  0.65906  0.51933  0.18421  1.0000 -0.0160559547
S   S2        1.0  0.33512  0.47485  0.81579  1.0000 -0.0160559547
S   S3        1.0  0.52515  0.34094  0.86027  1.0000 -0.014235598
S   S4        1.0  0.48067  0.66488  0.13973  1.0000 -0.0160559547
S   S5        1.0  0.59094  0.27515  0.36027  1.0000 -0.0160559547
S   S6        1.0  0.91488  0.23067  0.63973  1.0000 -0.0160559547
S   S7        1.0  0.72485  0.08512  0.31579  1.0000 -0.0160559547
S   S8        1.0  0.76933  0.40906  0.68421  1.0000 -0.0160559547
S   S9        1.0  0.43411  0.45015  0.12184  1.0000 0.0526525672
S   S10       1.0  0.32831  0.31227  0.87816  1.0000 0.0526525672
S   S11       1.0  0.68773  0.56589  0.01604  1.0000 0.0526525672
S   S12       1.0  0.54985  0.67169  0.98396  1.0000 0.0526525672
S   S13       1.0  0.81589  0.43773  0.51604  1.0000 0.0526525672
S   S14       1.0  0.92169  0.29985  0.48396  1.0000 0.0526525672
S   S15       1.0  0.56227  0.07831  0.37816  1.0000 0.0526525672
S   S16       1.0  0.70015  0.18411  0.62184  1.0000 0.0526525672
N   N1        1.0  0.38550  0.34250  0.26560  1.0000 0.1915388601
N   N2        1.0  0.07690  0.11990  0.73440  1.0000 0.1915388601
N   N3        1.0  0.88010  0.61450  0.95700  1.0000 0.1915388601
N   N4        1.0  0.65750  0.92310  0.04300  1.0000 0.1915388601
N   N5        1.0  0.86450  0.63010  0.45700  1.0000 0.1915388601
N   N6        1.0  0.17310  0.40750  0.54300  1.0000 0.1915388601
N   N7        1.0  0.36990  0.82690  0.23440  1.0000 0.1915388601
N   N8        1.0  0.59250  0.13550  0.76560  1.0000 0.1915388601
N   N9        1.0  0.44490  0.32600  0.28470  1.0000 -0.1898772111
N   N10       1.0  0.04130  0.16020  0.71530  1.0000 -0.1898772111
N   N11       1.0  0.83980  0.55510  0.88110  1.0000 -0.1898772111
N   N12       1.0  0.67400  0.95870  0.11890  1.0000 -0.1898772111
N   N13       1.0  0.80510  0.58980  0.38110  1.0000 -0.1898772111
N   N14       1.0  0.20870  0.42400  0.61890  1.0000 -0.1898772111
N   N15       1.0  0.41020  0.79130  0.21530  1.0000 -0.1898772111
N   N16       1.0  0.57600  0.19490  0.78470  1.0000 -0.1898772111
F   F1        1.0  0.03000  0.30120  0.24680  1.0000 -0.382031369
F   F2        1.0  0.19560  0.44880  0.22880  1.0000 -0.382031369
F   F3        1.0  0.13330  0.29081  0.21211  1.0000 -0.4103029323
F   F4        1.0  0.17130  0.45919  0.34249  1.0000 -0.4103029323
F   F5        1.0  0.11900  0.30410  0.33150  1.0000 -0.382031369
F   F6        1.0  0.27740  0.44590  0.31490  1.0000 -0.382031369
F   F7        1.0  0.05440  0.78320  0.75320  1.0000 -0.382031369
F   F8        1.0  0.22000  0.96680  0.77120  1.0000 -0.382031369
F   F9        1.0  0.07870  0.92119  0.78789  1.0000 -0.4103029323
F   F10       1.0  0.11670  0.82881  0.65751  1.0000 -0.4103029323
F   F11       1.0  0.97260  0.78750  0.66850  1.0000 -0.382031369
F   F12       1.0  0.13100  0.96250  0.68510  1.0000 -0.382031369
F   F13       1.0  0.69880  0.94560  0.72880  1.0000 -0.382031369
F   F14       1.0  0.55120  0.78000  0.74680  1.0000 -0.382031369
F   F15       1.0  0.70919  0.92130  0.84249  1.0000 -0.4103029323
F   F16       1.0  0.54081  0.88330  0.71211  1.0000 -0.4103029323
F   F17       1.0  0.69590  0.02740  0.81490  1.0000 -0.382031369
F   F18       1.0  0.55410  0.86900  0.83150  1.0000 -0.382031369
F   F19       1.0  0.21680  0.97000  0.27120  1.0000 -0.382031369
F   F20       1.0  0.03320  0.80440  0.25320  1.0000 -0.382031369
F   F21       1.0  0.07881  0.86670  0.15751  1.0000 -0.4103029323
F   F22       1.0  0.17119  0.82870  0.28789  1.0000 -0.4103029323
F   F23       1.0  0.21250  0.88100  0.18510  1.0000 -0.382031369
F   F24       1.0  0.03750  0.72260  0.16850  1.0000 -0.382031369
