# DDEC6 charges by PACMAN v1.1 (https://github.com/mtap-research/PACMAN-charge/)
data_2016[Fe][dia]3[ION]1
_chemical_formula_sum              "Fe4 H14 C10 N2 Cl4 O18"
_cell_length_a       8.70484
_cell_length_b       8.70484
_cell_length_c       12.408
_cell_angle_alpha    80.6019
_cell_angle_beta     99.3981
_cell_angle_gamma    61.8338

_symmetry_space_group_name_H-M    "P 1"
_symmetry_Int_Tables_number       1

loop_
  _symmetry_equiv_pos_as_xyz
  'x, y, z'

loop_
  _atom_site_type_symbol
  _atom_site_label
  _atom_site_symmetry_multiplicity
  _atom_site_fract_x
  _atom_site_fract_y
  _atom_site_fract_z
  _atom_site_occupancy
  _atom_site_charge
Fe  Fe1       1.0  0.82915  0.07179  0.32076  1.0000 1.0916001834
Fe  Fe2       1.0  0.92821  0.17085  0.82076  1.0000 1.0916001834
Fe  Fe3       1.0  0.55946  0.02946  0.09573  1.0000 1.0916001834
Fe  Fe4       1.0  0.97054  0.44054  0.59573  1.0000 1.0916001834
H   H1        1.0  0.52200  0.15060  0.25060  1.0000 0.4099037685
H   H2        1.0  0.84940  0.47800  0.75060  1.0000 0.4099037685
H   H3        1.0  0.38000  0.95540  0.68100  1.0000 0.2307139027
H   H4        1.0  0.43370  0.87910  0.58840  1.0000 0.2416525893
H   H5        1.0  0.56470  0.80930  0.69890  1.0000 0.2307139027
H   H6        1.0  0.48120  0.60900  0.68740  1.0000 0.1056869514
H   H7        1.0  0.27730  0.76470  0.65150  1.0000 0.1189885959
H   H8        1.0  0.39760  0.70840  0.77580  1.0000 0.1189885959
H   H9        1.0  0.04460  0.62000  0.18100  1.0000 0.2307139027
H   H10       1.0  0.12090  0.56630  0.08840  1.0000 0.2416525893
H   H11       1.0  0.19070  0.43530  0.19890  1.0000 0.2248628326
H   H12       1.0  0.39100  0.51880  0.18740  1.0000 0.1056869514
H   H13       1.0  0.23530  0.72270  0.15150  1.0000 0.1189885959
H   H14       1.0  0.29160  0.60240  0.27580  1.0000 0.1189885959
C   C1        1.0  0.19390  0.17190  0.98710  1.0000 0.4713946618
C   C2        1.0  0.82810  0.80610  0.48710  1.0000 0.4713946618
C   C3        1.0  0.79890  0.33150  0.43760  1.0000 0.4762928672
C   C4        1.0  0.66850  0.20110  0.93760  1.0000 0.4762928672
C   C5        1.0  0.99380  0.16900  0.49210  1.0000 0.463507358
C   C6        1.0  0.83100  0.00620  0.99210  1.0000 0.463507358
C   C7        1.0  0.29950  0.03990  0.92150  1.0000 0.4713946618
C   C8        1.0  0.96010  0.70050  0.42150  1.0000 0.4713946618
C   C9        1.0  0.39690  0.72310  0.69730  1.0000 -0.1857418456
C   C10       1.0  0.27690  0.60310  0.19730  1.0000 -0.1857418456
N   N1        1.0  0.44870  0.85430  0.66320  1.0000 -0.3131354712
N   N2        1.0  0.14570  0.55130  0.16320  1.0000 -0.3163573705
Cl  Cl1       1.0  0.96535  0.13575  0.19576  1.0000 -0.4186092041
Cl  Cl2       1.0  0.86425  0.03465  0.69576  1.0000 -0.4186092041
Cl  Cl3       1.0  0.60660  0.76840  0.20957  1.0000 -0.4386545829
Cl  Cl4       1.0  0.23160  0.39340  0.70957  1.0000 -0.4386545829
O   O1        1.0  0.46690  0.96330  0.95130  1.0000 -0.4186092041
O   O2        1.0  0.03670  0.53310  0.45130  1.0000 -0.4186092041
O   O3        1.0  0.60730  0.12490  0.21890  1.0000 -0.7088295482
O   O4        1.0  0.87510  0.39270  0.71890  1.0000 -0.7088295482
O   O5        1.0  0.70210  0.31330  0.35850  1.0000 -0.4315065506
O   O6        1.0  0.68670  0.29790  0.85850  1.0000 -0.4315065506
O   O7        1.0  0.02520  0.25300  0.95480  1.0000 -0.4132786654
O   O8        1.0  0.74700  0.97480  0.45480  1.0000 -0.4132786654
O   O9        1.0  0.75240  0.46820  0.47510  1.0000 -0.4132786654
O   O10       1.0  0.53180  0.24760  0.97510  1.0000 -0.4132786654
O   O11       1.0  0.09030  0.19330  0.56750  1.0000 -0.4528618418
O   O12       1.0  0.80670  0.90970  0.06750  1.0000 -0.4528618418
O   O13       1.0  0.03890  0.03270  0.45670  1.0000 -0.4186092041
O   O14       1.0  0.96730  0.96110  0.95670  1.0000 -0.4315065506
O   O15       1.0  0.28670  0.18810  0.06930  1.0000 -0.4596836977
O   O16       1.0  0.81190  0.71330  0.56930  1.0000 -0.4596836977
O   O17       1.0  0.20270  0.02090  0.84230  1.0000 -0.4386545829
O   O18       1.0  0.97910  0.79730  0.34230  1.0000 -0.4386545829
