# DDEC6 charges by PACMAN v1.1 (https://github.com/mtap-research/PACMAN-charge/)
data_2016[Ca][nan]3[ION]1
_chemical_formula_sum              "Ca8 H96 C80 S8 N8 O44"
_cell_length_a       11.2352
_cell_length_b       12.7961
_cell_length_c       22.6505
_cell_angle_alpha    90
_cell_angle_beta     90
_cell_angle_gamma    90

_symmetry_space_group_name_H-M    "P 1"
_symmetry_Int_Tables_number       1

loop_
  _symmetry_equiv_pos_as_xyz
  'x, y, z'

loop_
  _atom_site_type_symbol
  _atom_site_label
  _atom_site_symmetry_multiplicity
  _atom_site_fract_x
  _atom_site_fract_y
  _atom_site_fract_z
  _atom_site_occupancy
  _atom_site_charge
Ca  Ca1       1.0  0.62210  0.07690  0.43405  1.0000 1.3652531111
Ca  Ca2       1.0  0.37790  0.57690  0.56595  1.0000 1.3652531111
Ca  Ca3       1.0  0.62210  0.57690  0.06595  1.0000 1.3652531111
Ca  Ca4       1.0  0.37790  0.07690  0.93405  1.0000 1.3652531111
Ca  Ca5       1.0  0.49376  0.31274  0.50857  1.0000 1.3446629845
Ca  Ca6       1.0  0.50624  0.81274  0.49143  1.0000 1.3446629845
Ca  Ca7       1.0  0.49376  0.81274  0.99143  1.0000 1.3446629845
Ca  Ca8       1.0  0.50624  0.31274  0.00857  1.0000 1.3446629845
H   H1        1.0  0.50280  0.13890  0.29850  1.0000 0.1397654952
H   H2        1.0  0.49720  0.63890  0.70150  1.0000 0.1397654952
H   H3        1.0  0.50280  0.63890  0.20150  1.0000 0.1397654952
H   H4        1.0  0.49720  0.13890  0.79850  1.0000 0.1397654952
H   H5        1.0  0.51790  0.18010  0.19250  1.0000 0.1322624803
H   H6        1.0  0.48210  0.68010  0.80750  1.0000 0.1322624803
H   H7        1.0  0.51790  0.68010  0.30750  1.0000 0.1322624803
H   H8        1.0  0.48210  0.18010  0.69250  1.0000 0.1322624803
H   H9        1.0  0.86600  0.04380  0.25740  1.0000 0.1520321087
H   H10       1.0  0.13400  0.54380  0.74260  1.0000 0.1520321087
H   H11       1.0  0.86600  0.54380  0.24260  1.0000 0.1520321087
H   H12       1.0  0.13400  0.04380  0.75740  1.0000 0.1520321087
H   H13       1.0  0.74670  0.09080  0.22930  1.0000 0.1520321087
H   H14       1.0  0.25330  0.59080  0.77070  1.0000 0.1520321087
H   H15       1.0  0.74670  0.59080  0.27070  1.0000 0.1520321087
H   H16       1.0  0.25330  0.09080  0.72930  1.0000 0.1520321087
H   H17       1.0  0.73910  0.00730  0.28180  1.0000 0.1684898713
H   H18       1.0  0.26090  0.50730  0.71820  1.0000 0.1684898713
H   H19       1.0  0.73910  0.50730  0.21820  1.0000 0.1684898713
H   H20       1.0  0.26090  0.00730  0.78180  1.0000 0.1684898713
H   H21       1.0  0.75580  0.37940  0.32570  1.0000 0.1322624803
H   H22       1.0  0.24420  0.87940  0.67430  1.0000 0.1322624803
H   H23       1.0  0.75580  0.87940  0.17430  1.0000 0.1322624803
H   H24       1.0  0.24420  0.37940  0.82570  1.0000 0.1322624803
H   H25       1.0  0.89770  0.37390  0.33140  1.0000 0.1322624803
H   H26       1.0  0.10230  0.87390  0.66860  1.0000 0.1322624803
H   H27       1.0  0.89770  0.87390  0.16860  1.0000 0.1322624803
H   H28       1.0  0.10230  0.37390  0.83140  1.0000 0.1322624803
H   H29       1.0  0.81570  0.30650  0.37480  1.0000 0.1520321087
H   H30       1.0  0.18430  0.80650  0.62520  1.0000 0.1520321087
H   H31       1.0  0.81570  0.80650  0.12520  1.0000 0.1520321087
H   H32       1.0  0.18430  0.30650  0.87480  1.0000 0.1520321087
H   H33       1.0  0.06120  0.49570  0.53010  1.0000 0.1322624803
H   H34       1.0  0.93880  0.99570  0.46990  1.0000 0.1322624803
H   H35       1.0  0.06120  0.99570  0.96990  1.0000 0.1322624803
H   H36       1.0  0.93880  0.49570  0.03010  1.0000 0.1322624803
H   H37       1.0  0.85100  0.44750  0.51460  1.0000 0.1397654952
H   H38       1.0  0.14900  0.94750  0.48540  1.0000 0.1397654952
H   H39       1.0  0.85100  0.94750  0.98540  1.0000 0.1397654952
H   H40       1.0  0.14900  0.44750  0.01460  1.0000 0.1397654952
H   H41       1.0  0.78620  0.28420  0.20740  1.0000 0.1397654952
H   H42       1.0  0.21380  0.78420  0.79260  1.0000 0.1397654952
H   H43       1.0  0.78620  0.78420  0.29260  1.0000 0.1397654952
H   H44       1.0  0.21380  0.28420  0.70740  1.0000 0.1397654952
H   H45       1.0  0.89070  0.19970  0.21260  1.0000 0.1322624803
H   H46       1.0  0.10930  0.69970  0.78740  1.0000 0.1322624803
H   H47       1.0  0.89070  0.69970  0.28740  1.0000 0.1322624803
H   H48       1.0  0.10930  0.19970  0.71260  1.0000 0.1322624803
H   H49       1.0  0.91690  0.32010  0.22680  1.0000 0.1322624803
H   H50       1.0  0.08310  0.82010  0.77320  1.0000 0.1322624803
H   H51       1.0  0.91690  0.82010  0.27320  1.0000 0.1322624803
H   H52       1.0  0.08310  0.32010  0.72680  1.0000 0.1322624803
H   H53       1.0  0.38640  0.06560  0.61270  1.0000 0.1520321087
H   H54       1.0  0.61360  0.56560  0.38730  1.0000 0.1520321087
H   H55       1.0  0.38640  0.56560  0.88730  1.0000 0.1520321087
H   H56       1.0  0.61360  0.06560  0.11270  1.0000 0.1520321087
H   H57       1.0  0.32440  0.97410  0.57550  1.0000 0.1646625155
H   H58       1.0  0.67560  0.47410  0.42450  1.0000 0.1646625155
H   H59       1.0  0.32440  0.47410  0.92450  1.0000 0.1646625155
H   H60       1.0  0.67560  0.97410  0.07550  1.0000 0.1646625155
H   H61       1.0  0.28640  0.09310  0.56480  1.0000 0.1684898713
H   H62       1.0  0.71360  0.59310  0.43520  1.0000 0.1684898713
H   H63       1.0  0.28640  0.59310  0.93520  1.0000 0.1684898713
H   H64       1.0  0.71360  0.09310  0.06480  1.0000 0.1684898713
H   H65       1.0  0.75060  0.54790  0.93960  1.0000 0.2741621935
H   H66       1.0  0.67150  0.48770  0.89940  1.0000 0.278313061
H   H67       1.0  0.84380  0.39750  0.90360  1.0000 0.1397654952
H   H68       1.0  0.83640  0.44900  0.83930  1.0000 0.1322624803
H   H69       1.0  0.91690  0.50180  0.88940  1.0000 0.1322624803
H   H70       1.0  0.70570  0.60060  0.82320  1.0000 0.1322624803
H   H71       1.0  0.65750  0.66380  0.87930  1.0000 0.1520321087
H   H72       1.0  0.79670  0.66340  0.86430  1.0000 0.1397654952
H   H73       1.0  0.24940  0.04790  0.06040  1.0000 0.2741621935
H   H74       1.0  0.32850  0.98770  0.10060  1.0000 0.278313061
H   H75       1.0  0.15620  0.89750  0.09640  1.0000 0.1397654952
H   H76       1.0  0.16360  0.94900  0.16070  1.0000 0.1322624803
H   H77       1.0  0.08310  0.00180  0.11060  1.0000 0.1322624803
H   H78       1.0  0.29430  0.10060  0.17680  1.0000 0.1322624803
H   H79       1.0  0.34250  0.16380  0.12070  1.0000 0.1520321087
H   H80       1.0  0.20330  0.16340  0.13570  1.0000 0.1397654952
H   H81       1.0  0.75060  0.04790  0.56040  1.0000 0.2741621935
H   H82       1.0  0.67150  0.98770  0.60060  1.0000 0.278313061
H   H83       1.0  0.84380  0.89750  0.59640  1.0000 0.1397654952
H   H84       1.0  0.83640  0.94900  0.66070  1.0000 0.1322624803
H   H85       1.0  0.91690  0.00180  0.61060  1.0000 0.1322624803
H   H86       1.0  0.70570  0.10060  0.67680  1.0000 0.1322624803
H   H87       1.0  0.65750  0.16380  0.62070  1.0000 0.1520321087
H   H88       1.0  0.79670  0.16340  0.63570  1.0000 0.1397654952
H   H89       1.0  0.24940  0.54790  0.43960  1.0000 0.2741621935
H   H90       1.0  0.32850  0.48770  0.39940  1.0000 0.278313061
H   H91       1.0  0.15620  0.39750  0.40360  1.0000 0.1397654952
H   H92       1.0  0.16360  0.44900  0.33930  1.0000 0.1322624803
H   H93       1.0  0.08310  0.50180  0.38940  1.0000 0.1322624803
H   H94       1.0  0.29430  0.60060  0.32320  1.0000 0.1322624803
H   H95       1.0  0.34250  0.66380  0.37930  1.0000 0.1520321087
H   H96       1.0  0.20330  0.66340  0.36430  1.0000 0.1397654952
C   C1        1.0  0.49970  0.20790  0.28300  1.0000 -0.1084998588
C   C2        1.0  0.50030  0.70790  0.71700  1.0000 -0.1084998588
C   C3        1.0  0.49970  0.70790  0.21700  1.0000 -0.1084998588
C   C4        1.0  0.50030  0.20790  0.78300  1.0000 -0.1084998588
C   C5        1.0  0.50950  0.23170  0.22239  1.0000 -0.1364261976
C   C6        1.0  0.49050  0.73170  0.77761  1.0000 -0.1364261976
C   C7        1.0  0.50950  0.73170  0.27761  1.0000 -0.1364261976
C   C8        1.0  0.49050  0.23170  0.72239  1.0000 -0.1364261976
C   C9        1.0  0.78620  0.23570  0.49555  1.0000 0.5916518573
C   C10       1.0  0.21380  0.73570  0.50445  1.0000 0.5916518573
C   C11       1.0  0.78620  0.73570  0.00445  1.0000 0.5916518573
C   C12       1.0  0.21380  0.23570  0.99555  1.0000 0.5916518573
C   C13       1.0  0.47350  0.29950  0.38205  1.0000 0.5916518573
C   C14       1.0  0.52650  0.79950  0.61795  1.0000 0.5916518573
C   C15       1.0  0.47350  0.79950  0.11795  1.0000 0.5916518573
C   C16       1.0  0.52650  0.29950  0.88205  1.0000 0.5916518573
C   C17       1.0  0.48510  0.29530  0.31680  1.0000 -0.1219054078
C   C18       1.0  0.51490  0.79530  0.68320  1.0000 -0.1219054078
C   C19       1.0  0.48510  0.79530  0.18320  1.0000 -0.1219054078
C   C20       1.0  0.51490  0.29530  0.81680  1.0000 -0.1219054078
C   C21       1.0  0.89930  0.29300  0.50683  1.0000 -0.1219054078
C   C22       1.0  0.10070  0.79300  0.49317  1.0000 -0.1219054078
C   C23       1.0  0.89930  0.79300  0.99317  1.0000 -0.1219054078
C   C24       1.0  0.10070  0.29300  0.00683  1.0000 -0.1219054078
C   C25       1.0  0.50590  0.33670  0.21089  1.0000 -0.1040935984
C   C26       1.0  0.49410  0.83670  0.78911  1.0000 -0.1040935984
C   C27       1.0  0.50590  0.83670  0.28911  1.0000 -0.1040935984
C   C28       1.0  0.49410  0.33670  0.71089  1.0000 -0.1040935984
C   C29       1.0  0.10960  0.34130  0.52090  1.0000 -0.1265979952
C   C30       1.0  0.89040  0.84130  0.47910  1.0000 -0.1265979952
C   C31       1.0  0.10960  0.84130  0.97910  1.0000 -0.1265979952
C   C32       1.0  0.89040  0.34130  0.02090  1.0000 -0.1265979952
C   C33       1.0  0.78440  0.06630  0.26580  1.0000 -0.571021785
C   C34       1.0  0.21560  0.56630  0.73420  1.0000 -0.571021785
C   C35       1.0  0.78440  0.56630  0.23420  1.0000 -0.571021785
C   C36       1.0  0.21560  0.06630  0.76580  1.0000 -0.571021785
C   C37       1.0  0.51740  0.38610  0.15150  1.0000 0.602673834
C   C38       1.0  0.48260  0.88610  0.84850  1.0000 0.602673834
C   C39       1.0  0.51740  0.88610  0.34850  1.0000 0.602673834
C   C40       1.0  0.48260  0.38610  0.65150  1.0000 0.602673834
C   C41       1.0  0.82360  0.33390  0.33460  1.0000 -0.3401860914
C   C42       1.0  0.17640  0.83390  0.66540  1.0000 -0.3401860914
C   C43       1.0  0.82360  0.83390  0.16540  1.0000 -0.3401860914
C   C44       1.0  0.17640  0.33390  0.83460  1.0000 -0.3401860914
C   C45       1.0  0.03490  0.42610  0.52340  1.0000 -0.1219054078
C   C46       1.0  0.96510  0.92610  0.47660  1.0000 -0.1219054078
C   C47       1.0  0.03490  0.92610  0.97660  1.0000 -0.1219054078
C   C48       1.0  0.96510  0.42610  0.02340  1.0000 -0.1219054078
C   C49       1.0  0.24150  0.33810  0.52070  1.0000 0.5916518573
C   C50       1.0  0.75850  0.83810  0.47930  1.0000 0.5916518573
C   C51       1.0  0.24150  0.83810  0.97930  1.0000 0.5916518573
C   C52       1.0  0.75850  0.33810  0.02070  1.0000 0.5916518573
C   C53       1.0  0.91450  0.39850  0.51480  1.0000 -0.1084998588
C   C54       1.0  0.08550  0.89850  0.48520  1.0000 -0.1084998588
C   C55       1.0  0.91450  0.89850  0.98520  1.0000 -0.1084998588
C   C56       1.0  0.08550  0.39850  0.01480  1.0000 -0.1084998588
C   C57       1.0  0.78660  0.15810  0.31260  1.0000 0.5176306271
C   C58       1.0  0.21340  0.65810  0.68740  1.0000 0.5176306271
C   C59       1.0  0.78660  0.65810  0.18740  1.0000 0.5176306271
C   C60       1.0  0.21340  0.15810  0.81260  1.0000 0.5176306271
C   C61       1.0  0.85770  0.26410  0.22940  1.0000 -0.3463640011
C   C62       1.0  0.14230  0.76410  0.77060  1.0000 -0.3463640011
C   C63       1.0  0.85770  0.76410  0.27060  1.0000 -0.3463640011
C   C64       1.0  0.14230  0.26410  0.72940  1.0000 -0.3463640011
C   C65       1.0  0.44740  0.05660  0.52744  1.0000 0.7248573506
C   C66       1.0  0.55260  0.55660  0.47256  1.0000 0.7248573506
C   C67       1.0  0.44740  0.55660  0.97256  1.0000 0.7248573506
C   C68       1.0  0.55260  0.05660  0.02744  1.0000 0.7248573506
C   C69       1.0  0.35290  0.04650  0.57420  1.0000 -0.6312776303
C   C70       1.0  0.64710  0.54650  0.42580  1.0000 -0.6312776303
C   C71       1.0  0.35290  0.54650  0.92580  1.0000 -0.6312776303
C   C72       1.0  0.64710  0.04650  0.07420  1.0000 -0.6312776303
C   C73       1.0  0.84300  0.46350  0.88170  1.0000 -0.2898707664
C   C74       1.0  0.72350  0.62180  0.86380  1.0000 -0.295357078
C   C75       1.0  0.15700  0.96350  0.11830  1.0000 -0.2898707664
C   C76       1.0  0.27650  0.12180  0.13620  1.0000 -0.295357078
C   C77       1.0  0.84300  0.96350  0.61830  1.0000 -0.2898707664
C   C78       1.0  0.72350  0.12180  0.63620  1.0000 -0.2898707664
C   C79       1.0  0.15700  0.46350  0.38170  1.0000 -0.2898707664
C   C80       1.0  0.27650  0.62180  0.36380  1.0000 -0.295357078
S   S1        1.0  0.03255  0.22685  0.50879  1.0000 0.1397654952
S   S2        1.0  0.96745  0.72685  0.49121  1.0000 0.1397654952
S   S3        1.0  0.03255  0.72685  0.99121  1.0000 0.1397654952
S   S4        1.0  0.96745  0.22685  0.00879  1.0000 0.1397654952
S   S5        1.0  0.48743  0.40768  0.27489  1.0000 0.1219006234
S   S6        1.0  0.51257  0.90768  0.72511  1.0000 0.1219006234
S   S7        1.0  0.48743  0.90768  0.22511  1.0000 0.1219006234
S   S8        1.0  0.51257  0.40768  0.77489  1.0000 0.1219006234
N   N1        1.0  0.82610  0.24610  0.29230  1.0000 -0.0133609123
N   N2        1.0  0.17390  0.74610  0.70770  1.0000 -0.0133609123
N   N3        1.0  0.82610  0.74610  0.20770  1.0000 -0.0133609123
N   N4        1.0  0.17390  0.24610  0.79230  1.0000 -0.0133609123
N   N5        1.0  0.73950  0.52770  0.90101  1.0000 -0.1040935984
N   N6        1.0  0.26050  0.02770  0.09899  1.0000 -0.1040935984
N   N7        1.0  0.73950  0.02770  0.59899  1.0000 -0.1040935984
N   N8        1.0  0.26050  0.52770  0.40101  1.0000 -0.1040935984
O   O1        1.0  0.44930  0.99200  0.48510  1.0000 -0.6609994805
O   O2        1.0  0.55070  0.49200  0.51490  1.0000 -0.6609994805
O   O3        1.0  0.44930  0.49200  0.01490  1.0000 -0.6609994805
O   O4        1.0  0.55070  0.99200  0.98510  1.0000 -0.6609994805
O   O5        1.0  0.49610  0.21700  0.41051  1.0000 -0.6312776303
O   O6        1.0  0.50390  0.71700  0.58949  1.0000 -0.6312776303
O   O7        1.0  0.49610  0.71700  0.08949  1.0000 -0.6312776303
O   O8        1.0  0.50390  0.21700  0.91051  1.0000 -0.6312776303
O   O9        1.0  0.29070  0.25280  0.50929  1.0000 -0.571021785
O   O10       1.0  0.70930  0.75280  0.49071  1.0000 -0.571021785
O   O11       1.0  0.29070  0.75280  0.99071  1.0000 -0.571021785
O   O12       1.0  0.70930  0.25280  0.00929  1.0000 -0.571021785
O   O13       1.0  0.78990  0.13690  0.49504  1.0000 -0.6123475528
O   O14       1.0  0.21010  0.63690  0.50496  1.0000 -0.6123475528
O   O15       1.0  0.78990  0.63690  0.00496  1.0000 -0.6123475528
O   O16       1.0  0.21010  0.13690  0.99504  1.0000 -0.6123475528
O   O17       1.0  0.69480  0.28930  0.48640  1.0000 -0.5974499381
O   O18       1.0  0.30520  0.78930  0.51360  1.0000 -0.5974499381
O   O19       1.0  0.69480  0.78930  0.01360  1.0000 -0.5974499381
O   O20       1.0  0.30520  0.28930  0.98640  1.0000 -0.5974499381
O   O21       1.0  0.52320  0.12960  0.53030  1.0000 -0.6609994805
O   O22       1.0  0.47680  0.62960  0.46970  1.0000 -0.6658276713
O   O23       1.0  0.52320  0.62960  0.96970  1.0000 -0.6658276713
O   O24       1.0  0.47680  0.12960  0.03030  1.0000 -0.6658276713
O   O25       1.0  0.44330  0.38320  0.40658  1.0000 -0.5910849369
O   O26       1.0  0.55670  0.88320  0.59342  1.0000 -0.5910849369
O   O27       1.0  0.44330  0.88320  0.09342  1.0000 -0.5910849369
O   O28       1.0  0.55670  0.38320  0.90658  1.0000 -0.5910849369
O   O29       1.0  0.29870  0.42280  0.52925  1.0000 -0.6519172138
O   O30       1.0  0.70130  0.92280  0.47075  1.0000 -0.6519172138
O   O31       1.0  0.29870  0.92280  0.97075  1.0000 -0.6519172138
O   O32       1.0  0.70130  0.42280  0.02925  1.0000 -0.6519172138
O   O33       1.0  0.49480  0.32660  0.10931  1.0000 -0.5910849369
O   O34       1.0  0.50520  0.82660  0.89069  1.0000 -0.5910849369
O   O35       1.0  0.49480  0.82660  0.39069  1.0000 -0.5910849369
O   O36       1.0  0.50520  0.32660  0.60931  1.0000 -0.5910849369
O   O37       1.0  0.54850  0.48030  0.14891  1.0000 -0.6123475528
O   O38       1.0  0.45150  0.98030  0.85109  1.0000 -0.6123475528
O   O39       1.0  0.54850  0.98030  0.35109  1.0000 -0.6123475528
O   O40       1.0  0.45150  0.48030  0.64891  1.0000 -0.6123475528
O   O41       1.0  0.75450  0.14340  0.36387  1.0000 -0.571021785
O   O42       1.0  0.24550  0.64340  0.63613  1.0000 -0.571021785
O   O43       1.0  0.75450  0.64340  0.13613  1.0000 -0.571021785
O   O44       1.0  0.24550  0.14340  0.86387  1.0000 -0.571021785
