# DDEC6 charges by PACMAN v1.1 (https://github.com/mtap-research/PACMAN-charge/)
data_2016[Zn][nan]3[ION]2
_chemical_formula_sum              "Zn6 H120 C126 N36 O24"
_cell_length_a       18.8184
_cell_length_b       18.8184
_cell_length_c       18.8184
_cell_angle_alpha    113.127
_cell_angle_beta     113.127
_cell_angle_gamma    113.127

_symmetry_space_group_name_H-M    "P 1"
_symmetry_Int_Tables_number       1

loop_
  _symmetry_equiv_pos_as_xyz
  'x, y, z'

loop_
  _atom_site_type_symbol
  _atom_site_label
  _atom_site_symmetry_multiplicity
  _atom_site_fract_x
  _atom_site_fract_y
  _atom_site_fract_z
  _atom_site_occupancy
  _atom_site_charge
Zn  Zn1       1.0  0.84338  0.45213  0.24385  1.0000 0.7795527923
Zn  Zn2       1.0  0.45213  0.24385  0.84338  1.0000 0.7795527923
Zn  Zn3       1.0  0.24385  0.84338  0.45213  1.0000 0.7795527923
Zn  Zn4       1.0  0.15662  0.54787  0.75615  1.0000 0.7795527923
Zn  Zn5       1.0  0.54787  0.75615  0.15662  1.0000 0.7795527923
Zn  Zn6       1.0  0.75615  0.15662  0.54787  1.0000 0.7795527923
H   H1        1.0  0.00180  0.36700  0.17020  1.0000 0.1194278424
H   H2        1.0  0.36700  0.17020  0.00180  1.0000 0.1194278424
H   H3        1.0  0.17020  0.00180  0.36700  1.0000 0.1194278424
H   H4        1.0  0.07990  0.30500  0.14330  1.0000 0.1194278424
H   H5        1.0  0.30500  0.14330  0.07990  1.0000 0.1194278424
H   H6        1.0  0.14330  0.07990  0.30500  1.0000 0.1194278424
H   H7        1.0  0.91570  0.08140  0.13480  1.0000 0.1194278424
H   H8        1.0  0.08140  0.13480  0.91570  1.0000 0.1194278424
H   H9        1.0  0.13480  0.91570  0.08140  1.0000 0.1194278424
H   H10       1.0  0.83530  0.14210  0.15930  1.0000 0.1194278424
H   H11       1.0  0.14210  0.15930  0.83530  1.0000 0.1194278424
H   H12       1.0  0.15930  0.83530  0.14210  1.0000 0.1194278424
H   H13       1.0  0.05520  0.09380  0.19800  1.0000 0.1117681332
H   H14       1.0  0.09380  0.19800  0.05520  1.0000 0.1117681332
H   H15       1.0  0.19800  0.05520  0.09380  1.0000 0.1117681332
H   H16       1.0  0.88230  0.55740  0.56850  1.0000 0.1194278424
H   H17       1.0  0.55740  0.56850  0.88230  1.0000 0.1194278424
H   H18       1.0  0.56850  0.88230  0.55740  1.0000 0.1194278424
H   H19       1.0  0.82410  0.60390  0.64800  1.0000 0.1117681332
H   H20       1.0  0.60390  0.64800  0.82410  1.0000 0.1117681332
H   H21       1.0  0.64800  0.82410  0.60390  1.0000 0.1117681332
H   H22       1.0  0.62540  0.56280  0.41440  1.0000 0.1117681332
H   H23       1.0  0.56280  0.41440  0.62540  1.0000 0.1117681332
H   H24       1.0  0.41440  0.62540  0.56280  1.0000 0.1117681332
H   H25       1.0  0.68020  0.51090  0.33110  1.0000 0.1194278424
H   H26       1.0  0.51090  0.33110  0.68020  1.0000 0.1194278424
H   H27       1.0  0.33110  0.68020  0.51090  1.0000 0.1194278424
H   H28       1.0  0.64780  0.68750  0.54450  1.0000 0.1117681332
H   H29       1.0  0.68750  0.54450  0.64780  1.0000 0.1117681332
H   H30       1.0  0.54450  0.64780  0.68750  1.0000 0.1117681332
H   H31       1.0  0.15840  0.62990  0.38400  1.0000 0.3261136113
H   H32       1.0  0.62990  0.38400  0.15840  1.0000 0.3261136113
H   H33       1.0  0.38400  0.15840  0.62990  1.0000 0.3261136113
H   H34       1.0  0.05890  0.53300  0.32930  1.0000 0.3261136113
H   H35       1.0  0.53300  0.32930  0.05890  1.0000 0.3261136113
H   H36       1.0  0.32930  0.05890  0.53300  1.0000 0.3261136113
H   H37       1.0  0.99820  0.63300  0.82980  1.0000 0.1194278424
H   H38       1.0  0.63300  0.82980  0.99820  1.0000 0.1194278424
H   H39       1.0  0.82980  0.99820  0.63300  1.0000 0.1194278424
H   H40       1.0  0.92010  0.69500  0.85670  1.0000 0.1194278424
H   H41       1.0  0.69500  0.85670  0.92010  1.0000 0.1194278424
H   H42       1.0  0.85670  0.92010  0.69500  1.0000 0.1194278424
H   H43       1.0  0.08430  0.91860  0.86520  1.0000 0.1194278424
H   H44       1.0  0.91860  0.86520  0.08430  1.0000 0.1194278424
H   H45       1.0  0.86520  0.08430  0.91860  1.0000 0.1194278424
H   H46       1.0  0.16470  0.85790  0.84070  1.0000 0.1194278424
H   H47       1.0  0.85790  0.84070  0.16470  1.0000 0.1194278424
H   H48       1.0  0.84070  0.16470  0.85790  1.0000 0.1194278424
H   H49       1.0  0.94480  0.90620  0.80200  1.0000 0.1117681332
H   H50       1.0  0.90620  0.80200  0.94480  1.0000 0.1117681332
H   H51       1.0  0.80200  0.94480  0.90620  1.0000 0.1117681332
H   H52       1.0  0.11770  0.44260  0.43150  1.0000 0.1194278424
H   H53       1.0  0.44260  0.43150  0.11770  1.0000 0.1194278424
H   H54       1.0  0.43150  0.11770  0.44260  1.0000 0.1194278424
H   H55       1.0  0.17590  0.39610  0.35200  1.0000 0.1117681332
H   H56       1.0  0.39610  0.35200  0.17590  1.0000 0.1117681332
H   H57       1.0  0.35200  0.17590  0.39610  1.0000 0.1117681332
H   H58       1.0  0.37460  0.43720  0.58560  1.0000 0.1117681332
H   H59       1.0  0.43720  0.58560  0.37460  1.0000 0.1117681332
H   H60       1.0  0.58560  0.37460  0.43720  1.0000 0.1117681332
H   H61       1.0  0.31980  0.48910  0.66890  1.0000 0.1194278424
H   H62       1.0  0.48910  0.66890  0.31980  1.0000 0.1194278424
H   H63       1.0  0.66890  0.31980  0.48910  1.0000 0.1194278424
H   H64       1.0  0.35220  0.31250  0.45550  1.0000 0.1117681332
H   H65       1.0  0.31250  0.45550  0.35220  1.0000 0.1117681332
H   H66       1.0  0.45550  0.35220  0.31250  1.0000 0.1117681332
H   H67       1.0  0.84160  0.37010  0.61600  1.0000 0.3261136113
H   H68       1.0  0.37010  0.61600  0.84160  1.0000 0.3261136113
H   H69       1.0  0.61600  0.84160  0.37010  1.0000 0.3261136113
H   H70       1.0  0.94110  0.46700  0.67070  1.0000 0.3261136113
H   H71       1.0  0.46700  0.67070  0.94110  1.0000 0.3261136113
H   H72       1.0  0.67070  0.94110  0.46700  1.0000 0.3261136113
H   H73       1.0  0.80030  0.75090  0.37970  1.0000 0.1311156897
H   H74       1.0  0.78960  0.65480  0.32510  1.0000 0.1194278424
H   H75       1.0  0.69260  0.64400  0.28710  1.0000 0.1194278424
H   H76       1.0  0.71440  0.62200  0.10400  1.0000 0.1311156897
H   H77       1.0  0.63700  0.56170  0.11240  1.0000 0.1443765807
H   H78       1.0  0.73310  0.57090  0.14960  1.0000 0.1311156897
H   H79       1.0  0.83170  0.74260  0.27740  1.0000 0.2485760498
H   H80       1.0  0.74250  0.73380  0.24310  1.0000 0.2724010098
H   H81       1.0  0.37970  0.80030  0.75090  1.0000 0.1311156897
H   H82       1.0  0.32510  0.78960  0.65480  1.0000 0.1194278424
H   H83       1.0  0.28710  0.69260  0.64400  1.0000 0.1194278424
H   H84       1.0  0.10400  0.71440  0.62200  1.0000 0.1311156897
H   H85       1.0  0.11240  0.63700  0.56170  1.0000 0.1443765807
H   H86       1.0  0.14960  0.73310  0.57090  1.0000 0.1311156897
H   H87       1.0  0.27740  0.83170  0.74260  1.0000 0.2485760498
H   H88       1.0  0.24310  0.74250  0.73380  1.0000 0.2724010098
H   H89       1.0  0.75090  0.37970  0.80030  1.0000 0.1311156897
H   H90       1.0  0.65480  0.32510  0.78960  1.0000 0.1194278424
H   H91       1.0  0.64400  0.28710  0.69260  1.0000 0.1194278424
H   H92       1.0  0.62200  0.10400  0.71440  1.0000 0.1311156897
H   H93       1.0  0.56170  0.11240  0.63700  1.0000 0.1443765807
H   H94       1.0  0.57090  0.14960  0.73310  1.0000 0.1311156897
H   H95       1.0  0.74260  0.27740  0.83170  1.0000 0.2485760498
H   H96       1.0  0.73380  0.24310  0.74250  1.0000 0.2724010098
H   H97       1.0  0.19970  0.24910  0.62030  1.0000 0.1311156897
H   H98       1.0  0.21040  0.34520  0.67490  1.0000 0.1194278424
H   H99       1.0  0.30740  0.35600  0.71290  1.0000 0.1194278424
H   H100      1.0  0.28560  0.37800  0.89600  1.0000 0.1311156897
H   H101      1.0  0.36300  0.43830  0.88760  1.0000 0.1443765807
H   H102      1.0  0.26690  0.42910  0.85040  1.0000 0.1311156897
H   H103      1.0  0.16830  0.25740  0.72260  1.0000 0.2485760498
H   H104      1.0  0.25750  0.26620  0.75690  1.0000 0.2724010098
H   H105      1.0  0.62030  0.19970  0.24910  1.0000 0.1311156897
H   H106      1.0  0.67490  0.21040  0.34520  1.0000 0.1194278424
H   H107      1.0  0.71290  0.30740  0.35600  1.0000 0.1194278424
H   H108      1.0  0.89600  0.28560  0.37800  1.0000 0.1311156897
H   H109      1.0  0.88760  0.36300  0.43830  1.0000 0.1443765807
H   H110      1.0  0.85040  0.26690  0.42910  1.0000 0.1311156897
H   H111      1.0  0.72260  0.16830  0.25740  1.0000 0.2485760498
H   H112      1.0  0.75690  0.25750  0.26620  1.0000 0.2724010098
H   H113      1.0  0.24910  0.62030  0.19970  1.0000 0.1311156897
H   H114      1.0  0.34520  0.67490  0.21040  1.0000 0.1194278424
H   H115      1.0  0.35600  0.71290  0.30740  1.0000 0.1194278424
H   H116      1.0  0.37800  0.89600  0.28560  1.0000 0.1311156897
H   H117      1.0  0.43830  0.88760  0.36300  1.0000 0.1443765807
H   H118      1.0  0.42910  0.85040  0.26690  1.0000 0.1311156897
H   H119      1.0  0.25740  0.72260  0.16830  1.0000 0.2485760498
H   H120      1.0  0.26620  0.75690  0.25750  1.0000 0.2724010098
C   C1        1.0  0.86406  0.30583  0.19391  1.0000 0.5634416092
C   C2        1.0  0.30583  0.19391  0.86406  1.0000 0.5634416092
C   C3        1.0  0.19391  0.86406  0.30583  1.0000 0.5634416092
C   C4        1.0  0.91286  0.26296  0.17148  1.0000 -0.028971427
C   C5        1.0  0.26296  0.17148  0.91286  1.0000 -0.028971427
C   C6        1.0  0.17148  0.91286  0.26296  1.0000 -0.028971427
C   C7        1.0  0.98544  0.31035  0.16431  1.0000 -0.1082644433
C   C8        1.0  0.31035  0.16431  0.98544  1.0000 -0.1082644433
C   C9        1.0  0.16431  0.98544  0.31035  1.0000 -0.1082644433
C   C10       1.0  0.03235  0.27318  0.14857  1.0000 -0.1592050556
C   C11       1.0  0.27318  0.14857  0.03235  1.0000 -0.1592050556
C   C12       1.0  0.14857  0.03235  0.27318  1.0000 -0.1592050556
C   C13       1.0  0.01022  0.18793  0.14015  1.0000 0.0696729526
C   C14       1.0  0.18793  0.14015  0.01022  1.0000 0.0696729526
C   C15       1.0  0.14015  0.01022  0.18793  1.0000 0.0696729526
C   C16       1.0  0.93421  0.13950  0.14309  1.0000 -0.1498329206
C   C17       1.0  0.13950  0.14309  0.93421  1.0000 -0.1498329206
C   C18       1.0  0.14309  0.93421  0.13950  1.0000 -0.1498329206
C   C19       1.0  0.88593  0.17600  0.15817  1.0000 -0.1082644433
C   C20       1.0  0.17600  0.15817  0.88593  1.0000 -0.1082644433
C   C21       1.0  0.15817  0.88593  0.17600  1.0000 -0.1082644433
C   C22       1.0  0.06475  0.15144  0.12781  1.0000 0.0804017495
C   C23       1.0  0.15144  0.12781  0.06475  1.0000 0.0804017495
C   C24       1.0  0.12781  0.06475  0.15144  1.0000 0.0804017495
C   C25       1.0  0.07882  0.10194  0.16444  1.0000 -0.1955608976
C   C26       1.0  0.10194  0.16444  0.07882  1.0000 -0.1955608976
C   C27       1.0  0.16444  0.07882  0.10194  1.0000 -0.1955608976
C   C28       1.0  0.82200  0.49190  0.38590  1.0000 0.5410536079
C   C29       1.0  0.49190  0.38590  0.82200  1.0000 0.5410536079
C   C30       1.0  0.38590  0.82200  0.49190  1.0000 0.5410536079
C   C31       1.0  0.78540  0.52535  0.43915  1.0000 -0.028971427
C   C32       1.0  0.52535  0.43915  0.78540  1.0000 -0.028971427
C   C33       1.0  0.43915  0.78540  0.52535  1.0000 -0.028971427
C   C34       1.0  0.82938  0.55647  0.53625  1.0000 -0.1082644433
C   C35       1.0  0.55647  0.53625  0.82938  1.0000 -0.1082644433
C   C36       1.0  0.53625  0.82938  0.55647  1.0000 -0.1082644433
C   C37       1.0  0.79530  0.58560  0.58440  1.0000 -0.1498329206
C   C38       1.0  0.58560  0.58440  0.79530  1.0000 -0.1498329206
C   C39       1.0  0.58440  0.79530  0.58560  1.0000 -0.1498329206
C   C40       1.0  0.71841  0.58883  0.54046  1.0000 0.0696729526
C   C41       1.0  0.58883  0.54046  0.71841  1.0000 0.0696729526
C   C42       1.0  0.54046  0.71841  0.58883  1.0000 0.0696729526
C   C43       1.0  0.67636  0.56069  0.44505  1.0000 -0.1592050556
C   C44       1.0  0.56069  0.44505  0.67636  1.0000 -0.1592050556
C   C45       1.0  0.44505  0.67636  0.56069  1.0000 -0.1592050556
C   C46       1.0  0.70915  0.52933  0.39472  1.0000 -0.1082644433
C   C47       1.0  0.52933  0.39472  0.70915  1.0000 -0.1082644433
C   C48       1.0  0.39472  0.70915  0.52933  1.0000 -0.1082644433
C   C49       1.0  0.67532  0.61243  0.58875  1.0000 0.0804017495
C   C50       1.0  0.61243  0.58875  0.67532  1.0000 0.0804017495
C   C51       1.0  0.58875  0.67532  0.61243  1.0000 0.0804017495
C   C52       1.0  0.63864  0.66252  0.57684  1.0000 -0.1955608976
C   C53       1.0  0.66252  0.57684  0.63864  1.0000 -0.1955608976
C   C54       1.0  0.57684  0.63864  0.66252  1.0000 -0.1955608976
C   C55       1.0  0.05382  0.63948  0.35270  1.0000 0.4553673315
C   C56       1.0  0.63948  0.35270  0.05382  1.0000 0.4553673315
C   C57       1.0  0.35270  0.05382  0.63948  1.0000 0.4553673315
C   C58       1.0  0.13594  0.69417  0.80609  1.0000 0.5634416092
C   C59       1.0  0.69417  0.80609  0.13594  1.0000 0.5634416092
C   C60       1.0  0.80609  0.13594  0.69417  1.0000 0.5634416092
C   C61       1.0  0.08714  0.73704  0.82852  1.0000 -0.028971427
C   C62       1.0  0.73704  0.82852  0.08714  1.0000 -0.028971427
C   C63       1.0  0.82852  0.08714  0.73704  1.0000 -0.028971427
C   C64       1.0  0.01456  0.68965  0.83569  1.0000 -0.1082644433
C   C65       1.0  0.68965  0.83569  0.01456  1.0000 -0.1082644433
C   C66       1.0  0.83569  0.01456  0.68965  1.0000 -0.1082644433
C   C67       1.0  0.96765  0.72682  0.85143  1.0000 -0.1592050556
C   C68       1.0  0.72682  0.85143  0.96765  1.0000 -0.1592050556
C   C69       1.0  0.85143  0.96765  0.72682  1.0000 -0.1592050556
C   C70       1.0  0.98978  0.81207  0.85985  1.0000 0.0696729526
C   C71       1.0  0.81207  0.85985  0.98978  1.0000 0.0696729526
C   C72       1.0  0.85985  0.98978  0.81207  1.0000 0.0696729526
C   C73       1.0  0.06579  0.86050  0.85691  1.0000 -0.1498329206
C   C74       1.0  0.86050  0.85691  0.06579  1.0000 -0.1498329206
C   C75       1.0  0.85691  0.06579  0.86050  1.0000 -0.1498329206
C   C76       1.0  0.11407  0.82400  0.84183  1.0000 -0.1082644433
C   C77       1.0  0.82400  0.84183  0.11407  1.0000 -0.1082644433
C   C78       1.0  0.84183  0.11407  0.82400  1.0000 -0.1082644433
C   C79       1.0  0.93525  0.84856  0.87219  1.0000 0.0804017495
C   C80       1.0  0.84856  0.87219  0.93525  1.0000 0.0804017495
C   C81       1.0  0.87219  0.93525  0.84856  1.0000 0.0804017495
C   C82       1.0  0.92118  0.89806  0.83556  1.0000 -0.1955608976
C   C83       1.0  0.89806  0.83556  0.92118  1.0000 -0.1955608976
C   C84       1.0  0.83556  0.92118  0.89806  1.0000 -0.1955608976
C   C85       1.0  0.17800  0.50810  0.61410  1.0000 0.5410536079
C   C86       1.0  0.50810  0.61410  0.17800  1.0000 0.5410536079
C   C87       1.0  0.61410  0.17800  0.50810  1.0000 0.5410536079
C   C88       1.0  0.21460  0.47465  0.56085  1.0000 -0.028971427
C   C89       1.0  0.47465  0.56085  0.21460  1.0000 -0.028971427
C   C90       1.0  0.56085  0.21460  0.47465  1.0000 -0.028971427
C   C91       1.0  0.17062  0.44353  0.46375  1.0000 -0.1082644433
C   C92       1.0  0.44353  0.46375  0.17062  1.0000 -0.1082644433
C   C93       1.0  0.46375  0.17062  0.44353  1.0000 -0.1082644433
C   C94       1.0  0.20470  0.41440  0.41560  1.0000 -0.1498329206
C   C95       1.0  0.41440  0.41560  0.20470  1.0000 -0.1498329206
C   C96       1.0  0.41560  0.20470  0.41440  1.0000 -0.1498329206
C   C97       1.0  0.28159  0.41117  0.45954  1.0000 0.0696729526
C   C98       1.0  0.41117  0.45954  0.28159  1.0000 0.0696729526
C   C99       1.0  0.45954  0.28159  0.41117  1.0000 0.0696729526
C   C100      1.0  0.32364  0.43931  0.55495  1.0000 -0.1592050556
C   C101      1.0  0.43931  0.55495  0.32364  1.0000 -0.1592050556
C   C102      1.0  0.55495  0.32364  0.43931  1.0000 -0.1592050556
C   C103      1.0  0.29085  0.47067  0.60528  1.0000 -0.1082644433
C   C104      1.0  0.47067  0.60528  0.29085  1.0000 -0.1082644433
C   C105      1.0  0.60528  0.29085  0.47067  1.0000 -0.1082644433
C   C106      1.0  0.32468  0.38757  0.41125  1.0000 0.0804017495
C   C107      1.0  0.38757  0.41125  0.32468  1.0000 0.0804017495
C   C108      1.0  0.41125  0.32468  0.38757  1.0000 0.0804017495
C   C109      1.0  0.36136  0.33748  0.42316  1.0000 -0.1949763846
C   C110      1.0  0.33748  0.42316  0.36136  1.0000 -0.1949763846
C   C111      1.0  0.42316  0.36136  0.33748  1.0000 -0.1949763846
C   C112      1.0  0.94618  0.36052  0.64730  1.0000 0.4553673315
C   C113      1.0  0.36052  0.64730  0.94618  1.0000 0.4553673315
C   C114      1.0  0.64730  0.94618  0.36052  1.0000 0.4553673315
C   C115      1.0  0.76190  0.68660  0.31560  1.0000 -0.2668480329
C   C116      1.0  0.70730  0.60520  0.14410  1.0000 -0.2886255037
C   C117      1.0  0.31560  0.76190  0.68660  1.0000 -0.2668480329
C   C118      1.0  0.14410  0.70730  0.60520  1.0000 -0.2886255037
C   C119      1.0  0.68660  0.31560  0.76190  1.0000 -0.2668480329
C   C120      1.0  0.60520  0.14410  0.70730  1.0000 -0.2886255037
C   C121      1.0  0.23810  0.31340  0.68440  1.0000 -0.2668480329
C   C122      1.0  0.29270  0.39480  0.85590  1.0000 -0.2886255037
C   C123      1.0  0.68440  0.23810  0.31340  1.0000 -0.2668480329
C   C124      1.0  0.85590  0.29270  0.39480  1.0000 -0.2886255037
C   C125      1.0  0.31340  0.68440  0.23810  1.0000 -0.2668480329
C   C126      1.0  0.39480  0.85590  0.29270  1.0000 -0.2886255037
N   N1        1.0  0.03450  0.74860  0.37750  1.0000 -0.0803686556
N   N2        1.0  0.74860  0.37750  0.03450  1.0000 -0.0803686556
N   N3        1.0  0.37750  0.03450  0.74860  1.0000 -0.0803686556
N   N4        1.0  0.10293  0.73521  0.39086  1.0000 -0.3316738806
N   N5        1.0  0.73521  0.39086  0.10293  1.0000 -0.3316738806
N   N6        1.0  0.39086  0.10293  0.73521  1.0000 -0.3316738806
N   N7        1.0  0.95013  0.66657  0.33540  1.0000 -0.0934963625
N   N8        1.0  0.66657  0.33540  0.95013  1.0000 -0.0934963625
N   N9        1.0  0.33540  0.95013  0.66657  1.0000 -0.0934963625
N   N10       1.0  0.09540  0.59550  0.35570  1.0000 -0.5994438183
N   N11       1.0  0.59550  0.35570  0.09540  1.0000 -0.5994438183
N   N12       1.0  0.35570  0.09540  0.59550  1.0000 -0.5994438183
N   N13       1.0  0.95896  0.59474  0.31740  1.0000 -0.3192230763
N   N14       1.0  0.59474  0.31740  0.95896  1.0000 -0.3192230763
N   N15       1.0  0.31740  0.95896  0.59474  1.0000 -0.3192230763
N   N16       1.0  0.96550  0.25140  0.62250  1.0000 -0.0803686556
N   N17       1.0  0.25140  0.62250  0.96550  1.0000 -0.0803686556
N   N18       1.0  0.62250  0.96550  0.25140  1.0000 -0.0803686556
N   N19       1.0  0.89707  0.26479  0.60914  1.0000 -0.3316738806
N   N20       1.0  0.26479  0.60914  0.89707  1.0000 -0.3316738806
N   N21       1.0  0.60914  0.89707  0.26479  1.0000 -0.3316738806
N   N22       1.0  0.04987  0.33343  0.66460  1.0000 -0.0934963625
N   N23       1.0  0.33343  0.66460  0.04987  1.0000 -0.0934963625
N   N24       1.0  0.66460  0.04987  0.33343  1.0000 -0.0934963625
N   N25       1.0  0.90460  0.40450  0.64430  1.0000 -0.5994438183
N   N26       1.0  0.40450  0.64430  0.90460  1.0000 -0.5994438183
N   N27       1.0  0.64430  0.90460  0.40450  1.0000 -0.5994438183
N   N28       1.0  0.04104  0.40526  0.68260  1.0000 -0.3192230763
N   N29       1.0  0.40526  0.68260  0.04104  1.0000 -0.3192230763
N   N30       1.0  0.68260  0.04104  0.40526  1.0000 -0.3192230763
N   N31       1.0  0.76630  0.70170  0.24930  1.0000 -0.0803686556
N   N32       1.0  0.24930  0.76630  0.70170  1.0000 -0.0803686556
N   N33       1.0  0.70170  0.24930  0.76630  1.0000 -0.0803686556
N   N34       1.0  0.23370  0.29830  0.75070  1.0000 -0.0803686556
N   N35       1.0  0.75070  0.23370  0.29830  1.0000 -0.0803686556
N   N36       1.0  0.29830  0.75070  0.23370  1.0000 -0.0803686556
O   O1        1.0  0.89642  0.49948  0.42900  1.0000 -0.5201513024
O   O2        1.0  0.49948  0.42900  0.89642  1.0000 -0.5201513024
O   O3        1.0  0.42900  0.89642  0.49948  1.0000 -0.5201513024
O   O4        1.0  0.77135  0.45616  0.29469  1.0000 -0.5629916983
O   O5        1.0  0.45616  0.29469  0.77135  1.0000 -0.5629916983
O   O6        1.0  0.29469  0.77135  0.45616  1.0000 -0.5629916983
O   O7        1.0  0.78469  0.25444  0.17707  1.0000 -0.5629916983
O   O8        1.0  0.25444  0.17707  0.78469  1.0000 -0.5629916983
O   O9        1.0  0.17707  0.78469  0.25444  1.0000 -0.5629916983
O   O10       1.0  0.91136  0.39802  0.23082  1.0000 -0.5465587628
O   O11       1.0  0.39802  0.23082  0.91136  1.0000 -0.5465587628
O   O12       1.0  0.23082  0.91136  0.39802  1.0000 -0.5465587628
O   O13       1.0  0.10358  0.50052  0.57100  1.0000 -0.5201513024
O   O14       1.0  0.50052  0.57100  0.10358  1.0000 -0.5201513024
O   O15       1.0  0.57100  0.10358  0.50052  1.0000 -0.5201513024
O   O16       1.0  0.22865  0.54384  0.70531  1.0000 -0.5629916983
O   O17       1.0  0.54384  0.70531  0.22865  1.0000 -0.5629916983
O   O18       1.0  0.70531  0.22865  0.54384  1.0000 -0.5629916983
O   O19       1.0  0.21531  0.74556  0.82293  1.0000 -0.5629916983
O   O20       1.0  0.74556  0.82293  0.21531  1.0000 -0.5650339973
O   O21       1.0  0.82293  0.21531  0.74556  1.0000 -0.5629916983
O   O22       1.0  0.08864  0.60198  0.76918  1.0000 -0.5465587628
O   O23       1.0  0.60198  0.76918  0.08864  1.0000 -0.5465587628
O   O24       1.0  0.76918  0.08864  0.60198  1.0000 -0.5465587628
