# DDEC6 charges by PACMAN v1.1 (https://github.com/mtap-research/PACMAN-charge/)
data_2016[FeEr][nan]3[ION]1
_chemical_formula_sum              "Er4 Fe2 H36 C16 S8 N4 O44"
_cell_length_a       11.3539
_cell_length_b       11.3539
_cell_length_c       12.3964
_cell_angle_alpha    88.6945
_cell_angle_beta     91.3055
_cell_angle_gamma    86.4761

_symmetry_space_group_name_H-M    "P 1"
_symmetry_Int_Tables_number       1

loop_
  _symmetry_equiv_pos_as_xyz
  'x, y, z'

loop_
  _atom_site_type_symbol
  _atom_site_label
  _atom_site_symmetry_multiplicity
  _atom_site_fract_x
  _atom_site_fract_y
  _atom_site_fract_z
  _atom_site_occupancy
  _atom_site_charge
Er  Er1       1.0  0.69591  0.93193  0.09359  1.0000 2.0778935195
Er  Er2       1.0  0.93193  0.69591  0.40641  1.0000 2.0778935195
Er  Er3       1.0  0.30409  0.06807  0.90641  1.0000 2.0778935195
Er  Er4       1.0  0.06807  0.30409  0.59359  1.0000 2.0778935195
Fe  Fe1       1.0  0.95272  0.95272  0.25000  1.0000 1.1629228831
Fe  Fe2       1.0  0.04728  0.04728  0.75000  1.0000 1.1629228831
H   H1        1.0  0.94020  0.11140  0.00180  1.0000 0.1384612636
H   H2        1.0  0.11140  0.94020  0.49820  1.0000 0.1384612636
H   H3        1.0  0.05980  0.88860  0.99820  1.0000 0.1384612636
H   H4        1.0  0.88860  0.05980  0.50180  1.0000 0.1384612636
H   H5        1.0  0.84860  0.63740  0.77420  1.0000 0.1506584526
H   H6        1.0  0.90720  0.61060  0.88860  1.0000 0.1575924249
H   H7        1.0  0.89390  0.74070  0.84250  1.0000 0.1384612636
H   H8        1.0  0.19790  0.66390  0.81270  1.0000 0.1575924249
H   H9        1.0  0.10900  0.75620  0.86430  1.0000 0.1335831673
H   H10       1.0  0.12230  0.62630  0.91040  1.0000 0.1506584526
H   H11       1.0  0.04450  0.56730  0.75470  1.0000 0.2618429126
H   H12       1.0  0.03230  0.68690  0.71240  1.0000 0.2659096063
H   H13       1.0  0.63740  0.84860  0.72580  1.0000 0.1506584526
H   H14       1.0  0.61060  0.90720  0.61140  1.0000 0.1575924249
H   H15       1.0  0.74070  0.89390  0.65750  1.0000 0.1384612636
H   H16       1.0  0.66390  0.19790  0.68730  1.0000 0.1575924249
H   H17       1.0  0.75620  0.10900  0.63570  1.0000 0.1335831673
H   H18       1.0  0.62630  0.12230  0.58960  1.0000 0.1506584526
H   H19       1.0  0.56730  0.04450  0.74530  1.0000 0.2618429126
H   H20       1.0  0.68690  0.03230  0.78760  1.0000 0.2618429126
H   H21       1.0  0.15140  0.36260  0.22580  1.0000 0.1506584526
H   H22       1.0  0.09280  0.38940  0.11140  1.0000 0.1575924249
H   H23       1.0  0.10610  0.25930  0.15750  1.0000 0.1384612636
H   H24       1.0  0.80210  0.33610  0.18730  1.0000 0.1575924249
H   H25       1.0  0.89100  0.24380  0.13570  1.0000 0.1335831673
H   H26       1.0  0.87770  0.37370  0.08960  1.0000 0.1506584526
H   H27       1.0  0.95550  0.43270  0.24530  1.0000 0.2618429126
H   H28       1.0  0.96770  0.31310  0.28760  1.0000 0.2659096063
H   H29       1.0  0.36260  0.15140  0.27420  1.0000 0.1506584526
H   H30       1.0  0.38940  0.09280  0.38860  1.0000 0.1575924249
H   H31       1.0  0.25930  0.10610  0.34250  1.0000 0.1384612636
H   H32       1.0  0.33610  0.80210  0.31270  1.0000 0.1575924249
H   H33       1.0  0.24380  0.89100  0.36430  1.0000 0.1335831673
H   H34       1.0  0.37370  0.87770  0.41040  1.0000 0.1506584526
H   H35       1.0  0.43270  0.95550  0.25470  1.0000 0.2618429126
H   H36       1.0  0.31310  0.96770  0.21240  1.0000 0.2659096063
C   C1        1.0  0.86050  0.99250  0.90880  1.0000 0.6041291
C   C2        1.0  0.99250  0.86050  0.59120  1.0000 0.6041291
C   C3        1.0  0.13950  0.00750  0.09120  1.0000 0.6041291
C   C4        1.0  0.00750  0.13950  0.40880  1.0000 0.6041291
C   C5        1.0  0.93770  0.02530  0.00380  1.0000 0.0168748467
C   C6        1.0  0.02530  0.93770  0.49620  1.0000 0.0168748467
C   C7        1.0  0.06230  0.97470  0.99620  1.0000 0.0168748467
C   C8        1.0  0.97470  0.06230  0.50380  1.0000 0.0168748467
C   C9        1.0  0.90860  0.65940  0.82400  1.0000 -0.252667906
C   C10       1.0  0.12270  0.67490  0.84600  1.0000 -0.252667906
C   C11       1.0  0.65940  0.90860  0.67600  1.0000 -0.252667906
C   C12       1.0  0.67490  0.12270  0.65400  1.0000 -0.252667906
C   C13       1.0  0.09140  0.34060  0.17600  1.0000 -0.252667906
C   C14       1.0  0.87730  0.32510  0.15400  1.0000 -0.252667906
C   C15       1.0  0.34060  0.09140  0.32400  1.0000 -0.252667906
C   C16       1.0  0.32510  0.87730  0.34600  1.0000 -0.252667906
S   S1        1.0  0.67664  0.88628  0.33693  1.0000 1.4509121657
S   S2        1.0  0.88628  0.67664  0.16307  1.0000 1.4560940505
S   S3        1.0  0.32336  0.11372  0.66307  1.0000 1.4560940505
S   S4        1.0  0.11372  0.32336  0.83693  1.0000 1.4560940505
S   S5        1.0  0.45955  0.83861  0.92910  1.0000 1.4509121657
S   S6        1.0  0.83861  0.45955  0.57090  1.0000 1.4509121657
S   S7        1.0  0.54045  0.16139  0.07090  1.0000 1.4509121657
S   S8        1.0  0.16139  0.54045  0.42910  1.0000 1.4509121657
N   N1        1.0  0.03130  0.64250  0.77200  1.0000 -0.0932827725
N   N2        1.0  0.64250  0.03130  0.72800  1.0000 -0.0932827725
N   N3        1.0  0.96870  0.35750  0.22800  1.0000 -0.0932827725
N   N4        1.0  0.35750  0.96870  0.27200  1.0000 -0.0932827725
O   O1        1.0  0.88080  0.99380  0.10070  1.0000 -0.7135092121
O   O2        1.0  0.99380  0.88080  0.39930  1.0000 -0.7135092121
O   O3        1.0  0.11920  0.00620  0.89930  1.0000 -0.7189452011
O   O4        1.0  0.00620  0.11920  0.60070  1.0000 -0.7189452011
O   O5        1.0  0.75900  0.96040  0.27570  1.0000 -0.7781292706
O   O6        1.0  0.96040  0.75900  0.22430  1.0000 -0.7781292706
O   O7        1.0  0.24100  0.03960  0.72430  1.0000 -0.7781292706
O   O8        1.0  0.03960  0.24100  0.77570  1.0000 -0.7781292706
O   O9        1.0  0.77090  0.93630  0.92650  1.0000 -0.6019579678
O   O10       1.0  0.93630  0.77090  0.57350  1.0000 -0.6019579678
O   O11       1.0  0.22910  0.06370  0.07350  1.0000 -0.6019579678
O   O12       1.0  0.06370  0.22910  0.42650  1.0000 -0.6019579678
O   O13       1.0  0.74520  0.78920  0.39330  1.0000 -0.7189452011
O   O14       1.0  0.78920  0.74520  0.10670  1.0000 -0.7135092121
O   O15       1.0  0.25480  0.21080  0.60670  1.0000 -0.7189452011
O   O16       1.0  0.21080  0.25480  0.89330  1.0000 -0.7189452011
O   O17       1.0  0.55730  0.83250  0.00660  1.0000 -0.7135092121
O   O18       1.0  0.83250  0.55730  0.49340  1.0000 -0.7135092121
O   O19       1.0  0.44270  0.16750  0.99340  1.0000 -0.7135092121
O   O20       1.0  0.16750  0.44270  0.50660  1.0000 -0.7135092121
O   O21       1.0  0.60030  0.83870  0.25130  1.0000 -0.6912725726
O   O22       1.0  0.83870  0.60030  0.24870  1.0000 -0.6912725726
O   O23       1.0  0.39970  0.16130  0.74870  1.0000 -0.6912725726
O   O24       1.0  0.16130  0.39970  0.75130  1.0000 -0.6912725726
O   O25       1.0  0.88260  0.03160  0.81660  1.0000 -0.506130731
O   O26       1.0  0.03160  0.88260  0.68340  1.0000 -0.506130731
O   O27       1.0  0.11740  0.96840  0.18340  1.0000 -0.506130731
O   O28       1.0  0.96840  0.11740  0.31660  1.0000 -0.506130731
O   O29       1.0  0.60800  0.95600  0.41150  1.0000 -0.5319978355
O   O30       1.0  0.95600  0.60800  0.08850  1.0000 -0.5319978355
O   O31       1.0  0.39200  0.04400  0.58850  1.0000 -0.5319978355
O   O32       1.0  0.04400  0.39200  0.91150  1.0000 -0.5319978355
O   O33       1.0  0.34900  0.87420  0.98110  1.0000 -0.6965798795
O   O34       1.0  0.87420  0.34900  0.51890  1.0000 -0.6912725726
O   O35       1.0  0.65100  0.12580  0.01890  1.0000 -0.6912725726
O   O36       1.0  0.12580  0.65100  0.48110  1.0000 -0.6965798795
O   O37       1.0  0.45920  0.72880  0.87720  1.0000 -0.4715119361
O   O38       1.0  0.72880  0.45920  0.62280  1.0000 -0.4715119361
O   O39       1.0  0.54080  0.27120  0.12280  1.0000 -0.4715119361
O   O40       1.0  0.27120  0.54080  0.37720  1.0000 -0.4715119361
O   O41       1.0  0.46800  0.93940  0.85460  1.0000 -0.7189452011
O   O42       1.0  0.93940  0.46800  0.64540  1.0000 -0.7189452011
O   O43       1.0  0.53200  0.06060  0.14540  1.0000 -0.7189452011
O   O44       1.0  0.06060  0.53200  0.35460  1.0000 -0.7189452011
