# DDEC6 charges by PACMAN v1.1 (https://github.com/mtap-research/PACMAN-charge/)
data_2016[Cd][flu]3[ION]1
_chemical_formula_sum              "Cd3 H28 C36 N6 O20"
_cell_length_a       9.8669
_cell_length_b       10.425
_cell_length_c       12.4397
_cell_angle_alpha    111.316
_cell_angle_beta     102.568
_cell_angle_gamma    93.8625

_symmetry_space_group_name_H-M    "P 1"
_symmetry_Int_Tables_number       1

loop_
  _symmetry_equiv_pos_as_xyz
  'x, y, z'

loop_
  _atom_site_type_symbol
  _atom_site_label
  _atom_site_symmetry_multiplicity
  _atom_site_fract_x
  _atom_site_fract_y
  _atom_site_fract_z
  _atom_site_occupancy
  _atom_site_charge
Cd  Cd1       1.0  0.45330  0.17885  0.25827  1.0000 0.9638784183
Cd  Cd2       1.0  0.54670  0.82115  0.74173  1.0000 0.9638784183
Cd  Cd3       1.0  0.50000  0.50000  0.50000  1.0000 1.1126863612
H   H1        1.0  0.88780  0.43380  0.63190  1.0000 0.1476178979
H   H2        1.0  0.11220  0.56620  0.36810  1.0000 0.1476178979
H   H3        1.0  0.27760  0.37210  0.60130  1.0000 0.1412684498
H   H4        1.0  0.72240  0.62790  0.39870  1.0000 0.1412684498
H   H5        1.0  0.94900  0.22080  0.30940  1.0000 0.1308521507
H   H6        1.0  0.05100  0.77920  0.69060  1.0000 0.1308521507
H   H7        1.0  0.30560  0.72510  0.94110  1.0000 0.1412684498
H   H8        1.0  0.69440  0.27490  0.05890  1.0000 0.1412684498
H   H9        1.0  0.45620  0.71510  0.26470  1.0000 0.1412684498
H   H10       1.0  0.54380  0.28490  0.73530  1.0000 0.1412684498
H   H11       1.0  0.31630  0.35730  0.97650  1.0000 0.1476178979
H   H12       1.0  0.68370  0.64270  0.02350  1.0000 0.1476178979
H   H13       1.0  0.95020  0.22540  0.00780  1.0000 0.1308521507
H   H14       1.0  0.02060  0.10720  0.03670  1.0000 0.1151657207
H   H15       1.0  0.11450  0.23800  0.04210  1.0000 0.1412684498
H   H16       1.0  0.06360  0.15550  0.75290  1.0000 0.1308521507
H   H17       1.0  0.91700  0.06240  0.71840  1.0000 0.1308521507
H   H18       1.0  0.94200  0.21920  0.80640  1.0000 0.1308521507
H   H19       1.0  0.95940  0.02210  0.85960  1.0000 0.255680765
H   H20       1.0  0.10310  0.07410  0.87960  1.0000 0.246731217
H   H21       1.0  0.04980  0.77460  0.99220  1.0000 0.1308521507
H   H22       1.0  0.97940  0.89280  0.96330  1.0000 0.1151657207
H   H23       1.0  0.88550  0.76200  0.95790  1.0000 0.1412684498
H   H24       1.0  0.93640  0.84450  0.24710  1.0000 0.1308521507
H   H25       1.0  0.08300  0.93760  0.28160  1.0000 0.1308521507
H   H26       1.0  0.05800  0.78080  0.19360  1.0000 0.1308521507
H   H27       1.0  0.04060  0.97790  0.14040  1.0000 0.255680765
H   H28       1.0  0.89690  0.92590  0.12040  1.0000 0.246731217
C   C1        1.0  0.73860  0.30280  0.40800  1.0000 0.5760789368
C   C2        1.0  0.26140  0.69720  0.59200  1.0000 0.5760789368
C   C3        1.0  0.89460  0.32240  0.46190  1.0000 -0.0114592776
C   C4        1.0  0.10540  0.67760  0.53810  1.0000 -0.0114592776
C   C5        1.0  0.94760  0.39600  0.58440  1.0000 -0.1401417302
C   C6        1.0  0.05240  0.60400  0.41560  1.0000 -0.1401417302
C   C7        1.0  0.08930  0.41210  0.63440  1.0000 0.0977418153
C   C8        1.0  0.91070  0.58790  0.36560  1.0000 0.0977418153
C   C9        1.0  0.18190  0.36000  0.56590  1.0000 -0.1585259236
C   C10       1.0  0.81810  0.64000  0.43410  1.0000 -0.1585259236
C   C11       1.0  0.12850  0.28930  0.44320  1.0000 -0.0114592776
C   C12       1.0  0.87150  0.71070  0.55680  1.0000 -0.0114592776
C   C13       1.0  0.98460  0.26950  0.39140  1.0000 -0.1030119592
C   C14       1.0  0.01540  0.73050  0.60860  1.0000 -0.1030119592
C   C15       1.0  0.22620  0.23640  0.36680  1.0000 0.5760789368
C   C16       1.0  0.77380  0.76360  0.63320  1.0000 0.5760789368
C   C17       1.0  0.29850  0.52990  0.94090  1.0000 0.0939176781
C   C18       1.0  0.70150  0.47010  0.05910  1.0000 0.0939176781
C   C19       1.0  0.32660  0.67520  0.98960  1.0000 -0.1585259236
C   C20       1.0  0.67340  0.32480  0.01040  1.0000 -0.1585259236
C   C21       1.0  0.38630  0.74430  0.11130  1.0000 0.010555753
C   C22       1.0  0.61370  0.25570  0.88870  1.0000 0.010555753
C   C23       1.0  0.41680  0.66850  0.18290  1.0000 -0.0932674604
C   C24       1.0  0.58320  0.33150  0.81710  1.0000 -0.0932674604
C   C25       1.0  0.38880  0.52370  0.13330  1.0000 -0.0114592776
C   C26       1.0  0.61120  0.47630  0.86670  1.0000 -0.0114592776
C   C27       1.0  0.33180  0.45430  0.01090  1.0000 -0.1585259236
C   C28       1.0  0.66820  0.54570  0.98910  1.0000 -0.1585259236
C   C29       1.0  0.42280  0.44140  0.21050  1.0000 0.5760789368
C   C30       1.0  0.57720  0.55860  0.78950  1.0000 0.5760789368
C   C31       1.0  0.41440  0.90100  0.16550  1.0000 0.5386861814
C   C32       1.0  0.58560  0.09900  0.83450  1.0000 0.5386861814
C   C33       1.0  0.02800  0.17400  0.00100  1.0000 -0.2941065775
C   C34       1.0  0.98500  0.13700  0.78140  1.0000 -0.2827544557
C   C35       1.0  0.97200  0.82600  0.99900  1.0000 -0.2941065775
C   C36       1.0  0.01500  0.86300  0.21860  1.0000 -0.2827544557
N   N1        1.0  0.14160  0.49050  0.76220  1.0000 0.2976558013
N   N2        1.0  0.85840  0.50950  0.23780  1.0000 0.2976558013
N   N3        1.0  0.24310  0.45170  0.81460  1.0000 0.2721796585
N   N4        1.0  0.75690  0.54830  0.18540  1.0000 0.2721796585
N   N5        1.0  0.01900  0.10000  0.88000  1.0000 -0.0725483978
N   N6        1.0  0.98100  0.90000  0.12000  1.0000 -0.0725483978
O   O1        1.0  0.68950  0.22460  0.30030  1.0000 -0.5208049314
O   O2        1.0  0.31050  0.77540  0.69970  1.0000 -0.5208049314
O   O3        1.0  0.66610  0.36340  0.47580  1.0000 -0.5714692222
O   O4        1.0  0.33390  0.63660  0.52420  1.0000 -0.5714692222
O   O5        1.0  0.18140  0.14570  0.26470  1.0000 -0.5434950338
O   O6        1.0  0.81860  0.85430  0.73530  1.0000 -0.5434950338
O   O7        1.0  0.35760  0.28620  0.41110  1.0000 -0.5797793018
O   O8        1.0  0.64240  0.71380  0.58890  1.0000 -0.5797793018
O   O9        1.0  0.39470  0.31060  0.15830  1.0000 -0.5290599214
O   O10       1.0  0.60530  0.68940  0.84170  1.0000 -0.5290599214
O   O11       1.0  0.47660  0.50700  0.31900  1.0000 -0.5714692222
O   O12       1.0  0.52340  0.49300  0.68100  1.0000 -0.5714692222
O   O13       1.0  0.38920  0.96610  0.09900  1.0000 -0.5208049314
O   O14       1.0  0.61080  0.03390  0.90100  1.0000 -0.5208049314
O   O15       1.0  0.46100  0.96180  0.27620  1.0000 -0.5085494565
O   O16       1.0  0.53900  0.03820  0.72380  1.0000 -0.5085494565
O   O17       1.0  0.06530  0.57400  0.81310  1.0000 -0.404353206
O   O18       1.0  0.93470  0.42600  0.18690  1.0000 -0.4058270501
O   O19       1.0  0.25030  0.31720  0.77790  1.0000 -0.4450350152
O   O20       1.0  0.74970  0.68280  0.22210  1.0000 -0.4450350152
