# DDEC6 charges by PACMAN v1.1 (https://github.com/mtap-research/PACMAN-charge/)
data_2016[Zn][nan]3[ION]4
_chemical_formula_sum              "Zn4 H36 C40 N12 O16"
_cell_length_a       13.2461
_cell_length_b       13.2461
_cell_length_c       14.2485
_cell_angle_alpha    62.7189
_cell_angle_beta     117.281
_cell_angle_gamma    90.5502

_symmetry_space_group_name_H-M    "P 1"
_symmetry_Int_Tables_number       1

loop_
  _symmetry_equiv_pos_as_xyz
  'x, y, z'

loop_
  _atom_site_type_symbol
  _atom_site_label
  _atom_site_symmetry_multiplicity
  _atom_site_fract_x
  _atom_site_fract_y
  _atom_site_fract_z
  _atom_site_occupancy
  _atom_site_charge
Zn  Zn1       1.0  0.97005  0.02995  0.87318  1.0000 0.869478689
Zn  Zn2       1.0  0.02995  0.97005  0.12682  1.0000 0.869478689
Zn  Zn3       1.0  0.90306  0.90306  0.50000  1.0000 0.79753028
Zn  Zn4       1.0  0.09694  0.09694  0.50000  1.0000 0.79753028
H   H1        1.0  0.00770  0.31270  0.04810  1.0000 0.1188969868
H   H2        1.0  0.31270  0.00770  0.95190  1.0000 0.1188969868
H   H3        1.0  0.99230  0.68730  0.95190  1.0000 0.1188969868
H   H4        1.0  0.68730  0.99230  0.04810  1.0000 0.1188969868
H   H5        1.0  0.96660  0.64920  0.82130  1.0000 0.1188969868
H   H6        1.0  0.64920  0.96660  0.17870  1.0000 0.1188969868
H   H7        1.0  0.03340  0.35080  0.17870  1.0000 0.1188969868
H   H8        1.0  0.35080  0.03340  0.82130  1.0000 0.1188969868
H   H9        1.0  0.94540  0.41780  0.71030  1.0000 0.1283129319
H   H10       1.0  0.41780  0.94540  0.28970  1.0000 0.1283129319
H   H11       1.0  0.05460  0.58220  0.28970  1.0000 0.1283129319
H   H12       1.0  0.58220  0.05460  0.71030  1.0000 0.1283129319
H   H13       1.0  0.12450  0.19570  0.65860  1.0000 0.3224612489
H   H14       1.0  0.19570  0.12450  0.34140  1.0000 0.3224612489
H   H15       1.0  0.87550  0.80430  0.34140  1.0000 0.3224612489
H   H16       1.0  0.80430  0.87550  0.65860  1.0000 0.3224612489
H   H17       1.0  0.09090  0.17970  0.75010  1.0000 0.3224612489
H   H18       1.0  0.17970  0.09090  0.24990  1.0000 0.3224612489
H   H19       1.0  0.90910  0.82030  0.24990  1.0000 0.3224612489
H   H20       1.0  0.82030  0.90910  0.75010  1.0000 0.3224612489
H   H21       1.0  0.48370  0.75650  0.57860  1.0000 0.1113618552
H   H22       1.0  0.24350  0.51630  0.57860  1.0000 0.1113618552
H   H23       1.0  0.42830  0.76050  0.65370  1.0000 0.1188969868
H   H24       1.0  0.23950  0.57170  0.65370  1.0000 0.1188969868
H   H25       1.0  0.35580  0.83300  0.50970  1.0000 0.1188969868
H   H26       1.0  0.16700  0.64420  0.50970  1.0000 0.1188969868
H   H27       1.0  0.37480  0.62520  0.54330  1.0000 0.2393994792
H   H28       1.0  0.41730  0.58270  0.66990  1.0000 0.2066437169
H   H29       1.0  0.75650  0.48370  0.42140  1.0000 0.1113618552
H   H30       1.0  0.51630  0.24350  0.42140  1.0000 0.1113618552
H   H31       1.0  0.76050  0.42830  0.34630  1.0000 0.1188969868
H   H32       1.0  0.57170  0.23950  0.34630  1.0000 0.1188969868
H   H33       1.0  0.83300  0.35580  0.49030  1.0000 0.1188969868
H   H34       1.0  0.64420  0.16700  0.49030  1.0000 0.1188969868
H   H35       1.0  0.62520  0.37480  0.45670  1.0000 0.2393994792
H   H36       1.0  0.58270  0.41730  0.33010  1.0000 0.204533489
C   C1        1.0  0.97540  0.34720  0.88250  1.0000 -0.0178178288
C   C2        1.0  0.34720  0.97540  0.11750  1.0000 -0.0178178288
C   C3        1.0  0.02460  0.65280  0.11750  1.0000 -0.0178178288
C   C4        1.0  0.65280  0.02460  0.88250  1.0000 -0.0178178288
C   C5        1.0  0.99340  0.37280  0.97230  1.0000 -0.1479181112
C   C6        1.0  0.37280  0.99340  0.02770  1.0000 -0.1479181112
C   C7        1.0  0.00660  0.62720  0.02770  1.0000 -0.1479181112
C   C8        1.0  0.62720  0.00660  0.97230  1.0000 -0.1479181112
C   C9        1.0  0.99080  0.48660  0.95140  1.0000 0.064445795
C   C10       1.0  0.48660  0.99080  0.04860  1.0000 0.064445795
C   C11       1.0  0.00920  0.51340  0.04860  1.0000 0.064445795
C   C12       1.0  0.51340  0.00920  0.95140  1.0000 0.064445795
C   C13       1.0  0.97080  0.57220  0.83820  1.0000 -0.142443879
C   C14       1.0  0.57220  0.97080  0.16180  1.0000 -0.142443879
C   C15       1.0  0.02920  0.42780  0.16180  1.0000 -0.142443879
C   C16       1.0  0.42780  0.02920  0.83820  1.0000 -0.142443879
C   C17       1.0  0.95690  0.54870  0.74890  1.0000 -0.0081935203
C   C18       1.0  0.54870  0.95690  0.25110  1.0000 -0.0081935203
C   C19       1.0  0.04310  0.45130  0.25110  1.0000 -0.0081935203
C   C20       1.0  0.45130  0.04310  0.74890  1.0000 -0.0081935203
C   C21       1.0  0.95730  0.43470  0.77060  1.0000 -0.1185167467
C   C22       1.0  0.43470  0.95730  0.22940  1.0000 -0.1185167467
C   C23       1.0  0.04270  0.56530  0.22940  1.0000 -0.1185167467
C   C24       1.0  0.56530  0.04270  0.77060  1.0000 -0.1185167467
C   C25       1.0  0.97890  0.22270  0.91220  1.0000 0.5758977993
C   C26       1.0  0.22270  0.97890  0.08780  1.0000 0.5758977993
C   C27       1.0  0.02110  0.77730  0.08780  1.0000 0.5758977993
C   C28       1.0  0.77730  0.02110  0.91220  1.0000 0.5758977993
C   C29       1.0  0.93730  0.64930  0.62850  1.0000 0.5586237772
C   C30       1.0  0.64930  0.93730  0.37150  1.0000 0.5586237772
C   C31       1.0  0.06270  0.35070  0.37150  1.0000 0.5586237772
C   C32       1.0  0.35070  0.06270  0.62850  1.0000 0.5586237772
C   C33       1.0  0.02150  0.09310  0.66940  1.0000 0.5171595677
C   C34       1.0  0.09310  0.02150  0.33060  1.0000 0.5171595677
C   C35       1.0  0.97850  0.90690  0.33060  1.0000 0.5171595677
C   C36       1.0  0.90690  0.97850  0.66940  1.0000 0.5171595677
C   C37       1.0  0.41190  0.76190  0.58000  1.0000 -0.3370797769
C   C38       1.0  0.23810  0.58810  0.58000  1.0000 -0.3370797769
C   C39       1.0  0.76190  0.41190  0.42000  1.0000 -0.3370797769
C   C40       1.0  0.58810  0.23810  0.42000  1.0000 -0.3370797769
N   N1        1.0  0.96020  0.03980  0.72430  1.0000 -0.5201641357
N   N2        1.0  0.03980  0.96020  0.27570  1.0000 -0.5201641357
N   N3        1.0  0.01020  0.06560  0.58750  1.0000 -0.3470678762
N   N4        1.0  0.06560  0.01020  0.41250  1.0000 -0.3470678762
N   N5        1.0  0.98980  0.93440  0.41250  1.0000 -0.3470678762
N   N6        1.0  0.93440  0.98980  0.58750  1.0000 -0.3470678762
N   N7        1.0  0.08680  0.16480  0.69580  1.0000 -0.5664106593
N   N8        1.0  0.16480  0.08680  0.30420  1.0000 -0.5664106593
N   N9        1.0  0.91320  0.83520  0.30420  1.0000 -0.5664106593
N   N10       1.0  0.83520  0.91320  0.69580  1.0000 -0.5664106593
N   N11       1.0  0.36100  0.63900  0.59400  1.0000 -0.1185167467
N   N12       1.0  0.63900  0.36100  0.40600  1.0000 -0.1185167467
O   O1        1.0  0.95850  0.20050  0.82970  1.0000 -0.5313192145
O   O2        1.0  0.20050  0.95850  0.17030  1.0000 -0.5313192145
O   O3        1.0  0.04150  0.79950  0.17030  1.0000 -0.5313192145
O   O4        1.0  0.79950  0.04150  0.82970  1.0000 -0.5313192145
O   O5        1.0  0.00210  0.14930  0.01780  1.0000 -0.5450718538
O   O6        1.0  0.14930  0.00210  0.98220  1.0000 -0.5443667308
O   O7        1.0  0.99790  0.85070  0.98220  1.0000 -0.5443667308
O   O8        1.0  0.85070  0.99790  0.01780  1.0000 -0.5450718538
O   O9        1.0  0.92350  0.63550  0.54480  1.0000 -0.5201641357
O   O10       1.0  0.63550  0.92350  0.45520  1.0000 -0.5201641357
O   O11       1.0  0.07650  0.36450  0.45520  1.0000 -0.5201641357
O   O12       1.0  0.36450  0.07650  0.54480  1.0000 -0.5201641357
O   O13       1.0  0.94300  0.74380  0.62670  1.0000 -0.5313192145
O   O14       1.0  0.74380  0.94300  0.37330  1.0000 -0.5313192145
O   O15       1.0  0.05700  0.25620  0.37330  1.0000 -0.5313192145
O   O16       1.0  0.25620  0.05700  0.62670  1.0000 -0.5313192145
