# DDEC6 charges by PACMAN v1.1 (https://github.com/mtap-research/PACMAN-charge/)
data_2016[Zn][nan]3[ION]1
_chemical_formula_sum              "Zn6 H120 C126 N36 O24"
_cell_length_a       18.8002
_cell_length_b       18.8002
_cell_length_c       18.8002
_cell_angle_alpha    113.161
_cell_angle_beta     113.161
_cell_angle_gamma    113.161

_symmetry_space_group_name_H-M    "P 1"
_symmetry_Int_Tables_number       1

loop_
  _symmetry_equiv_pos_as_xyz
  'x, y, z'

loop_
  _atom_site_type_symbol
  _atom_site_label
  _atom_site_symmetry_multiplicity
  _atom_site_fract_x
  _atom_site_fract_y
  _atom_site_fract_z
  _atom_site_occupancy
  _atom_site_charge
Zn  Zn1       1.0  0.84354  0.45201  0.24426  1.0000 0.7835069539
Zn  Zn2       1.0  0.45201  0.24426  0.84354  1.0000 0.7835069539
Zn  Zn3       1.0  0.24426  0.84354  0.45201  1.0000 0.7835069539
Zn  Zn4       1.0  0.15646  0.54799  0.75574  1.0000 0.7835069539
Zn  Zn5       1.0  0.54799  0.75574  0.15646  1.0000 0.7835069539
Zn  Zn6       1.0  0.75574  0.15646  0.54799  1.0000 0.7835069539
H   H1        1.0  0.00050  0.36630  0.16950  1.0000 0.1194692644
H   H2        1.0  0.36630  0.16950  0.00050  1.0000 0.1194692644
H   H3        1.0  0.16950  0.00050  0.36630  1.0000 0.1194692644
H   H4        1.0  0.07910  0.30400  0.14180  1.0000 0.1194692644
H   H5        1.0  0.30400  0.14180  0.07910  1.0000 0.1194692644
H   H6        1.0  0.14180  0.07910  0.30400  1.0000 0.1194692644
H   H7        1.0  0.91560  0.08100  0.13410  1.0000 0.1104701973
H   H8        1.0  0.08100  0.13410  0.91560  1.0000 0.1104701973
H   H9        1.0  0.13410  0.91560  0.08100  1.0000 0.1104701973
H   H10       1.0  0.83490  0.14100  0.15840  1.0000 0.1194692644
H   H11       1.0  0.14100  0.15840  0.83490  1.0000 0.1194692644
H   H12       1.0  0.15840  0.83490  0.14100  1.0000 0.1194692644
H   H13       1.0  0.05500  0.09420  0.19810  1.0000 0.1104701973
H   H14       1.0  0.09420  0.19810  0.05500  1.0000 0.1104701973
H   H15       1.0  0.19810  0.05500  0.09420  1.0000 0.1104701973
H   H16       1.0  0.88230  0.55690  0.56870  1.0000 0.1194692644
H   H17       1.0  0.55690  0.56870  0.88230  1.0000 0.1194692644
H   H18       1.0  0.56870  0.88230  0.55690  1.0000 0.1194692644
H   H19       1.0  0.82410  0.60420  0.64860  1.0000 0.1104701973
H   H20       1.0  0.60420  0.64860  0.82410  1.0000 0.1104701973
H   H21       1.0  0.64860  0.82410  0.60420  1.0000 0.1104701973
H   H22       1.0  0.62660  0.56370  0.41440  1.0000 0.1104701973
H   H23       1.0  0.56370  0.41440  0.62660  1.0000 0.1104701973
H   H24       1.0  0.41440  0.62660  0.56370  1.0000 0.1104701973
H   H25       1.0  0.67970  0.50940  0.33100  1.0000 0.1104701973
H   H26       1.0  0.50940  0.33100  0.67970  1.0000 0.1104701973
H   H27       1.0  0.33100  0.67970  0.50940  1.0000 0.1104701973
H   H28       1.0  0.64810  0.68780  0.54480  1.0000 0.1104701973
H   H29       1.0  0.68780  0.54480  0.64810  1.0000 0.1104701973
H   H30       1.0  0.54480  0.64810  0.68780  1.0000 0.1104701973
H   H31       1.0  0.15890  0.62980  0.38360  1.0000 0.3255767914
H   H32       1.0  0.62980  0.38360  0.15890  1.0000 0.3255767914
H   H33       1.0  0.38360  0.15890  0.62980  1.0000 0.3255767914
H   H34       1.0  0.05970  0.53330  0.33060  1.0000 0.3255767914
H   H35       1.0  0.53330  0.33060  0.05970  1.0000 0.3255767914
H   H36       1.0  0.33060  0.05970  0.53330  1.0000 0.3255767914
H   H37       1.0  0.99950  0.63370  0.83050  1.0000 0.1194692644
H   H38       1.0  0.63370  0.83050  0.99950  1.0000 0.1194692644
H   H39       1.0  0.83050  0.99950  0.63370  1.0000 0.1194692644
H   H40       1.0  0.92090  0.69600  0.85820  1.0000 0.1194692644
H   H41       1.0  0.69600  0.85820  0.92090  1.0000 0.1194692644
H   H42       1.0  0.85820  0.92090  0.69600  1.0000 0.1194692644
H   H43       1.0  0.08440  0.91900  0.86590  1.0000 0.1104701973
H   H44       1.0  0.91900  0.86590  0.08440  1.0000 0.1104701973
H   H45       1.0  0.86590  0.08440  0.91900  1.0000 0.1104701973
H   H46       1.0  0.16510  0.85900  0.84160  1.0000 0.1194692644
H   H47       1.0  0.85900  0.84160  0.16510  1.0000 0.1194692644
H   H48       1.0  0.84160  0.16510  0.85900  1.0000 0.1194692644
H   H49       1.0  0.94500  0.90580  0.80190  1.0000 0.1104701973
H   H50       1.0  0.90580  0.80190  0.94500  1.0000 0.1104701973
H   H51       1.0  0.80190  0.94500  0.90580  1.0000 0.1104701973
H   H52       1.0  0.11770  0.44310  0.43130  1.0000 0.1194692644
H   H53       1.0  0.44310  0.43130  0.11770  1.0000 0.1194692644
H   H54       1.0  0.43130  0.11770  0.44310  1.0000 0.1194692644
H   H55       1.0  0.17590  0.39580  0.35140  1.0000 0.1104701973
H   H56       1.0  0.39580  0.35140  0.17590  1.0000 0.1104701973
H   H57       1.0  0.35140  0.17590  0.39580  1.0000 0.1104701973
H   H58       1.0  0.37340  0.43630  0.58560  1.0000 0.1104701973
H   H59       1.0  0.43630  0.58560  0.37340  1.0000 0.1104701973
H   H60       1.0  0.58560  0.37340  0.43630  1.0000 0.1104701973
H   H61       1.0  0.32030  0.49060  0.66900  1.0000 0.1104701973
H   H62       1.0  0.49060  0.66900  0.32030  1.0000 0.1104701973
H   H63       1.0  0.66900  0.32030  0.49060  1.0000 0.1104701973
H   H64       1.0  0.35190  0.31220  0.45520  1.0000 0.1104701973
H   H65       1.0  0.31220  0.45520  0.35190  1.0000 0.1104701973
H   H66       1.0  0.45520  0.35190  0.31220  1.0000 0.1104701973
H   H67       1.0  0.84110  0.37020  0.61640  1.0000 0.3255767914
H   H68       1.0  0.37020  0.61640  0.84110  1.0000 0.3255767914
H   H69       1.0  0.61640  0.84110  0.37020  1.0000 0.3255767914
H   H70       1.0  0.94030  0.46670  0.66940  1.0000 0.3255767914
H   H71       1.0  0.46670  0.66940  0.94030  1.0000 0.3255767914
H   H72       1.0  0.66940  0.94030  0.46670  1.0000 0.3255767914
H   H73       1.0  0.80190  0.75390  0.38200  1.0000 0.1309416783
H   H74       1.0  0.79090  0.65740  0.32810  1.0000 0.1194692644
H   H75       1.0  0.69370  0.64680  0.28950  1.0000 0.1194692644
H   H76       1.0  0.71550  0.62290  0.10500  1.0000 0.1309416783
H   H77       1.0  0.63820  0.56280  0.11370  1.0000 0.1433757511
H   H78       1.0  0.73480  0.57270  0.15150  1.0000 0.1309416783
H   H79       1.0  0.83310  0.74430  0.27850  1.0000 0.2485693338
H   H80       1.0  0.74360  0.73540  0.24340  1.0000 0.2722744586
H   H81       1.0  0.38200  0.80190  0.75390  1.0000 0.1309416783
H   H82       1.0  0.32810  0.79090  0.65740  1.0000 0.1194692644
H   H83       1.0  0.28950  0.69370  0.64680  1.0000 0.1194692644
H   H84       1.0  0.10500  0.71550  0.62290  1.0000 0.1309416783
H   H85       1.0  0.11370  0.63820  0.56280  1.0000 0.1433757511
H   H86       1.0  0.15150  0.73480  0.57270  1.0000 0.1309416783
H   H87       1.0  0.27850  0.83310  0.74430  1.0000 0.2485693338
H   H88       1.0  0.24340  0.74360  0.73540  1.0000 0.2722744586
H   H89       1.0  0.75390  0.38200  0.80190  1.0000 0.1309416783
H   H90       1.0  0.65740  0.32810  0.79090  1.0000 0.1194692644
H   H91       1.0  0.64680  0.28950  0.69370  1.0000 0.1194692644
H   H92       1.0  0.62290  0.10500  0.71550  1.0000 0.1309416783
H   H93       1.0  0.56280  0.11370  0.63820  1.0000 0.1433757511
H   H94       1.0  0.57270  0.15150  0.73480  1.0000 0.1309416783
H   H95       1.0  0.74430  0.27850  0.83310  1.0000 0.2485693338
H   H96       1.0  0.73540  0.24340  0.74360  1.0000 0.2722744586
H   H97       1.0  0.19810  0.24610  0.61800  1.0000 0.1309416783
H   H98       1.0  0.20910  0.34260  0.67190  1.0000 0.1194692644
H   H99       1.0  0.30630  0.35320  0.71050  1.0000 0.1194692644
H   H100      1.0  0.28450  0.37710  0.89500  1.0000 0.1309416783
H   H101      1.0  0.36180  0.43720  0.88630  1.0000 0.1433757511
H   H102      1.0  0.26520  0.42730  0.84850  1.0000 0.1309416783
H   H103      1.0  0.16690  0.25570  0.72150  1.0000 0.2485693338
H   H104      1.0  0.25640  0.26460  0.75660  1.0000 0.2722744586
H   H105      1.0  0.61800  0.19810  0.24610  1.0000 0.1309416783
H   H106      1.0  0.67190  0.20910  0.34260  1.0000 0.1194692644
H   H107      1.0  0.71050  0.30630  0.35320  1.0000 0.1194692644
H   H108      1.0  0.89500  0.28450  0.37710  1.0000 0.1309416783
H   H109      1.0  0.88630  0.36180  0.43720  1.0000 0.1433757511
H   H110      1.0  0.84850  0.26520  0.42730  1.0000 0.1309416783
H   H111      1.0  0.72150  0.16690  0.25570  1.0000 0.2485693338
H   H112      1.0  0.75660  0.25640  0.26460  1.0000 0.2722744586
H   H113      1.0  0.24610  0.61800  0.19810  1.0000 0.1309416783
H   H114      1.0  0.34260  0.67190  0.20910  1.0000 0.1194692644
H   H115      1.0  0.35320  0.71050  0.30630  1.0000 0.1194692644
H   H116      1.0  0.37710  0.89500  0.28450  1.0000 0.1309416783
H   H117      1.0  0.43720  0.88630  0.36180  1.0000 0.1433757511
H   H118      1.0  0.42730  0.84850  0.26520  1.0000 0.1309416783
H   H119      1.0  0.25570  0.72150  0.16690  1.0000 0.2485693338
H   H120      1.0  0.26460  0.75660  0.25640  1.0000 0.2722744586
C   C1        1.0  0.86382  0.30556  0.19322  1.0000 0.5652861836
C   C2        1.0  0.30556  0.19322  0.86382  1.0000 0.5652861836
C   C3        1.0  0.19322  0.86382  0.30556  1.0000 0.5652861836
C   C4        1.0  0.91225  0.26250  0.17075  1.0000 -0.0356837792
C   C5        1.0  0.26250  0.17075  0.91225  1.0000 -0.0356837792
C   C6        1.0  0.17075  0.91225  0.26250  1.0000 -0.0356837792
C   C7        1.0  0.98422  0.30963  0.16355  1.0000 -0.1062886251
C   C8        1.0  0.30963  0.16355  0.98422  1.0000 -0.1062886251
C   C9        1.0  0.16355  0.98422  0.30963  1.0000 -0.1062886251
C   C10       1.0  0.03182  0.27251  0.14767  1.0000 -0.1603649242
C   C11       1.0  0.27251  0.14767  0.03182  1.0000 -0.1603649242
C   C12       1.0  0.14767  0.03182  0.27251  1.0000 -0.1603649242
C   C13       1.0  0.01017  0.18799  0.14008  1.0000 0.0687606985
C   C14       1.0  0.18799  0.14008  0.01017  1.0000 0.0687606985
C   C15       1.0  0.14008  0.01017  0.18799  1.0000 0.0687606985
C   C16       1.0  0.93406  0.13926  0.14258  1.0000 -0.1511268673
C   C17       1.0  0.13926  0.14258  0.93406  1.0000 -0.1511268673
C   C18       1.0  0.14258  0.93406  0.13926  1.0000 -0.1511268673
C   C19       1.0  0.88567  0.17526  0.15737  1.0000 -0.1035385085
C   C20       1.0  0.17526  0.15737  0.88567  1.0000 -0.1035385085
C   C21       1.0  0.15737  0.88567  0.17526  1.0000 -0.1035385085
C   C22       1.0  0.06455  0.15164  0.12811  1.0000 0.0805287807
C   C23       1.0  0.15164  0.12811  0.06455  1.0000 0.0805287807
C   C24       1.0  0.12811  0.06455  0.15164  1.0000 0.0805287807
C   C25       1.0  0.07879  0.10234  0.16449  1.0000 -0.1951809881
C   C26       1.0  0.10234  0.16449  0.07879  1.0000 -0.1951809881
C   C27       1.0  0.16449  0.07879  0.10234  1.0000 -0.1951809881
C   C28       1.0  0.82199  0.49177  0.38664  1.0000 0.5431895497
C   C29       1.0  0.49177  0.38664  0.82199  1.0000 0.5431895497
C   C30       1.0  0.38664  0.82199  0.49177  1.0000 0.5431895497
C   C31       1.0  0.78592  0.52565  0.43953  1.0000 -0.0344365632
C   C32       1.0  0.52565  0.43953  0.78592  1.0000 -0.0344365632
C   C33       1.0  0.43953  0.78592  0.52565  1.0000 -0.0344365632
C   C34       1.0  0.82957  0.55633  0.53650  1.0000 -0.1035385085
C   C35       1.0  0.55633  0.53650  0.82957  1.0000 -0.1035385085
C   C36       1.0  0.53650  0.82957  0.55633  1.0000 -0.1035385085
C   C37       1.0  0.79522  0.58578  0.58490  1.0000 -0.1511268673
C   C38       1.0  0.58578  0.58490  0.79522  1.0000 -0.1511268673
C   C39       1.0  0.58490  0.79522  0.58578  1.0000 -0.1511268673
C   C40       1.0  0.71840  0.58847  0.54056  1.0000 0.0687606985
C   C41       1.0  0.58847  0.54056  0.71840  1.0000 0.0687606985
C   C42       1.0  0.54056  0.71840  0.58847  1.0000 0.0687606985
C   C43       1.0  0.67675  0.56072  0.44493  1.0000 -0.1603649242
C   C44       1.0  0.56072  0.44493  0.67675  1.0000 -0.1603649242
C   C45       1.0  0.44493  0.67675  0.56072  1.0000 -0.1603649242
C   C46       1.0  0.70936  0.52890  0.39524  1.0000 -0.1035385085
C   C47       1.0  0.52890  0.39524  0.70936  1.0000 -0.1062886251
C   C48       1.0  0.39524  0.70936  0.52890  1.0000 -0.1062886251
C   C49       1.0  0.67542  0.61269  0.58878  1.0000 0.0805287807
C   C50       1.0  0.61269  0.58878  0.67542  1.0000 0.0805287807
C   C51       1.0  0.58878  0.67542  0.61269  1.0000 0.0805287807
C   C52       1.0  0.63885  0.66267  0.57705  1.0000 -0.1922462789
C   C53       1.0  0.66267  0.57705  0.63885  1.0000 -0.1922462789
C   C54       1.0  0.57705  0.63885  0.66267  1.0000 -0.1922462789
C   C55       1.0  0.05455  0.63982  0.35403  1.0000 0.4543589992
C   C56       1.0  0.63982  0.35403  0.05455  1.0000 0.4543589992
C   C57       1.0  0.35403  0.05455  0.63982  1.0000 0.4543589992
C   C58       1.0  0.13618  0.69444  0.80678  1.0000 0.5652861836
C   C59       1.0  0.69444  0.80678  0.13618  1.0000 0.5652861836
C   C60       1.0  0.80678  0.13618  0.69444  1.0000 0.5652861836
C   C61       1.0  0.08775  0.73750  0.82925  1.0000 -0.0356837792
C   C62       1.0  0.73750  0.82925  0.08775  1.0000 -0.0356837792
C   C63       1.0  0.82925  0.08775  0.73750  1.0000 -0.0356837792
C   C64       1.0  0.01578  0.69037  0.83645  1.0000 -0.1062886251
C   C65       1.0  0.69037  0.83645  0.01578  1.0000 -0.1062886251
C   C66       1.0  0.83645  0.01578  0.69037  1.0000 -0.1062886251
C   C67       1.0  0.96818  0.72749  0.85233  1.0000 -0.1603649242
C   C68       1.0  0.72749  0.85233  0.96818  1.0000 -0.1603649242
C   C69       1.0  0.85233  0.96818  0.72749  1.0000 -0.1603649242
C   C70       1.0  0.98983  0.81201  0.85992  1.0000 0.0687606985
C   C71       1.0  0.81201  0.85992  0.98983  1.0000 0.0687606985
C   C72       1.0  0.85992  0.98983  0.81201  1.0000 0.0687606985
C   C73       1.0  0.06594  0.86074  0.85742  1.0000 -0.1511268673
C   C74       1.0  0.86074  0.85742  0.06594  1.0000 -0.1511268673
C   C75       1.0  0.85742  0.06594  0.86074  1.0000 -0.1511268673
C   C76       1.0  0.11433  0.82474  0.84263  1.0000 -0.1035385085
C   C77       1.0  0.82474  0.84263  0.11433  1.0000 -0.1035385085
C   C78       1.0  0.84263  0.11433  0.82474  1.0000 -0.1035385085
C   C79       1.0  0.93545  0.84836  0.87189  1.0000 0.0805287807
C   C80       1.0  0.84836  0.87189  0.93545  1.0000 0.0805287807
C   C81       1.0  0.87189  0.93545  0.84836  1.0000 0.0805287807
C   C82       1.0  0.92121  0.89766  0.83551  1.0000 -0.1951809881
C   C83       1.0  0.89766  0.83551  0.92121  1.0000 -0.1951809881
C   C84       1.0  0.83551  0.92121  0.89766  1.0000 -0.1951809881
C   C85       1.0  0.17801  0.50823  0.61336  1.0000 0.5431895497
C   C86       1.0  0.50823  0.61336  0.17801  1.0000 0.5431895497
C   C87       1.0  0.61336  0.17801  0.50823  1.0000 0.5431895497
C   C88       1.0  0.21408  0.47435  0.56047  1.0000 -0.0344365632
C   C89       1.0  0.47435  0.56047  0.21408  1.0000 -0.0344365632
C   C90       1.0  0.56047  0.21408  0.47435  1.0000 -0.0344365632
C   C91       1.0  0.17043  0.44367  0.46350  1.0000 -0.1035385085
C   C92       1.0  0.44367  0.46350  0.17043  1.0000 -0.1035385085
C   C93       1.0  0.46350  0.17043  0.44367  1.0000 -0.1035385085
C   C94       1.0  0.20478  0.41422  0.41510  1.0000 -0.1511268673
C   C95       1.0  0.41422  0.41510  0.20478  1.0000 -0.1511268673
C   C96       1.0  0.41510  0.20478  0.41422  1.0000 -0.1511268673
C   C97       1.0  0.28160  0.41153  0.45944  1.0000 0.0687606985
C   C98       1.0  0.41153  0.45944  0.28160  1.0000 0.0687606985
C   C99       1.0  0.45944  0.28160  0.41153  1.0000 0.0687606985
C   C100      1.0  0.32325  0.43928  0.55507  1.0000 -0.1603649242
C   C101      1.0  0.43928  0.55507  0.32325  1.0000 -0.1603649242
C   C102      1.0  0.55507  0.32325  0.43928  1.0000 -0.1603649242
C   C103      1.0  0.29064  0.47110  0.60476  1.0000 -0.1062886251
C   C104      1.0  0.47110  0.60476  0.29064  1.0000 -0.1035385085
C   C105      1.0  0.60476  0.29064  0.47110  1.0000 -0.1035385085
C   C106      1.0  0.32458  0.38731  0.41122  1.0000 0.0805287807
C   C107      1.0  0.38731  0.41122  0.32458  1.0000 0.0805287807
C   C108      1.0  0.41122  0.32458  0.38731  1.0000 0.0805287807
C   C109      1.0  0.36115  0.33733  0.42295  1.0000 -0.1922462789
C   C110      1.0  0.33733  0.42295  0.36115  1.0000 -0.1922462789
C   C111      1.0  0.42295  0.36115  0.33733  1.0000 -0.1922462789
C   C112      1.0  0.94545  0.36018  0.64597  1.0000 0.4543589992
C   C113      1.0  0.36018  0.64597  0.94545  1.0000 0.4543589992
C   C114      1.0  0.64597  0.94545  0.36018  1.0000 0.4543589992
C   C115      1.0  0.76320  0.68920  0.31800  1.0000 -0.2699156759
C   C116      1.0  0.70870  0.60650  0.14560  1.0000 -0.2836242673
C   C117      1.0  0.31800  0.76320  0.68920  1.0000 -0.2699156759
C   C118      1.0  0.14560  0.70870  0.60650  1.0000 -0.2836242673
C   C119      1.0  0.68920  0.31800  0.76320  1.0000 -0.2699156759
C   C120      1.0  0.60650  0.14560  0.70870  1.0000 -0.2836242673
C   C121      1.0  0.23680  0.31080  0.68200  1.0000 -0.2699156759
C   C122      1.0  0.29130  0.39350  0.85440  1.0000 -0.2836242673
C   C123      1.0  0.68200  0.23680  0.31080  1.0000 -0.2699156759
C   C124      1.0  0.85440  0.29130  0.39350  1.0000 -0.2836242673
C   C125      1.0  0.31080  0.68200  0.23680  1.0000 -0.2699156759
C   C126      1.0  0.39350  0.85440  0.29130  1.0000 -0.2836242673
N   N1        1.0  0.03532  0.74907  0.37831  1.0000 -0.0736514835
N   N2        1.0  0.74907  0.37831  0.03532  1.0000 -0.0736514835
N   N3        1.0  0.37831  0.03532  0.74907  1.0000 -0.0736514835
N   N4        1.0  0.10316  0.73526  0.39133  1.0000 -0.3274694838
N   N5        1.0  0.73526  0.39133  0.10316  1.0000 -0.3274694838
N   N6        1.0  0.39133  0.10316  0.73526  1.0000 -0.3274694838
N   N7        1.0  0.95038  0.66667  0.33570  1.0000 -0.0885942884
N   N8        1.0  0.66667  0.33570  0.95038  1.0000 -0.0885942884
N   N9        1.0  0.33570  0.95038  0.66667  1.0000 -0.0885942884
N   N10       1.0  0.09611  0.59564  0.35635  1.0000 -0.5946345883
N   N11       1.0  0.59564  0.35635  0.09611  1.0000 -0.5946345883
N   N12       1.0  0.35635  0.09611  0.59564  1.0000 -0.5946345883
N   N13       1.0  0.95928  0.59492  0.31816  1.0000 -0.3192693052
N   N14       1.0  0.59492  0.31816  0.95928  1.0000 -0.3192693052
N   N15       1.0  0.31816  0.95928  0.59492  1.0000 -0.3192693052
N   N16       1.0  0.96468  0.25093  0.62169  1.0000 -0.0736514835
N   N17       1.0  0.25093  0.62169  0.96468  1.0000 -0.0736514835
N   N18       1.0  0.62169  0.96468  0.25093  1.0000 -0.0736514835
N   N19       1.0  0.89684  0.26474  0.60867  1.0000 -0.3274694838
N   N20       1.0  0.26474  0.60867  0.89684  1.0000 -0.3274694838
N   N21       1.0  0.60867  0.89684  0.26474  1.0000 -0.3274694838
N   N22       1.0  0.04962  0.33338  0.66430  1.0000 -0.0885942884
N   N23       1.0  0.33338  0.66430  0.04962  1.0000 -0.0885942884
N   N24       1.0  0.66430  0.04962  0.33338  1.0000 -0.0885942884
N   N25       1.0  0.90389  0.40436  0.64365  1.0000 -0.5946345883
N   N26       1.0  0.40436  0.64365  0.90389  1.0000 -0.5946345883
N   N27       1.0  0.64365  0.90389  0.40436  1.0000 -0.5946345883
N   N28       1.0  0.04072  0.40508  0.68184  1.0000 -0.3192693052
N   N29       1.0  0.40508  0.68184  0.04072  1.0000 -0.3192693052
N   N30       1.0  0.68184  0.04072  0.40508  1.0000 -0.3192693052
N   N31       1.0  0.76758  0.70336  0.25026  1.0000 -0.0885942884
N   N32       1.0  0.25026  0.76758  0.70336  1.0000 -0.0885942884
N   N33       1.0  0.70336  0.25026  0.76758  1.0000 -0.0885942884
N   N34       1.0  0.23242  0.29664  0.74974  1.0000 -0.0885942884
N   N35       1.0  0.74974  0.23242  0.29664  1.0000 -0.0885942884
N   N36       1.0  0.29664  0.74974  0.23242  1.0000 -0.0885942884
O   O1        1.0  0.89695  0.49979  0.42966  1.0000 -0.5154372809
O   O2        1.0  0.49979  0.42966  0.89695  1.0000 -0.5154372809
O   O3        1.0  0.42966  0.89695  0.49979  1.0000 -0.5154372809
O   O4        1.0  0.77120  0.45506  0.29444  1.0000 -0.5637221692
O   O5        1.0  0.45506  0.29444  0.77120  1.0000 -0.5637221692
O   O6        1.0  0.29444  0.77120  0.45506  1.0000 -0.5637221692
O   O7        1.0  0.78385  0.25339  0.17611  1.0000 -0.5652023909
O   O8        1.0  0.25339  0.17611  0.78385  1.0000 -0.5652023909
O   O9        1.0  0.17611  0.78385  0.25339  1.0000 -0.5652023909
O   O10       1.0  0.91090  0.39757  0.23041  1.0000 -0.5438299534
O   O11       1.0  0.39757  0.23041  0.91090  1.0000 -0.5438299534
O   O12       1.0  0.23041  0.91090  0.39757  1.0000 -0.5438299534
O   O13       1.0  0.10305  0.50021  0.57034  1.0000 -0.5154372809
O   O14       1.0  0.50021  0.57034  0.10305  1.0000 -0.5154372809
O   O15       1.0  0.57034  0.10305  0.50021  1.0000 -0.5154372809
O   O16       1.0  0.22880  0.54494  0.70556  1.0000 -0.5637221692
O   O17       1.0  0.54494  0.70556  0.22880  1.0000 -0.5637221692
O   O18       1.0  0.70556  0.22880  0.54494  1.0000 -0.5637221692
O   O19       1.0  0.21615  0.74661  0.82389  1.0000 -0.5652023909
O   O20       1.0  0.74661  0.82389  0.21615  1.0000 -0.5652023909
O   O21       1.0  0.82389  0.21615  0.74661  1.0000 -0.5652023909
O   O22       1.0  0.08910  0.60243  0.76959  1.0000 -0.5438299534
O   O23       1.0  0.60243  0.76959  0.08910  1.0000 -0.5438299534
O   O24       1.0  0.76959  0.08910  0.60243  1.0000 -0.5438299534
