# DDEC6 charges by PACMAN v1.1 (https://github.com/mtap-research/PACMAN-charge/)
data_2016[FeGd][nan]3[ION]1
_chemical_formula_sum              "Gd4 Fe2 H36 C16 S8 N4 O44"
_cell_length_a       11.3071
_cell_length_b       11.3071
_cell_length_c       12.593
_cell_angle_alpha    88.0442
_cell_angle_beta     91.9558
_cell_angle_gamma    87.0723

_symmetry_space_group_name_H-M    "P 1"
_symmetry_Int_Tables_number       1

loop_
  _symmetry_equiv_pos_as_xyz
  'x, y, z'

loop_
  _atom_site_type_symbol
  _atom_site_label
  _atom_site_symmetry_multiplicity
  _atom_site_fract_x
  _atom_site_fract_y
  _atom_site_fract_z
  _atom_site_occupancy
  _atom_site_charge
Gd  Gd1       1.0  0.69069  0.93331  0.09061  1.0000 2.0300232274
Gd  Gd2       1.0  0.93331  0.69069  0.40939  1.0000 2.0300232274
Gd  Gd3       1.0  0.30931  0.06669  0.90939  1.0000 2.0300232274
Gd  Gd4       1.0  0.06669  0.30931  0.59061  1.0000 2.0300232274
Fe  Fe1       1.0  0.95160  0.95160  0.25000  1.0000 1.1323210103
Fe  Fe2       1.0  0.04840  0.04840  0.75000  1.0000 1.1323210103
H   H1        1.0  0.94350  0.10370  0.00130  1.0000 0.1416626656
H   H2        1.0  0.10370  0.94350  0.49870  1.0000 0.1416626656
H   H3        1.0  0.05650  0.89630  0.99870  1.0000 0.1416626656
H   H4        1.0  0.89630  0.05650  0.50130  1.0000 0.1416626656
H   H5        1.0  0.83610  0.63830  0.78430  1.0000 0.150040417
H   H6        1.0  0.89320  0.61880  0.89910  1.0000 0.1573929367
H   H7        1.0  0.88240  0.74620  0.84540  1.0000 0.1416626656
H   H8        1.0  0.19080  0.66460  0.82470  1.0000 0.1573929367
H   H9        1.0  0.10490  0.76230  0.87000  1.0000 0.1336979074
H   H10       1.0  0.11580  0.63500  0.92370  1.0000 0.150040417
H   H11       1.0  0.03050  0.56570  0.77320  1.0000 0.2559580607
H   H12       1.0  0.02060  0.68260  0.72390  1.0000 0.267695616
H   H13       1.0  0.63830  0.83610  0.71570  1.0000 0.150040417
H   H14       1.0  0.61880  0.89320  0.60090  1.0000 0.1573929367
H   H15       1.0  0.74620  0.88240  0.65460  1.0000 0.1416626656
H   H16       1.0  0.66460  0.19080  0.67530  1.0000 0.1573929367
H   H17       1.0  0.76230  0.10490  0.63000  1.0000 0.1336979074
H   H18       1.0  0.63500  0.11580  0.57630  1.0000 0.150040417
H   H19       1.0  0.56570  0.03050  0.72680  1.0000 0.2559580607
H   H20       1.0  0.68260  0.02060  0.77610  1.0000 0.267695616
H   H21       1.0  0.16390  0.36170  0.21570  1.0000 0.150040417
H   H22       1.0  0.10680  0.38120  0.10090  1.0000 0.1573929367
H   H23       1.0  0.11760  0.25380  0.15460  1.0000 0.1416626656
H   H24       1.0  0.80920  0.33540  0.17530  1.0000 0.1573929367
H   H25       1.0  0.89510  0.23770  0.13000  1.0000 0.1336979074
H   H26       1.0  0.88420  0.36500  0.07630  1.0000 0.150040417
H   H27       1.0  0.96950  0.43430  0.22680  1.0000 0.2559580607
H   H28       1.0  0.97940  0.31740  0.27610  1.0000 0.267695616
H   H29       1.0  0.36170  0.16390  0.28430  1.0000 0.150040417
H   H30       1.0  0.38120  0.10680  0.39910  1.0000 0.1573929367
H   H31       1.0  0.25380  0.11760  0.34540  1.0000 0.1416626656
H   H32       1.0  0.33540  0.80920  0.32470  1.0000 0.1573929367
H   H33       1.0  0.23770  0.89510  0.37000  1.0000 0.1336979074
H   H34       1.0  0.36500  0.88420  0.42370  1.0000 0.150040417
H   H35       1.0  0.43430  0.96950  0.27320  1.0000 0.2559580607
H   H36       1.0  0.31740  0.97940  0.22390  1.0000 0.267695616
C   C1        1.0  0.86130  0.99250  0.90510  1.0000 0.6037264569
C   C2        1.0  0.99250  0.86130  0.59490  1.0000 0.6037264569
C   C3        1.0  0.13870  0.00750  0.09490  1.0000 0.6037264569
C   C4        1.0  0.00750  0.13870  0.40510  1.0000 0.6037264569
C   C5        1.0  0.94220  0.01700  0.00360  1.0000 -0.0048198534
C   C6        1.0  0.01700  0.94220  0.49640  1.0000 -0.0048198534
C   C7        1.0  0.05780  0.98300  0.99640  1.0000 -0.0048198534
C   C8        1.0  0.98300  0.05780  0.50360  1.0000 -0.0048198534
C   C9        1.0  0.89640  0.66360  0.83300  1.0000 -0.2604555571
C   C10       1.0  0.11620  0.67940  0.85730  1.0000 -0.2604555571
C   C11       1.0  0.66360  0.89640  0.66700  1.0000 -0.2604555571
C   C12       1.0  0.67940  0.11620  0.64270  1.0000 -0.2604555571
C   C13       1.0  0.10360  0.33640  0.16700  1.0000 -0.2604555571
C   C14       1.0  0.88380  0.32060  0.14270  1.0000 -0.2604555571
C   C15       1.0  0.33640  0.10360  0.33300  1.0000 -0.2604555571
C   C16       1.0  0.32060  0.88380  0.35730  1.0000 -0.2604555571
S   S1        1.0  0.67502  0.88674  0.33443  1.0000 1.4475959641
S   S2        1.0  0.88674  0.67502  0.16557  1.0000 1.4475959641
S   S3        1.0  0.32498  0.11326  0.66557  1.0000 1.4475959641
S   S4        1.0  0.11326  0.32498  0.83443  1.0000 1.4475959641
S   S5        1.0  0.46470  0.83644  0.92380  1.0000 1.4315795404
S   S6        1.0  0.83644  0.46470  0.57620  1.0000 1.4315795404
S   S7        1.0  0.53530  0.16356  0.07620  1.0000 1.4315795404
S   S8        1.0  0.16356  0.53530  0.42380  1.0000 1.4315795404
N   N1        1.0  0.01890  0.64230  0.78600  1.0000 -0.096502454
N   N2        1.0  0.64230  0.01890  0.71400  1.0000 -0.096502454
N   N3        1.0  0.98110  0.35770  0.21400  1.0000 -0.096502454
N   N4        1.0  0.35770  0.98110  0.28600  1.0000 -0.096502454
O   O1        1.0  0.88380  0.99280  0.09980  1.0000 -0.672590551
O   O2        1.0  0.99280  0.88380  0.40020  1.0000 -0.672590551
O   O3        1.0  0.11620  0.00720  0.90020  1.0000 -0.672590551
O   O4        1.0  0.00720  0.11620  0.59980  1.0000 -0.672590551
O   O5        1.0  0.75680  0.96080  0.27380  1.0000 -0.7595633166
O   O6        1.0  0.96080  0.75680  0.22620  1.0000 -0.7595633166
O   O7        1.0  0.24320  0.03920  0.72620  1.0000 -0.7595633166
O   O8        1.0  0.03920  0.24320  0.77380  1.0000 -0.7595633166
O   O9        1.0  0.77000  0.94200  0.92460  1.0000 -0.5619628327
O   O10       1.0  0.94200  0.77000  0.57540  1.0000 -0.5619628327
O   O11       1.0  0.23000  0.05800  0.07540  1.0000 -0.5619628327
O   O12       1.0  0.05800  0.23000  0.42460  1.0000 -0.5619628327
O   O13       1.0  0.74430  0.78910  0.39210  1.0000 -0.7100770371
O   O14       1.0  0.78910  0.74430  0.10790  1.0000 -0.7100770371
O   O15       1.0  0.25570  0.21090  0.60790  1.0000 -0.7100770371
O   O16       1.0  0.21090  0.25570  0.89210  1.0000 -0.7100770371
O   O17       1.0  0.55190  0.81430  0.01000  1.0000 -0.672590551
O   O18       1.0  0.81430  0.55190  0.49000  1.0000 -0.672590551
O   O19       1.0  0.44810  0.18570  0.99000  1.0000 -0.672590551
O   O20       1.0  0.18570  0.44810  0.51000  1.0000 -0.672590551
O   O21       1.0  0.59610  0.83850  0.25120  1.0000 -0.6802457171
O   O22       1.0  0.83850  0.59610  0.24880  1.0000 -0.6802457171
O   O23       1.0  0.40390  0.16150  0.74880  1.0000 -0.6802457171
O   O24       1.0  0.16150  0.40390  0.75120  1.0000 -0.6802457171
O   O25       1.0  0.88350  0.03090  0.81470  1.0000 -0.4929666247
O   O26       1.0  0.03090  0.88350  0.68530  1.0000 -0.4929666247
O   O27       1.0  0.11650  0.96910  0.18530  1.0000 -0.4929666247
O   O28       1.0  0.96910  0.11650  0.31470  1.0000 -0.4929666247
O   O29       1.0  0.60760  0.95680  0.40610  1.0000 -0.543202688
O   O30       1.0  0.95680  0.60760  0.09390  1.0000 -0.543202688
O   O31       1.0  0.39240  0.04320  0.59390  1.0000 -0.543202688
O   O32       1.0  0.04320  0.39240  0.90610  1.0000 -0.543202688
O   O33       1.0  0.34620  0.85860  0.96440  1.0000 -0.6878584968
O   O34       1.0  0.85860  0.34620  0.53560  1.0000 -0.6878584968
O   O35       1.0  0.65380  0.14140  0.03560  1.0000 -0.6878584968
O   O36       1.0  0.14140  0.65380  0.46440  1.0000 -0.6878584968
O   O37       1.0  0.47690  0.73990  0.85290  1.0000 -0.495308687
O   O38       1.0  0.73990  0.47690  0.64710  1.0000 -0.4929666247
O   O39       1.0  0.52310  0.26010  0.14710  1.0000 -0.4929666247
O   O40       1.0  0.26010  0.52310  0.35290  1.0000 -0.4929666247
O   O41       1.0  0.48640  0.94800  0.86830  1.0000 -0.73778594
O   O42       1.0  0.94800  0.48640  0.63170  1.0000 -0.73778594
O   O43       1.0  0.51360  0.05200  0.13170  1.0000 -0.73778594
O   O44       1.0  0.05200  0.51360  0.36830  1.0000 -0.73778594
