# DDEC6 charges by PACMAN v1.1 (https://github.com/mtap-research/PACMAN-charge/)
data_2016[Cd][pts]3[ION]1
_chemical_formula_sum              "Cd2 H52 C52 N4 O16"
_cell_length_a       13.0246
_cell_length_b       13.0246
_cell_length_c       19.1309
_cell_angle_alpha    57.065
_cell_angle_beta     122.935
_cell_angle_gamma    137.864

_symmetry_space_group_name_H-M    "P 1"
_symmetry_Int_Tables_number       1

loop_
  _symmetry_equiv_pos_as_xyz
  'x, y, z'

loop_
  _atom_site_type_symbol
  _atom_site_label
  _atom_site_symmetry_multiplicity
  _atom_site_fract_x
  _atom_site_fract_y
  _atom_site_fract_z
  _atom_site_occupancy
  _atom_site_charge
Cd  Cd1       1.0  0.00344  0.00344  0.75000  1.0000 0.9463572992
Cd  Cd2       1.0  0.99656  0.99656  0.25000  1.0000 0.9463572992
H   H1        1.0  0.63450  0.08370  0.62310  1.0000 0.1188041777
H   H2        1.0  0.08370  0.63450  0.87690  1.0000 0.1188041777
H   H3        1.0  0.36550  0.91630  0.37690  1.0000 0.1188041777
H   H4        1.0  0.91630  0.36550  0.12310  1.0000 0.1188041777
H   H5        1.0  0.85130  0.11370  0.48320  1.0000 0.1188041777
H   H6        1.0  0.11370  0.85130  0.01680  1.0000 0.1188041777
H   H7        1.0  0.14870  0.88630  0.51680  1.0000 0.1188041777
H   H8        1.0  0.88630  0.14870  0.98320  1.0000 0.1188041777
H   H9        1.0  0.93850  0.07770  0.42760  1.0000 0.1188041777
H   H10       1.0  0.07770  0.93850  0.07240  1.0000 0.1281291796
H   H11       1.0  0.06150  0.92230  0.57240  1.0000 0.1281291796
H   H12       1.0  0.92230  0.06150  0.92760  1.0000 0.1188041777
H   H13       1.0  0.49210  0.72230  0.33900  1.0000 0.1188041777
H   H14       1.0  0.72230  0.49210  0.16100  1.0000 0.1188041777
H   H15       1.0  0.50790  0.27770  0.66100  1.0000 0.1188041777
H   H16       1.0  0.27770  0.50790  0.83900  1.0000 0.1188041777
H   H17       1.0  0.40340  0.75620  0.39530  1.0000 0.1115020855
H   H18       1.0  0.75620  0.40340  0.10470  1.0000 0.1115020855
H   H19       1.0  0.59660  0.24380  0.60470  1.0000 0.1115020855
H   H20       1.0  0.24380  0.59660  0.89530  1.0000 0.1115020855
H   H21       1.0  0.17500  0.42420  0.58290  1.0000 0.252592702
H   H22       1.0  0.19980  0.39060  0.67420  1.0000 0.2640056429
H   H23       1.0  0.42100  0.65940  0.58410  1.0000 0.1188041777
H   H24       1.0  0.42850  0.52290  0.65140  1.0000 0.137622614
H   H25       1.0  0.44800  0.62760  0.68190  1.0000 0.137622614
H   H26       1.0  0.21500  0.59500  0.64870  1.0000 0.1281291796
H   H27       1.0  0.04900  0.45980  0.60520  1.0000 0.1281291796
H   H28       1.0  0.17130  0.61450  0.55030  1.0000 0.1188041777
H   H29       1.0  0.42420  0.17500  0.91710  1.0000 0.252592702
H   H30       1.0  0.39060  0.19980  0.82580  1.0000 0.2640056429
H   H31       1.0  0.65940  0.42100  0.91590  1.0000 0.1188041777
H   H32       1.0  0.52290  0.42850  0.84860  1.0000 0.137622614
H   H33       1.0  0.62760  0.44800  0.81810  1.0000 0.137622614
H   H34       1.0  0.59500  0.21500  0.85130  1.0000 0.1281291796
H   H35       1.0  0.45980  0.04900  0.89480  1.0000 0.1281291796
H   H36       1.0  0.61450  0.17130  0.94970  1.0000 0.1188041777
H   H37       1.0  0.82500  0.57580  0.41710  1.0000 0.252592702
H   H38       1.0  0.80020  0.60940  0.32580  1.0000 0.2640056429
H   H39       1.0  0.57900  0.34060  0.41590  1.0000 0.1188041777
H   H40       1.0  0.57150  0.47710  0.34860  1.0000 0.137622614
H   H41       1.0  0.55200  0.37240  0.31810  1.0000 0.137622614
H   H42       1.0  0.78500  0.40500  0.35130  1.0000 0.1281291796
H   H43       1.0  0.95100  0.54020  0.39480  1.0000 0.1281291796
H   H44       1.0  0.82870  0.38550  0.44970  1.0000 0.1188041777
H   H45       1.0  0.57580  0.82500  0.08290  1.0000 0.252592702
H   H46       1.0  0.60940  0.80020  0.17420  1.0000 0.2640056429
H   H47       1.0  0.34060  0.57900  0.08410  1.0000 0.1188041777
H   H48       1.0  0.47710  0.57150  0.15140  1.0000 0.137622614
H   H49       1.0  0.37240  0.55200  0.18190  1.0000 0.137622614
H   H50       1.0  0.40500  0.78500  0.14870  1.0000 0.1281291796
H   H51       1.0  0.54020  0.95100  0.10520  1.0000 0.1281291796
H   H52       1.0  0.38550  0.82870  0.05030  1.0000 0.1188041777
C   C1        1.0  0.77931  0.02689  0.61687  1.0000 0.5372981919
C   C2        1.0  0.02689  0.77931  0.88313  1.0000 0.5372981919
C   C3        1.0  0.22069  0.97311  0.38313  1.0000 0.5372981919
C   C4        1.0  0.97311  0.22069  0.11687  1.0000 0.5372981919
C   C5        1.0  0.78300  0.88480  0.33317  1.0000 0.5547039403
C   C6        1.0  0.88480  0.78300  0.16683  1.0000 0.5547039403
C   C7        1.0  0.21700  0.11520  0.66683  1.0000 0.5547039403
C   C8        1.0  0.11520  0.21700  0.83317  1.0000 0.5547039403
C   C9        1.0  0.57945  0.04935  0.57332  1.0000 -0.1716522382
C   C10       1.0  0.04935  0.57945  0.92668  1.0000 -0.1716522382
C   C11       1.0  0.42055  0.95065  0.42668  1.0000 -0.1716522382
C   C12       1.0  0.95065  0.42055  0.07332  1.0000 -0.1716522382
C   C13       1.0  0.63859  0.01881  0.55131  1.0000 -0.0405252831
C   C14       1.0  0.01881  0.63859  0.94869  1.0000 -0.0405252831
C   C15       1.0  0.36141  0.98119  0.44869  1.0000 -0.0405252831
C   C16       1.0  0.98119  0.36141  0.05131  1.0000 -0.0405252831
C   C17       1.0  0.55850  0.96890  0.47552  1.0000 0.0368801706
C   C18       1.0  0.96890  0.55850  0.02448  1.0000 0.0368801706
C   C19       1.0  0.44150  0.03110  0.52448  1.0000 0.0368801706
C   C20       1.0  0.03110  0.44150  0.97552  1.0000 0.0368801706
C   C21       1.0  0.61736  0.94004  0.44479  1.0000 0.070344594
C   C22       1.0  0.94004  0.61736  0.05521  1.0000 0.070344594
C   C23       1.0  0.38264  0.05996  0.55521  1.0000 0.070344594
C   C24       1.0  0.05996  0.38264  0.94479  1.0000 0.070344594
C   C25       1.0  0.77836  0.03524  0.45395  1.0000 -0.1313528003
C   C26       1.0  0.03524  0.77836  0.04605  1.0000 -0.1313528003
C   C27       1.0  0.22164  0.96476  0.54605  1.0000 -0.1313528003
C   C28       1.0  0.96476  0.22164  0.95395  1.0000 -0.1313528003
C   C29       1.0  0.83060  0.01420  0.42002  1.0000 -0.0846096979
C   C30       1.0  0.01420  0.83060  0.07998  1.0000 -0.0846096979
C   C31       1.0  0.16940  0.98580  0.57998  1.0000 -0.0850970032
C   C32       1.0  0.98580  0.16940  0.92002  1.0000 -0.0846096979
C   C33       1.0  0.72455  0.89965  0.37475  1.0000 -0.0161400138
C   C34       1.0  0.89965  0.72455  0.12525  1.0000 -0.0161400138
C   C35       1.0  0.27545  0.10035  0.62525  1.0000 -0.0161400138
C   C36       1.0  0.10035  0.27545  0.87475  1.0000 -0.0161400138
C   C37       1.0  0.56448  0.80212  0.36725  1.0000 -0.103476236
C   C38       1.0  0.80212  0.56448  0.13275  1.0000 -0.103476236
C   C39       1.0  0.43552  0.19788  0.63275  1.0000 -0.103476236
C   C40       1.0  0.19788  0.43552  0.86725  1.0000 -0.103476236
C   C41       1.0  0.51111  0.82209  0.40138  1.0000 -0.1475594001
C   C42       1.0  0.82209  0.51111  0.09862  1.0000 -0.1475594001
C   C43       1.0  0.48889  0.17791  0.59862  1.0000 -0.1475594001
C   C44       1.0  0.17791  0.48889  0.90138  1.0000 -0.1475594001
C   C45       1.0  0.39510  0.57930  0.63670  1.0000 -0.2846765326
C   C46       1.0  0.15910  0.54070  0.60570  1.0000 -0.2862739669
C   C47       1.0  0.57930  0.39510  0.86330  1.0000 -0.2846765326
C   C48       1.0  0.54070  0.15910  0.89430  1.0000 -0.2862739669
C   C49       1.0  0.60490  0.42070  0.36330  1.0000 -0.2846765326
C   C50       1.0  0.84090  0.45930  0.39430  1.0000 -0.2862739669
C   C51       1.0  0.42070  0.60490  0.13670  1.0000 -0.2846765326
C   C52       1.0  0.45930  0.84090  0.10570  1.0000 -0.2862739669
N   N1        1.0  0.22331  0.46849  0.62562  1.0000 -0.103476236
N   N2        1.0  0.46849  0.22331  0.87438  1.0000 -0.103476236
N   N3        1.0  0.77669  0.53151  0.37438  1.0000 -0.103476236
N   N4        1.0  0.53151  0.77669  0.12562  1.0000 -0.103476236
O   O1        1.0  0.91165  0.15795  0.62771  1.0000 -0.5783742772
O   O2        1.0  0.15795  0.91165  0.87229  1.0000 -0.5783742772
O   O3        1.0  0.08835  0.84205  0.37229  1.0000 -0.5783742772
O   O4        1.0  0.84205  0.08835  0.12771  1.0000 -0.5783742772
O   O5        1.0  0.75134  0.89706  0.65967  1.0000 -0.5106133329
O   O6        1.0  0.89706  0.75134  0.84033  1.0000 -0.5106133329
O   O7        1.0  0.24866  0.10294  0.34033  1.0000 -0.5106133329
O   O8        1.0  0.10294  0.24866  0.15967  1.0000 -0.5106133329
O   O9        1.0  0.92861  0.99039  0.33613  1.0000 -0.520929675
O   O10       1.0  0.99039  0.92861  0.16387  1.0000 -0.520929675
O   O11       1.0  0.07139  0.00961  0.66387  1.0000 -0.520929675
O   O12       1.0  0.00961  0.07139  0.83613  1.0000 -0.520929675
O   O13       1.0  0.68827  0.77533  0.29750  1.0000 -0.5697156148
O   O14       1.0  0.77533  0.68827  0.20250  1.0000 -0.5697156148
O   O15       1.0  0.31173  0.22467  0.70250  1.0000 -0.5697156148
O   O16       1.0  0.22467  0.31173  0.79750  1.0000 -0.5697156148
