# DDEC6 charges by PACMAN v1.1 (https://github.com/mtap-research/PACMAN-charge/)
data_2016[FeSm][nan]3[ION]1
_chemical_formula_sum              "Sm4 Fe2 H36 C16 S8 N4 O44"
_cell_length_a       11.2822
_cell_length_b       11.2822
_cell_length_c       12.66
_cell_angle_alpha    87.6929
_cell_angle_beta     92.3071
_cell_angle_gamma    86.7605

_symmetry_space_group_name_H-M    "P 1"
_symmetry_Int_Tables_number       1

loop_
  _symmetry_equiv_pos_as_xyz
  'x, y, z'

loop_
  _atom_site_type_symbol
  _atom_site_label
  _atom_site_symmetry_multiplicity
  _atom_site_fract_x
  _atom_site_fract_y
  _atom_site_fract_z
  _atom_site_occupancy
  _atom_site_charge
Sm  Sm1       1.0  0.68724  0.93238  0.08622  1.0000 2.0920208479
Sm  Sm2       1.0  0.93238  0.68724  0.41378  1.0000 2.0920208479
Sm  Sm3       1.0  0.31276  0.06762  0.91378  1.0000 2.0920208479
Sm  Sm4       1.0  0.06762  0.31276  0.58622  1.0000 2.0920208479
Fe  Fe1       1.0  0.94939  0.94939  0.25000  1.0000 1.1377211
Fe  Fe2       1.0  0.05061  0.05061  0.75000  1.0000 1.1377211
H   H1        1.0  0.93810  0.10070  0.00150  1.0000 0.1504689787
H   H2        1.0  0.10070  0.93810  0.49850  1.0000 0.1504689787
H   H3        1.0  0.06190  0.89930  0.99850  1.0000 0.1504689787
H   H4        1.0  0.89930  0.06190  0.50150  1.0000 0.1504689787
H   H5        1.0  0.82570  0.62450  0.78430  1.0000 0.1504689787
H   H6        1.0  0.87510  0.61630  0.90210  1.0000 0.1558162356
H   H7        1.0  0.85670  0.74030  0.84140  1.0000 0.1370418603
H   H8        1.0  0.18440  0.66040  0.80180  1.0000 0.1558162356
H   H9        1.0  0.11500  0.76580  0.85350  1.0000 0.1348745907
H   H10       1.0  0.13330  0.64190  0.91420  1.0000 0.1504689787
H   H11       1.0  0.01960  0.56720  0.78690  1.0000 0.2361126627
H   H12       1.0  0.00300  0.67940  0.73200  1.0000 0.2548916722
H   H13       1.0  0.62450  0.82570  0.71570  1.0000 0.1504689787
H   H14       1.0  0.61630  0.87510  0.59790  1.0000 0.1558162356
H   H15       1.0  0.74030  0.85670  0.65860  1.0000 0.1370418603
H   H16       1.0  0.66040  0.18440  0.69820  1.0000 0.1558162356
H   H17       1.0  0.76580  0.11500  0.64650  1.0000 0.1348745907
H   H18       1.0  0.64190  0.13330  0.58580  1.0000 0.1504689787
H   H19       1.0  0.56720  0.01960  0.71310  1.0000 0.2361126627
H   H20       1.0  0.67940  0.00300  0.76800  1.0000 0.2554566646
H   H21       1.0  0.17430  0.37550  0.21570  1.0000 0.1504689787
H   H22       1.0  0.12490  0.38370  0.09790  1.0000 0.1558162356
H   H23       1.0  0.14330  0.25970  0.15860  1.0000 0.1370418603
H   H24       1.0  0.81560  0.33960  0.19820  1.0000 0.1558162356
H   H25       1.0  0.88500  0.23420  0.14650  1.0000 0.1348745907
H   H26       1.0  0.86670  0.35810  0.08580  1.0000 0.1504689787
H   H27       1.0  0.98040  0.43280  0.21310  1.0000 0.2361126627
H   H28       1.0  0.99700  0.32060  0.26800  1.0000 0.2554566646
H   H29       1.0  0.37550  0.17430  0.28430  1.0000 0.1504689787
H   H30       1.0  0.38370  0.12490  0.40210  1.0000 0.1558162356
H   H31       1.0  0.25970  0.14330  0.34140  1.0000 0.1370418603
H   H32       1.0  0.33960  0.81560  0.30180  1.0000 0.1558162356
H   H33       1.0  0.23420  0.88500  0.35350  1.0000 0.1348745907
H   H34       1.0  0.35810  0.86670  0.41420  1.0000 0.1504689787
H   H35       1.0  0.43280  0.98040  0.28690  1.0000 0.2361126627
H   H36       1.0  0.32060  0.99700  0.23200  1.0000 0.2548916722
C   C1        1.0  0.86370  0.99090  0.90310  1.0000 0.6041810746
C   C2        1.0  0.99090  0.86370  0.59690  1.0000 0.6041810746
C   C3        1.0  0.13630  0.00910  0.09690  1.0000 0.6041810746
C   C4        1.0  0.00910  0.13630  0.40310  1.0000 0.6041810746
C   C5        1.0  0.94010  0.01370  0.00400  1.0000 -0.0010869808
C   C6        1.0  0.01370  0.94010  0.49600  1.0000 -0.0010869808
C   C7        1.0  0.05990  0.98630  0.99600  1.0000 -0.0010869808
C   C8        1.0  0.98630  0.05990  0.50400  1.0000 -0.0010869808
C   C9        1.0  0.87900  0.65760  0.83470  1.0000 -0.2559623932
C   C10       1.0  0.11980  0.68140  0.84600  1.0000 -0.2426306595
C   C11       1.0  0.65760  0.87900  0.66530  1.0000 -0.2559623932
C   C12       1.0  0.68140  0.11980  0.65400  1.0000 -0.2426306595
C   C13       1.0  0.12100  0.34240  0.16530  1.0000 -0.2559623932
C   C14       1.0  0.88020  0.31860  0.15400  1.0000 -0.2426306595
C   C15       1.0  0.34240  0.12100  0.33470  1.0000 -0.2559623932
C   C16       1.0  0.31860  0.88020  0.34600  1.0000 -0.2426306595
S   S1        1.0  0.67267  0.88911  0.33223  1.0000 1.4411334182
S   S2        1.0  0.88911  0.67267  0.16777  1.0000 1.4411334182
S   S3        1.0  0.32733  0.11089  0.66777  1.0000 1.4411334182
S   S4        1.0  0.11089  0.32733  0.83223  1.0000 1.4411334182
S   S5        1.0  0.46738  0.83154  0.92542  1.0000 1.4262395883
S   S6        1.0  0.83154  0.46738  0.57458  1.0000 1.4262395883
S   S7        1.0  0.53262  0.16846  0.07458  1.0000 1.4262395883
S   S8        1.0  0.16846  0.53262  0.42542  1.0000 1.4262395883
N   N1        1.0  0.00690  0.64450  0.79640  1.0000 -0.0967625817
N   N2        1.0  0.64450  0.00690  0.70360  1.0000 -0.0967625817
N   N3        1.0  0.99310  0.35550  0.20360  1.0000 -0.0967625817
N   N4        1.0  0.35550  0.99310  0.29640  1.0000 -0.0967625817
O   O1        1.0  0.88330  0.99090  0.09850  1.0000 -0.6785956686
O   O2        1.0  0.99090  0.88330  0.40150  1.0000 -0.6785956686
O   O3        1.0  0.11670  0.00910  0.90150  1.0000 -0.6785956686
O   O4        1.0  0.00910  0.11670  0.59850  1.0000 -0.6785956686
O   O5        1.0  0.75490  0.96190  0.27060  1.0000 -0.7638577436
O   O6        1.0  0.96190  0.75490  0.22940  1.0000 -0.7638577436
O   O7        1.0  0.24510  0.03810  0.72940  1.0000 -0.7638577436
O   O8        1.0  0.03810  0.24510  0.77060  1.0000 -0.7638577436
O   O9        1.0  0.77120  0.94340  0.92100  1.0000 -0.5666117087
O   O10       1.0  0.94340  0.77120  0.57900  1.0000 -0.5666117087
O   O11       1.0  0.22880  0.05660  0.07900  1.0000 -0.5648017143
O   O12       1.0  0.05660  0.22880  0.42100  1.0000 -0.5666117087
O   O13       1.0  0.74050  0.79090  0.39030  1.0000 -0.7127845501
O   O14       1.0  0.79090  0.74050  0.10970  1.0000 -0.7127845501
O   O15       1.0  0.25950  0.20910  0.60970  1.0000 -0.7127845501
O   O16       1.0  0.20910  0.25950  0.89030  1.0000 -0.7127845501
O   O17       1.0  0.54980  0.79900  0.01400  1.0000 -0.6707794582
O   O18       1.0  0.79900  0.54980  0.48600  1.0000 -0.6707794582
O   O19       1.0  0.45020  0.20100  0.98600  1.0000 -0.6707794582
O   O20       1.0  0.20100  0.45020  0.51400  1.0000 -0.6707794582
O   O21       1.0  0.59410  0.84130  0.25010  1.0000 -0.6707794582
O   O22       1.0  0.84130  0.59410  0.24990  1.0000 -0.6707794582
O   O23       1.0  0.40590  0.15870  0.74990  1.0000 -0.6707794582
O   O24       1.0  0.15870  0.40590  0.75010  1.0000 -0.6707794582
O   O25       1.0  0.88470  0.03490  0.81400  1.0000 -0.4903982868
O   O26       1.0  0.03490  0.88470  0.68600  1.0000 -0.4903982868
O   O27       1.0  0.11530  0.96510  0.18600  1.0000 -0.4903982868
O   O28       1.0  0.96510  0.11530  0.31400  1.0000 -0.4903982868
O   O29       1.0  0.60540  0.96020  0.40190  1.0000 -0.5273867612
O   O30       1.0  0.96020  0.60540  0.09810  1.0000 -0.5273867612
O   O31       1.0  0.39460  0.03980  0.59810  1.0000 -0.5273867612
O   O32       1.0  0.03980  0.39460  0.90190  1.0000 -0.5273867612
O   O33       1.0  0.34600  0.85280  0.95710  1.0000 -0.688330329
O   O34       1.0  0.85280  0.34600  0.54290  1.0000 -0.688330329
O   O35       1.0  0.65400  0.14720  0.04290  1.0000 -0.688330329
O   O36       1.0  0.14720  0.65400  0.45710  1.0000 -0.688330329
O   O37       1.0  0.47960  0.74220  0.84720  1.0000 -0.5111741041
O   O38       1.0  0.74220  0.47960  0.65280  1.0000 -0.5111741041
O   O39       1.0  0.52040  0.25780  0.15280  1.0000 -0.5111741041
O   O40       1.0  0.25780  0.52040  0.34720  1.0000 -0.5111741041
O   O41       1.0  0.49940  0.94960  0.88210  1.0000 -0.7819899833
O   O42       1.0  0.94960  0.49940  0.61790  1.0000 -0.7819899833
O   O43       1.0  0.50060  0.05040  0.11790  1.0000 -0.7819899833
O   O44       1.0  0.05040  0.50060  0.38210  1.0000 -0.7819899833
