# DDEC6 charges by PACMAN v1.1 (https://github.com/mtap-research/PACMAN-charge/)
data_2017[Ag][srs]3[ION]2
_chemical_formula_sum              "Ag6 H108 C144 N40 Cl18 O24"
_cell_length_a       18.428
_cell_length_b       18.428
_cell_length_c       18.428
_cell_angle_alpha    109.471
_cell_angle_beta     109.471
_cell_angle_gamma    109.471

_symmetry_space_group_name_H-M    "P 1"
_symmetry_Int_Tables_number       1

loop_
  _symmetry_equiv_pos_as_xyz
  'x, y, z'

loop_
  _atom_site_type_symbol
  _atom_site_label
  _atom_site_symmetry_multiplicity
  _atom_site_fract_x
  _atom_site_fract_y
  _atom_site_fract_z
  _atom_site_occupancy
  _atom_site_charge
Ag  Ag1       1.0  0.25000  0.71189  0.46189  1.0000 0.3092843118
Ag  Ag2       1.0  0.75000  0.78811  0.03811  1.0000 0.3092843118
Ag  Ag3       1.0  0.78811  0.03811  0.75000  1.0000 0.3092843118
Ag  Ag4       1.0  0.71189  0.46189  0.25000  1.0000 0.3092843118
Ag  Ag5       1.0  0.46189  0.25000  0.71189  1.0000 0.3092843118
Ag  Ag6       1.0  0.03811  0.75000  0.78811  1.0000 0.3092843118
H   H1        1.0  0.06160  0.60290  0.14890  1.0000 0.128478117
H   H2        1.0  0.10990  0.60240  0.28250  1.0000 0.1114610108
H   H3        1.0  0.13560  0.39220  0.17140  1.0000 0.128478117
H   H4        1.0  0.09350  0.39530  0.04140  1.0000 0.1235566708
H   H5        1.0  0.15250  0.43750  0.31680  1.0000 0.1114610108
H   H6        1.0  0.21270  0.50800  0.59690  1.0000 0.1540534816
H   H7        1.0  0.28510  0.61870  0.74360  1.0000 0.1114610108
H   H8        1.0  0.35330  0.76620  0.78270  1.0000 0.128478117
H   H9        1.0  0.18040  0.47730  0.45030  1.0000 0.2813826523
H   H10       1.0  0.95400  0.91270  0.35110  1.0000 0.128478117
H   H11       1.0  0.81990  0.82740  0.21750  1.0000 0.1114610108
H   H12       1.0  0.72080  0.96420  0.32860  1.0000 0.128478117
H   H13       1.0  0.85390  0.05210  0.45860  1.0000 0.1235566708
H   H14       1.0  0.62070  0.83570  0.18320  1.0000 0.1114610108
H   H15       1.0  0.41110  0.61580  0.90310  1.0000 0.1540534816
H   H16       1.0  0.37510  0.54150  0.75640  1.0000 0.1114610108
H   H17       1.0  0.48350  0.57060  0.71730  1.0000 0.128478117
H   H18       1.0  0.52700  0.73010  0.04970  1.0000 0.2813826523
H   H19       1.0  0.43840  0.58730  0.54130  1.0000 0.128478117
H   H20       1.0  0.39010  0.67260  0.49250  1.0000 0.1114610108
H   H21       1.0  0.36440  0.53580  0.25660  1.0000 0.128478117
H   H22       1.0  0.40650  0.44790  0.30180  1.0000 0.1235566708
H   H23       1.0  0.34750  0.66430  0.28500  1.0000 0.1114610108
H   H24       1.0  0.28730  0.88420  0.29530  1.0000 0.1540534816
H   H25       1.0  0.21490  0.95850  0.33360  1.0000 0.1114610108
H   H26       1.0  0.14670  0.92940  0.41290  1.0000 0.128478117
H   H27       1.0  0.31960  0.76990  0.29690  1.0000 0.2813826523
H   H28       1.0  0.54600  0.89710  0.95870  1.0000 0.128478117
H   H29       1.0  0.68010  0.89760  0.00750  1.0000 0.1114610108
H   H30       1.0  0.77920  0.10780  0.24340  1.0000 0.128478117
H   H31       1.0  0.64610  0.10470  0.19820  1.0000 0.1235566708
H   H32       1.0  0.87930  0.06250  0.21500  1.0000 0.1114610108
H   H33       1.0  0.08890  0.99200  0.20470  1.0000 0.1540534816
H   H34       1.0  0.12490  0.88130  0.16640  1.0000 0.1114610108
H   H35       1.0  0.01650  0.73380  0.08710  1.0000 0.128478117
H   H36       1.0  0.97300  0.02270  0.20310  1.0000 0.2813826523
H   H37       1.0  0.89710  0.95870  0.54600  1.0000 0.128478117
H   H38       1.0  0.89760  0.00750  0.68010  1.0000 0.1114610108
H   H39       1.0  0.10780  0.24340  0.77920  1.0000 0.128478117
H   H40       1.0  0.10470  0.19820  0.64610  1.0000 0.1235566708
H   H41       1.0  0.06250  0.21500  0.87930  1.0000 0.1114610108
H   H42       1.0  0.99200  0.20470  0.08890  1.0000 0.1540534816
H   H43       1.0  0.88130  0.16640  0.12490  1.0000 0.1114610108
H   H44       1.0  0.73380  0.08710  0.01650  1.0000 0.128478117
H   H45       1.0  0.02270  0.20310  0.97300  1.0000 0.2813826523
H   H46       1.0  0.58730  0.54130  0.43840  1.0000 0.128478117
H   H47       1.0  0.67260  0.49250  0.39010  1.0000 0.1114610108
H   H48       1.0  0.53580  0.25660  0.36440  1.0000 0.128478117
H   H49       1.0  0.44790  0.30180  0.40650  1.0000 0.1235566708
H   H50       1.0  0.66430  0.28500  0.34750  1.0000 0.1114610108
H   H51       1.0  0.88420  0.29530  0.28730  1.0000 0.1540534816
H   H52       1.0  0.95850  0.33360  0.21490  1.0000 0.1114610108
H   H53       1.0  0.92940  0.41290  0.14670  1.0000 0.128478117
H   H54       1.0  0.76990  0.29690  0.31960  1.0000 0.2813826523
H   H55       1.0  0.91270  0.35110  0.95400  1.0000 0.128478117
H   H56       1.0  0.82740  0.21750  0.81990  1.0000 0.1114610108
H   H57       1.0  0.96420  0.32860  0.72080  1.0000 0.128478117
H   H58       1.0  0.05210  0.45860  0.85390  1.0000 0.1235566708
H   H59       1.0  0.83570  0.18320  0.62070  1.0000 0.1114610108
H   H60       1.0  0.61580  0.90310  0.41110  1.0000 0.1540534816
H   H61       1.0  0.54150  0.75640  0.37510  1.0000 0.1114610108
H   H62       1.0  0.57060  0.71730  0.48350  1.0000 0.128478117
H   H63       1.0  0.73010  0.04970  0.52700  1.0000 0.2813826523
H   H64       1.0  0.60290  0.14890  0.06160  1.0000 0.128478117
H   H65       1.0  0.60240  0.28250  0.10990  1.0000 0.1114610108
H   H66       1.0  0.39220  0.17140  0.13560  1.0000 0.128478117
H   H67       1.0  0.39530  0.04140  0.09350  1.0000 0.1235566708
H   H68       1.0  0.43750  0.31680  0.15250  1.0000 0.1114610108
H   H69       1.0  0.50800  0.59690  0.21270  1.0000 0.1540534816
H   H70       1.0  0.61870  0.74360  0.28510  1.0000 0.1114610108
H   H71       1.0  0.76620  0.78270  0.35330  1.0000 0.128478117
H   H72       1.0  0.47730  0.45030  0.18040  1.0000 0.2813826523
H   H73       1.0  0.54130  0.43840  0.58730  1.0000 0.128478117
H   H74       1.0  0.49250  0.39010  0.67260  1.0000 0.1114610108
H   H75       1.0  0.25660  0.36440  0.53580  1.0000 0.128478117
H   H76       1.0  0.30180  0.40650  0.44790  1.0000 0.1235566708
H   H77       1.0  0.28500  0.34750  0.66430  1.0000 0.1114610108
H   H78       1.0  0.29530  0.28730  0.88420  1.0000 0.1540534816
H   H79       1.0  0.33360  0.21490  0.95850  1.0000 0.1114610108
H   H80       1.0  0.41290  0.14670  0.92940  1.0000 0.128478117
H   H81       1.0  0.29690  0.31960  0.76990  1.0000 0.2813826523
H   H82       1.0  0.95870  0.54600  0.89710  1.0000 0.128478117
H   H83       1.0  0.00750  0.68010  0.89760  1.0000 0.1114610108
H   H84       1.0  0.24340  0.77920  0.10780  1.0000 0.128478117
H   H85       1.0  0.19820  0.64610  0.10470  1.0000 0.1235566708
H   H86       1.0  0.21500  0.87930  0.06250  1.0000 0.1114610108
H   H87       1.0  0.20470  0.08890  0.99200  1.0000 0.1540534816
H   H88       1.0  0.16640  0.12490  0.88130  1.0000 0.1114610108
H   H89       1.0  0.08710  0.01650  0.73380  1.0000 0.128478117
H   H90       1.0  0.20310  0.97300  0.02270  1.0000 0.2813826523
H   H91       1.0  0.14890  0.06160  0.60290  1.0000 0.128478117
H   H92       1.0  0.28250  0.10990  0.60240  1.0000 0.1114610108
H   H93       1.0  0.17140  0.13560  0.39220  1.0000 0.128478117
H   H94       1.0  0.04140  0.09350  0.39530  1.0000 0.1235566708
H   H95       1.0  0.31680  0.15250  0.43750  1.0000 0.1114610108
H   H96       1.0  0.59690  0.21270  0.50800  1.0000 0.1540534816
H   H97       1.0  0.74360  0.28510  0.61870  1.0000 0.1114610108
H   H98       1.0  0.78270  0.35330  0.76620  1.0000 0.128478117
H   H99       1.0  0.45030  0.18040  0.47730  1.0000 0.2813826523
H   H100      1.0  0.35110  0.95400  0.91270  1.0000 0.128478117
H   H101      1.0  0.21750  0.81990  0.82740  1.0000 0.1114610108
H   H102      1.0  0.32860  0.72080  0.96420  1.0000 0.128478117
H   H103      1.0  0.45860  0.85390  0.05210  1.0000 0.1235566708
H   H104      1.0  0.18320  0.62070  0.83570  1.0000 0.1114610108
H   H105      1.0  0.90310  0.41110  0.61580  1.0000 0.1540534816
H   H106      1.0  0.75640  0.37510  0.54150  1.0000 0.1114610108
H   H107      1.0  0.71730  0.48350  0.57060  1.0000 0.128478117
H   H108      1.0  0.04970  0.52700  0.73010  1.0000 0.2813826523
C   C1        1.0  0.07290  0.49920  0.08150  1.0000 0.1714570669
C   C2        1.0  0.07750  0.56050  0.15360  1.0000 -0.191609088
C   C3        1.0  0.10540  0.55960  0.23320  1.0000 -0.1364928425
C   C4        1.0  0.12670  0.49660  0.24030  1.0000 0.0597854726
C   C5        1.0  0.12130  0.43570  0.16740  1.0000 -0.1190727443
C   C6        1.0  0.09570  0.43700  0.08970  1.0000 -0.1776150058
C   C7        1.0  0.15380  0.49030  0.32110  1.0000 -0.0061574954
C   C8        1.0  0.23630  0.59460  0.54950  1.0000 0.3398216091
C   C9        1.0  0.23930  0.56830  0.61300  1.0000 -0.2380200304
C   C10       1.0  0.28270  0.63410  0.69940  1.0000 -0.0046730081
C   C11       1.0  0.32220  0.72100  0.72300  1.0000 -0.2326881317
C   C12       1.0  0.31490  0.74020  0.65690  1.0000 0.2731794042
C   C13       1.0  0.91770  0.99140  0.41850  1.0000 0.1714570669
C   C14       1.0  0.90690  0.92390  0.34640  1.0000 -0.191609088
C   C15       1.0  0.82640  0.87220  0.26680  1.0000 -0.1364928425
C   C16       1.0  0.75630  0.88640  0.25970  1.0000 0.0597854726
C   C17       1.0  0.76830  0.95390  0.33260  1.0000 -0.1190727443
C   C18       1.0  0.84730  0.00600  0.41030  1.0000 -0.1776150058
C   C19       1.0  0.66920  0.83270  0.17890  1.0000 -0.0061574954
C   C20       1.0  0.54510  0.68680  0.95050  1.0000 0.3398216091
C   C21       1.0  0.45530  0.62630  0.88700  1.0000 -0.2380200304
C   C22       1.0  0.43470  0.58330  0.80060  1.0000 -0.0046730081
C   C23       1.0  0.49800  0.59920  0.77700  1.0000 -0.2326881317
C   C24       1.0  0.58330  0.65800  0.84310  1.0000 0.2731794042
C   C25       1.0  0.42710  0.50860  0.42630  1.0000 0.1714570669
C   C26       1.0  0.42250  0.57610  0.48300  1.0000 -0.191609088
C   C27       1.0  0.39460  0.62780  0.45420  1.0000 -0.1364928425
C   C28       1.0  0.37330  0.61360  0.36990  1.0000 0.0597854726
C   C29       1.0  0.37870  0.54610  0.31440  1.0000 -0.1190727443
C   C30       1.0  0.40430  0.49400  0.34130  1.0000 -0.1776150058
C   C31       1.0  0.34620  0.66730  0.33650  1.0000 -0.0061574954
C   C32       1.0  0.26370  0.81320  0.35830  1.0000 0.3398216091
C   C33       1.0  0.26070  0.87370  0.32900  1.0000 -0.2380200304
C   C34       1.0  0.21730  0.91670  0.35140  1.0000 -0.0046730081
C   C35       1.0  0.17780  0.90080  0.39880  1.0000 -0.2326881317
C   C36       1.0  0.18510  0.84200  0.42530  1.0000 0.2731794042
C   C37       1.0  0.58230  0.00080  0.07370  1.0000 0.1714570669
C   C38       1.0  0.59310  0.93950  0.01700  1.0000 -0.191609088
C   C39       1.0  0.67360  0.94040  0.04580  1.0000 -0.1364928425
C   C40       1.0  0.74370  0.00340  0.13010  1.0000 0.0597854726
C   C41       1.0  0.73170  0.06430  0.18560  1.0000 -0.1190727443
C   C42       1.0  0.65270  0.06300  0.15870  1.0000 -0.1776150058
C   C43       1.0  0.83080  0.00970  0.16350  1.0000 -0.0061574954
C   C44       1.0  0.95490  0.90540  0.14170  1.0000 0.3398216091
C   C45       1.0  0.04470  0.93170  0.17100  1.0000 -0.2380200304
C   C46       1.0  0.06530  0.86590  0.14860  1.0000 -0.0046730081
C   C47       1.0  0.00200  0.77900  0.10120  1.0000 -0.2326881317
C   C48       1.0  0.91670  0.75980  0.07470  1.0000 0.2731794042
C   C49       1.0  0.00080  0.07370  0.58230  1.0000 0.1714570669
C   C50       1.0  0.93950  0.01700  0.59310  1.0000 -0.191609088
C   C51       1.0  0.94040  0.04580  0.67360  1.0000 -0.1364928425
C   C52       1.0  0.00340  0.13010  0.74370  1.0000 0.0597854726
C   C53       1.0  0.06430  0.18560  0.73170  1.0000 -0.1190727443
C   C54       1.0  0.06300  0.15870  0.65270  1.0000 -0.1776150058
C   C55       1.0  0.00970  0.16350  0.83080  1.0000 -0.0061574954
C   C56       1.0  0.90540  0.14170  0.95490  1.0000 0.3398216091
C   C57       1.0  0.93170  0.17100  0.04470  1.0000 -0.2380200304
C   C58       1.0  0.86590  0.14860  0.06530  1.0000 -0.0046730081
C   C59       1.0  0.77900  0.10120  0.00200  1.0000 -0.2326881317
C   C60       1.0  0.75980  0.07470  0.91670  1.0000 0.2731794042
C   C61       1.0  0.50860  0.42630  0.42710  1.0000 0.1714570669
C   C62       1.0  0.57610  0.48300  0.42250  1.0000 -0.191609088
C   C63       1.0  0.62780  0.45420  0.39460  1.0000 -0.1364928425
C   C64       1.0  0.61360  0.36990  0.37330  1.0000 0.0597854726
C   C65       1.0  0.54610  0.31440  0.37870  1.0000 -0.1190727443
C   C66       1.0  0.49400  0.34130  0.40430  1.0000 -0.1776150058
C   C67       1.0  0.66730  0.33650  0.34620  1.0000 -0.0061574954
C   C68       1.0  0.81320  0.35830  0.26370  1.0000 0.3398216091
C   C69       1.0  0.87370  0.32900  0.26070  1.0000 -0.2380200304
C   C70       1.0  0.91670  0.35140  0.21730  1.0000 -0.0046730081
C   C71       1.0  0.90080  0.39880  0.17780  1.0000 -0.2326881317
C   C72       1.0  0.84200  0.42530  0.18510  1.0000 0.2731794042
C   C73       1.0  0.99140  0.41850  0.91770  1.0000 0.1714570669
C   C74       1.0  0.92390  0.34640  0.90690  1.0000 -0.191609088
C   C75       1.0  0.87220  0.26680  0.82640  1.0000 -0.1364928425
C   C76       1.0  0.88640  0.25970  0.75630  1.0000 0.0597854726
C   C77       1.0  0.95390  0.33260  0.76830  1.0000 -0.1190727443
C   C78       1.0  0.00600  0.41030  0.84730  1.0000 -0.1776150058
C   C79       1.0  0.83270  0.17890  0.66920  1.0000 -0.0061574954
C   C80       1.0  0.68680  0.95050  0.54510  1.0000 0.3398216091
C   C81       1.0  0.62630  0.88700  0.45530  1.0000 -0.2380200304
C   C82       1.0  0.58330  0.80060  0.43470  1.0000 -0.0046730081
C   C83       1.0  0.59920  0.77700  0.49800  1.0000 -0.2326881317
C   C84       1.0  0.65800  0.84310  0.58330  1.0000 0.2731794042
C   C85       1.0  0.49920  0.08150  0.07290  1.0000 0.1714570669
C   C86       1.0  0.56050  0.15360  0.07750  1.0000 -0.191609088
C   C87       1.0  0.55960  0.23320  0.10540  1.0000 -0.1364928425
C   C88       1.0  0.49660  0.24030  0.12670  1.0000 0.0597854726
C   C89       1.0  0.43570  0.16740  0.12130  1.0000 -0.1190727443
C   C90       1.0  0.43700  0.08970  0.09570  1.0000 -0.1776150058
C   C91       1.0  0.49030  0.32110  0.15380  1.0000 -0.0061574954
C   C92       1.0  0.59460  0.54950  0.23630  1.0000 0.3398216091
C   C93       1.0  0.56830  0.61300  0.23930  1.0000 -0.2380200304
C   C94       1.0  0.63410  0.69940  0.28270  1.0000 -0.0046730081
C   C95       1.0  0.72100  0.72300  0.32220  1.0000 -0.2326881317
C   C96       1.0  0.74020  0.65690  0.31490  1.0000 0.2731794042
C   C97       1.0  0.42630  0.42710  0.50860  1.0000 0.1714570669
C   C98       1.0  0.48300  0.42250  0.57610  1.0000 -0.191609088
C   C99       1.0  0.45420  0.39460  0.62780  1.0000 -0.1364928425
C   C100      1.0  0.36990  0.37330  0.61360  1.0000 0.0597854726
C   C101      1.0  0.31440  0.37870  0.54610  1.0000 -0.1190727443
C   C102      1.0  0.34130  0.40430  0.49400  1.0000 -0.1776150058
C   C103      1.0  0.33650  0.34620  0.66730  1.0000 -0.0061574954
C   C104      1.0  0.35830  0.26370  0.81320  1.0000 0.3398216091
C   C105      1.0  0.32900  0.26070  0.87370  1.0000 -0.2380200304
C   C106      1.0  0.35140  0.21730  0.91670  1.0000 -0.0046730081
C   C107      1.0  0.39880  0.17780  0.90080  1.0000 -0.2326881317
C   C108      1.0  0.42530  0.18510  0.84200  1.0000 0.2731794042
C   C109      1.0  0.07370  0.58230  0.00080  1.0000 0.1714570669
C   C110      1.0  0.01700  0.59310  0.93950  1.0000 -0.191609088
C   C111      1.0  0.04580  0.67360  0.94040  1.0000 -0.1364928425
C   C112      1.0  0.13010  0.74370  0.00340  1.0000 0.0597854726
C   C113      1.0  0.18560  0.73170  0.06430  1.0000 -0.1190727443
C   C114      1.0  0.15870  0.65270  0.06300  1.0000 -0.1776150058
C   C115      1.0  0.16350  0.83080  0.00970  1.0000 -0.0061574954
C   C116      1.0  0.14170  0.95490  0.90540  1.0000 0.3398216091
C   C117      1.0  0.17100  0.04470  0.93170  1.0000 -0.2380200304
C   C118      1.0  0.14860  0.06530  0.86590  1.0000 -0.0046730081
C   C119      1.0  0.10120  0.00200  0.77900  1.0000 -0.2326881317
C   C120      1.0  0.07470  0.91670  0.75980  1.0000 0.2731794042
C   C121      1.0  0.08150  0.07290  0.49920  1.0000 0.1714570669
C   C122      1.0  0.15360  0.07750  0.56050  1.0000 -0.191609088
C   C123      1.0  0.23320  0.10540  0.55960  1.0000 -0.1364928425
C   C124      1.0  0.24030  0.12670  0.49660  1.0000 0.0597854726
C   C125      1.0  0.16740  0.12130  0.43570  1.0000 -0.1190727443
C   C126      1.0  0.08970  0.09570  0.43700  1.0000 -0.1776150058
C   C127      1.0  0.32110  0.15380  0.49030  1.0000 -0.0061574954
C   C128      1.0  0.54950  0.23630  0.59460  1.0000 0.3398216091
C   C129      1.0  0.61300  0.23930  0.56830  1.0000 -0.2380200304
C   C130      1.0  0.69940  0.28270  0.63410  1.0000 -0.0046730081
C   C131      1.0  0.72300  0.32220  0.72100  1.0000 -0.2326881317
C   C132      1.0  0.65690  0.31490  0.74020  1.0000 0.2731794042
C   C133      1.0  0.41850  0.91770  0.99140  1.0000 0.1714570669
C   C134      1.0  0.34640  0.90690  0.92390  1.0000 -0.191609088
C   C135      1.0  0.26680  0.82640  0.87220  1.0000 -0.1364928425
C   C136      1.0  0.25970  0.75630  0.88640  1.0000 0.0597854726
C   C137      1.0  0.33260  0.76830  0.95390  1.0000 -0.1190727443
C   C138      1.0  0.41030  0.84730  0.00600  1.0000 -0.1776150058
C   C139      1.0  0.17890  0.66920  0.83270  1.0000 -0.0061574954
C   C140      1.0  0.95050  0.54510  0.68680  1.0000 0.3398216091
C   C141      1.0  0.88700  0.45530  0.62630  1.0000 -0.2380200304
C   C142      1.0  0.80060  0.43470  0.58330  1.0000 -0.0046730081
C   C143      1.0  0.77700  0.49800  0.59920  1.0000 -0.2326881317
C   C144      1.0  0.84310  0.58330  0.65800  1.0000 0.2731794042
N   N1        1.0  0.17866  0.55165  0.39625  1.0000 -0.1128513688
N   N2        1.0  0.19590  0.53200  0.46350  1.0000 -0.191609088
N   N3        1.0  0.27350  0.68050  0.57160  1.0000 -0.3330788044
N   N4        1.0  0.65540  0.78241  0.10375  1.0000 -0.1128513688
N   N5        1.0  0.56850  0.73240  0.03650  1.0000 -0.191609088
N   N6        1.0  0.60890  0.70190  0.92840  1.0000 -0.3330788044
N   N7        1.0  0.32134  0.71759  0.37299  1.0000 -0.1128513688
N   N8        1.0  0.30410  0.76760  0.33610  1.0000 -0.191609088
N   N9        1.0  0.22650  0.79810  0.40700  1.0000 -0.3330788044
N   N10       1.0  0.84460  0.94835  0.12701  1.0000 -0.1128513688
N   N11       1.0  0.93150  0.96800  0.16390  1.0000 -0.191609088
N   N12       1.0  0.89110  0.81950  0.09300  1.0000 -0.3330788044
N   N13       1.0  0.94835  0.12701  0.84460  1.0000 -0.1128513688
N   N14       1.0  0.96800  0.16390  0.93150  1.0000 -0.191609088
N   N15       1.0  0.81950  0.09300  0.89110  1.0000 -0.3330788044
N   N16       1.0  0.71759  0.37299  0.32134  1.0000 -0.1128513688
N   N17       1.0  0.76760  0.33610  0.30410  1.0000 -0.191609088
N   N18       1.0  0.79810  0.40700  0.22650  1.0000 -0.3330788044
N   N19       1.0  0.78241  0.10375  0.65540  1.0000 -0.1128513688
N   N20       1.0  0.73240  0.03650  0.56850  1.0000 -0.191609088
N   N21       1.0  0.70190  0.92840  0.60890  1.0000 -0.3330788044
N   N22       1.0  0.55165  0.39625  0.17866  1.0000 -0.1128513688
N   N23       1.0  0.53200  0.46350  0.19590  1.0000 -0.191609088
N   N24       1.0  0.68050  0.57160  0.27350  1.0000 -0.3330788044
N   N25       1.0  0.37299  0.32134  0.71759  1.0000 -0.1128513688
N   N26       1.0  0.33610  0.30410  0.76760  1.0000 -0.191609088
N   N27       1.0  0.40700  0.22650  0.79810  1.0000 -0.3330788044
N   N28       1.0  0.12701  0.84460  0.94835  1.0000 -0.1128513688
N   N29       1.0  0.16390  0.93150  0.96800  1.0000 -0.191609088
N   N30       1.0  0.09300  0.89110  0.81950  1.0000 -0.3330788044
N   N31       1.0  0.39625  0.17866  0.55165  1.0000 -0.1128513688
N   N32       1.0  0.46350  0.19590  0.53200  1.0000 -0.191609088
N   N33       1.0  0.57160  0.27350  0.68050  1.0000 -0.3330788044
N   N34       1.0  0.10375  0.65540  0.78241  1.0000 -0.1128513688
N   N35       1.0  0.03650  0.56850  0.73240  1.0000 -0.191609088
N   N36       1.0  0.92840  0.60890  0.70190  1.0000 -0.3330788044
N   N37       1.0  0.04380  0.50000  0.00000  1.0000 -0.1711083628
N   N38       1.0  0.00000  0.04380  0.50000  1.0000 -0.1711083628
N   N39       1.0  0.45620  0.45620  0.45620  1.0000 -0.1711083628
N   N40       1.0  0.50000  0.00000  0.04380  1.0000 -0.1711083628
Cl  Cl1       1.0  0.36004  0.84915  0.68021  1.0000 -0.1128513688
Cl  Cl2       1.0  0.66894  0.67983  0.81979  1.0000 -0.1128513688
Cl  Cl3       1.0  0.13996  0.82017  0.48911  1.0000 -0.1128513688
Cl  Cl4       1.0  0.83106  0.65085  0.01089  1.0000 -0.1128513688
Cl  Cl5       1.0  0.65085  0.01089  0.83106  1.0000 -0.1128513688
Cl  Cl6       1.0  0.82017  0.48911  0.13996  1.0000 -0.1128513688
Cl  Cl7       1.0  0.67983  0.81979  0.66894  1.0000 -0.1128513688
Cl  Cl8       1.0  0.84915  0.68021  0.36004  1.0000 -0.1128513688
Cl  Cl9       1.0  0.48911  0.13996  0.82017  1.0000 -0.1128513688
Cl  Cl10      1.0  0.01089  0.83106  0.65085  1.0000 -0.1128513688
Cl  Cl11      1.0  0.68021  0.36004  0.84915  1.0000 -0.1128513688
Cl  Cl12      1.0  0.81979  0.66894  0.67983  1.0000 -0.1128513688
Cl  Cl13      1.0  0.75000  0.18758  0.43758  1.0000 1.2643989227
Cl  Cl14      1.0  0.25000  0.31242  0.06242  1.0000 1.2643989227
Cl  Cl15      1.0  0.43758  0.75000  0.18758  1.0000 1.2643989227
Cl  Cl16      1.0  0.06242  0.25000  0.31242  1.0000 1.2643989227
Cl  Cl17      1.0  0.31242  0.06242  0.25000  1.0000 1.2643989227
Cl  Cl18      1.0  0.18758  0.43758  0.75000  1.0000 1.2655765436
O   O1        1.0  0.67700  0.20170  0.42630  1.0000 -0.4981191981
O   O2        1.0  0.72380  0.10050  0.42450  1.0000 -0.4981191981
O   O3        1.0  0.82300  0.24930  0.52470  1.0000 -0.4981191981
O   O4        1.0  0.77620  0.20070  0.37670  1.0000 -0.4981191981
O   O5        1.0  0.22460  0.29830  0.97530  1.0000 -0.4981191981
O   O6        1.0  0.32400  0.39950  0.12330  1.0000 -0.4981191981
O   O7        1.0  0.27540  0.25070  0.07370  1.0000 -0.4981191981
O   O8        1.0  0.17600  0.29930  0.07550  1.0000 -0.4981191981
O   O9        1.0  0.52470  0.82300  0.24930  1.0000 -0.4981191981
O   O10       1.0  0.37670  0.77620  0.20070  1.0000 -0.4981191981
O   O11       1.0  0.42630  0.67700  0.20170  1.0000 -0.4981191981
O   O12       1.0  0.42450  0.72380  0.10050  1.0000 -0.4981191981
O   O13       1.0  0.07370  0.27540  0.25070  1.0000 -0.4981191981
O   O14       1.0  0.07550  0.17600  0.29930  1.0000 -0.4981191981
O   O15       1.0  0.97530  0.22460  0.29830  1.0000 -0.4981191981
O   O16       1.0  0.12330  0.32400  0.39950  1.0000 -0.4981191981
O   O17       1.0  0.29830  0.97530  0.22460  1.0000 -0.4981191981
O   O18       1.0  0.39950  0.12330  0.32400  1.0000 -0.4981191981
O   O19       1.0  0.25070  0.07370  0.27540  1.0000 -0.4981191981
O   O20       1.0  0.29930  0.07550  0.17600  1.0000 -0.4981191981
O   O21       1.0  0.20170  0.42630  0.67700  1.0000 -0.4981191981
O   O22       1.0  0.10050  0.42450  0.72380  1.0000 -0.4981191981
O   O23       1.0  0.24930  0.52470  0.82300  1.0000 -0.4981191981
O   O24       1.0  0.20070  0.37670  0.77620  1.0000 -0.4981191981
