# DDEC6 charges by PACMAN v1.1 (https://github.com/mtap-research/PACMAN-charge/)
data_2017[Ag][srs]3[ION]42
_chemical_formula_sum              "Ag6 H120 C144 N40 Cl6 O24"
_cell_length_a       18.5975
_cell_length_b       18.5975
_cell_length_c       18.5975
_cell_angle_alpha    109.471
_cell_angle_beta     109.471
_cell_angle_gamma    109.471

_symmetry_space_group_name_H-M    "P 1"
_symmetry_Int_Tables_number       1

loop_
  _symmetry_equiv_pos_as_xyz
  'x, y, z'

loop_
  _atom_site_type_symbol
  _atom_site_label
  _atom_site_symmetry_multiplicity
  _atom_site_fract_x
  _atom_site_fract_y
  _atom_site_fract_z
  _atom_site_occupancy
  _atom_site_charge
Ag  Ag1       1.0  0.95334  0.25000  0.20334  1.0000 0.2652795579
Ag  Ag2       1.0  0.54666  0.75000  0.29666  1.0000 0.2652795579
Ag  Ag3       1.0  0.20334  0.95334  0.25000  1.0000 0.2652795579
Ag  Ag4       1.0  0.29666  0.54666  0.75000  1.0000 0.2652795579
Ag  Ag5       1.0  0.25000  0.20334  0.95334  1.0000 0.2652795579
Ag  Ag6       1.0  0.75000  0.29666  0.54666  1.0000 0.2652795579
H   H1        1.0  0.02770  0.45390  0.10060  1.0000 0.123392971
H   H2        1.0  0.98270  0.31880  0.09450  1.0000 0.1087204793
H   H3        1.0  0.74720  0.21870  0.88390  1.0000 0.123392971
H   H4        1.0  0.78930  0.35450  0.89480  1.0000 0.123392971
H   H5        1.0  0.77760  0.12050  0.93070  1.0000 0.1087204793
H   H6        1.0  0.79150  0.91590  0.00480  1.0000 0.1505137984
H   H7        1.0  0.83410  0.87880  0.11310  1.0000 0.1087204793
H   H8        1.0  0.92050  0.99310  0.26480  1.0000 0.1265715799
H   H9        1.0  0.95770  0.13450  0.29620  1.0000 0.1021101913
H   H10       1.0  0.79180  0.02840  0.97240  1.0000 0.276522047
H   H11       1.0  0.85330  0.92710  0.39940  1.0000 0.123392971
H   H12       1.0  0.72430  0.88820  0.40550  1.0000 0.1087204793
H   H13       1.0  0.83480  0.86330  0.61610  1.0000 0.123392971
H   H14       1.0  0.95970  0.89450  0.60520  1.0000 0.123392971
H   H15       1.0  0.68980  0.84690  0.56930  1.0000 0.1087204793
H   H16       1.0  0.41110  0.78670  0.49520  1.0000 0.1505137984
H   H17       1.0  0.26570  0.72100  0.38690  1.0000 0.1087204793
H   H18       1.0  0.22830  0.65570  0.23520  1.0000 0.1265715799
H   H19       1.0  0.33830  0.66150  0.20380  1.0000 0.1021101913
H   H20       1.0  0.55600  0.81940  0.52760  1.0000 0.276522047
H   H21       1.0  0.64670  0.04610  0.07380  1.0000 0.123392971
H   H22       1.0  0.77570  0.18120  0.16390  1.0000 0.1087204793
H   H23       1.0  0.66520  0.28130  0.02850  1.0000 0.123392971
H   H24       1.0  0.54030  0.14550  0.93480  1.0000 0.123392971
H   H25       1.0  0.81020  0.37950  0.15710  1.0000 0.1087204793
H   H26       1.0  0.08890  0.58410  0.37560  1.0000 0.1505137984
H   H27       1.0  0.23430  0.62120  0.45530  1.0000 0.1087204793
H   H28       1.0  0.27170  0.50690  0.42740  1.0000 0.1265715799
H   H29       1.0  0.16170  0.36550  0.32320  1.0000 0.1021101913
H   H30       1.0  0.94400  0.47160  0.26340  1.0000 0.276522047
H   H31       1.0  0.47230  0.57290  0.42620  1.0000 0.123392971
H   H32       1.0  0.51730  0.61180  0.33610  1.0000 0.1087204793
H   H33       1.0  0.75280  0.63670  0.47150  1.0000 0.123392971
H   H34       1.0  0.71070  0.60550  0.56520  1.0000 0.123392971
H   H35       1.0  0.72240  0.65310  0.34290  1.0000 0.1087204793
H   H36       1.0  0.70850  0.71330  0.12440  1.0000 0.1505137984
H   H37       1.0  0.66590  0.77900  0.04470  1.0000 0.1087204793
H   H38       1.0  0.57950  0.84430  0.07260  1.0000 0.1265715799
H   H39       1.0  0.54230  0.83850  0.17680  1.0000 0.1021101913
H   H40       1.0  0.70820  0.68060  0.23660  1.0000 0.276522047
H   H41       1.0  0.10060  0.02770  0.45390  1.0000 0.123392971
H   H42       1.0  0.09450  0.98270  0.31880  1.0000 0.1087204793
H   H43       1.0  0.88390  0.74720  0.21870  1.0000 0.123392971
H   H44       1.0  0.89480  0.78930  0.35450  1.0000 0.123392971
H   H45       1.0  0.93070  0.77760  0.12050  1.0000 0.1087204793
H   H46       1.0  0.00480  0.79150  0.91590  1.0000 0.1505137984
H   H47       1.0  0.11310  0.83410  0.87880  1.0000 0.1087204793
H   H48       1.0  0.26480  0.92050  0.99310  1.0000 0.1265715799
H   H49       1.0  0.29620  0.95770  0.13450  1.0000 0.1021101913
H   H50       1.0  0.97240  0.79180  0.02840  1.0000 0.276522047
H   H51       1.0  0.39940  0.85330  0.92710  1.0000 0.123392971
H   H52       1.0  0.40550  0.72430  0.88820  1.0000 0.1087204793
H   H53       1.0  0.61610  0.83480  0.86330  1.0000 0.123392971
H   H54       1.0  0.60520  0.95970  0.89450  1.0000 0.123392971
H   H55       1.0  0.56930  0.68980  0.84690  1.0000 0.1087204793
H   H56       1.0  0.49520  0.41110  0.78670  1.0000 0.1505137984
H   H57       1.0  0.38690  0.26570  0.72100  1.0000 0.1087204793
H   H58       1.0  0.23520  0.22830  0.65570  1.0000 0.1265715799
H   H59       1.0  0.20380  0.33830  0.66150  1.0000 0.1021101913
H   H60       1.0  0.52760  0.55600  0.81940  1.0000 0.276522047
H   H61       1.0  0.07380  0.64670  0.04610  1.0000 0.123392971
H   H62       1.0  0.16390  0.77570  0.18120  1.0000 0.1087204793
H   H63       1.0  0.02850  0.66520  0.28130  1.0000 0.123392971
H   H64       1.0  0.93480  0.54030  0.14550  1.0000 0.123392971
H   H65       1.0  0.15710  0.81020  0.37950  1.0000 0.1087204793
H   H66       1.0  0.37560  0.08890  0.58410  1.0000 0.1505137984
H   H67       1.0  0.45530  0.23430  0.62120  1.0000 0.1087204793
H   H68       1.0  0.42740  0.27170  0.50690  1.0000 0.1265715799
H   H69       1.0  0.32320  0.16170  0.36550  1.0000 0.1021101913
H   H70       1.0  0.26340  0.94400  0.47160  1.0000 0.276522047
H   H71       1.0  0.42620  0.47230  0.57290  1.0000 0.123392971
H   H72       1.0  0.33610  0.51730  0.61180  1.0000 0.1087204793
H   H73       1.0  0.47150  0.75280  0.63670  1.0000 0.123392971
H   H74       1.0  0.56520  0.71070  0.60550  1.0000 0.123392971
H   H75       1.0  0.34290  0.72240  0.65310  1.0000 0.1087204793
H   H76       1.0  0.12440  0.70850  0.71330  1.0000 0.1505137984
H   H77       1.0  0.04470  0.66590  0.77900  1.0000 0.1087204793
H   H78       1.0  0.07260  0.57950  0.84430  1.0000 0.1265715799
H   H79       1.0  0.17680  0.54230  0.83850  1.0000 0.1021101913
H   H80       1.0  0.23660  0.70820  0.68060  1.0000 0.276522047
H   H81       1.0  0.45390  0.10060  0.02770  1.0000 0.123392971
H   H82       1.0  0.31880  0.09450  0.98270  1.0000 0.1087204793
H   H83       1.0  0.21870  0.88390  0.74720  1.0000 0.123392971
H   H84       1.0  0.35450  0.89480  0.78930  1.0000 0.123392971
H   H85       1.0  0.12050  0.93070  0.77760  1.0000 0.1087204793
H   H86       1.0  0.91590  0.00480  0.79150  1.0000 0.1505137984
H   H87       1.0  0.87880  0.11310  0.83410  1.0000 0.1087204793
H   H88       1.0  0.99310  0.26480  0.92050  1.0000 0.1265715799
H   H89       1.0  0.13450  0.29620  0.95770  1.0000 0.1021101913
H   H90       1.0  0.02840  0.97240  0.79180  1.0000 0.276522047
H   H91       1.0  0.92710  0.39940  0.85330  1.0000 0.123392971
H   H92       1.0  0.88820  0.40550  0.72430  1.0000 0.1087204793
H   H93       1.0  0.86330  0.61610  0.83480  1.0000 0.123392971
H   H94       1.0  0.89450  0.60520  0.95970  1.0000 0.123392971
H   H95       1.0  0.84690  0.56930  0.68980  1.0000 0.1087204793
H   H96       1.0  0.78670  0.49520  0.41110  1.0000 0.1505137984
H   H97       1.0  0.72100  0.38690  0.26570  1.0000 0.1087204793
H   H98       1.0  0.65570  0.23520  0.22830  1.0000 0.1265715799
H   H99       1.0  0.66150  0.20380  0.33830  1.0000 0.1021101913
H   H100      1.0  0.81940  0.52760  0.55600  1.0000 0.276522047
H   H101      1.0  0.04610  0.07380  0.64670  1.0000 0.123392971
H   H102      1.0  0.18120  0.16390  0.77570  1.0000 0.1087204793
H   H103      1.0  0.28130  0.02850  0.66520  1.0000 0.123392971
H   H104      1.0  0.14550  0.93480  0.54030  1.0000 0.123392971
H   H105      1.0  0.37950  0.15710  0.81020  1.0000 0.1087204793
H   H106      1.0  0.58410  0.37560  0.08890  1.0000 0.1505137984
H   H107      1.0  0.62120  0.45530  0.23430  1.0000 0.1087204793
H   H108      1.0  0.50690  0.42740  0.27170  1.0000 0.1265715799
H   H109      1.0  0.36550  0.32320  0.16170  1.0000 0.1021101913
H   H110      1.0  0.47160  0.26340  0.94400  1.0000 0.276522047
H   H111      1.0  0.57290  0.42620  0.47230  1.0000 0.123392971
H   H112      1.0  0.61180  0.33610  0.51730  1.0000 0.1087204793
H   H113      1.0  0.63670  0.47150  0.75280  1.0000 0.123392971
H   H114      1.0  0.60550  0.56520  0.71070  1.0000 0.123392971
H   H115      1.0  0.65310  0.34290  0.72240  1.0000 0.1087204793
H   H116      1.0  0.71330  0.12440  0.70850  1.0000 0.1505137984
H   H117      1.0  0.77900  0.04470  0.66590  1.0000 0.1087204793
H   H118      1.0  0.84430  0.07260  0.57950  1.0000 0.1265715799
H   H119      1.0  0.83850  0.17680  0.54230  1.0000 0.1021101913
H   H120      1.0  0.68060  0.23660  0.70820  1.0000 0.276522047
C   C1        1.0  0.91223  0.41753  0.99650  1.0000 0.172447683
C   C2        1.0  0.97060  0.40650  0.05750  1.0000 -0.2006983927
C   C3        1.0  0.94360  0.32590  0.05370  1.0000 -0.139978422
C   C4        1.0  0.86000  0.25560  0.99080  1.0000 0.0600680775
C   C5        1.0  0.80310  0.26670  0.92900  1.0000 -0.1224554401
C   C6        1.0  0.82920  0.34710  0.93450  1.0000 -0.1888405453
C   C7        1.0  0.82820  0.16870  0.98310  1.0000 -0.0180808889
C   C8        1.0  0.85610  0.04880  0.08890  1.0000 0.336370892
C   C9        1.0  0.82720  0.95990  0.06450  1.0000 -0.2319857859
C   C10       1.0  0.85120  0.93780  0.12840  1.0000 -0.0136913362
C   C11       1.0  0.90300  0.00610  0.21930  1.0000 -0.1888405453
C   C12       1.0  0.92570  0.08970  0.23700  1.0000 0.0525130847
C   C13       1.0  0.92103  0.91573  0.50350  1.0000 0.172447683
C   C14       1.0  0.84900  0.91310  0.44250  1.0000 -0.2006983927
C   C15       1.0  0.77220  0.88990  0.44630  1.0000 -0.139978422
C   C16       1.0  0.76480  0.86920  0.50920  1.0000 0.0600680775
C   C17       1.0  0.83770  0.87410  0.57100  1.0000 -0.1224554401
C   C18       1.0  0.91260  0.89470  0.56550  1.0000 -0.1888405453
C   C19       1.0  0.68560  0.84510  0.51690  1.0000 -0.0180808889
C   C20       1.0  0.45990  0.76720  0.41110  1.0000 0.336370892
C   C21       1.0  0.39540  0.76270  0.43550  1.0000 -0.2319857859
C   C22       1.0  0.30940  0.72280  0.37160  1.0000 -0.0136913362
C   C23       1.0  0.28680  0.68370  0.28070  1.0000 -0.1888405453
C   C24       1.0  0.35270  0.68870  0.26300  1.0000 0.0525130847
C   C25       1.0  0.57897  0.08247  0.99470  1.0000 0.172447683
C   C26       1.0  0.65100  0.09350  0.06410  1.0000 -0.2006983927
C   C27       1.0  0.72780  0.17410  0.11770  1.0000 -0.139978422
C   C28       1.0  0.73520  0.24440  0.10440  1.0000 0.0600680775
C   C29       1.0  0.66230  0.23330  0.03640  1.0000 -0.1224554401
C   C30       1.0  0.58740  0.15290  0.98210  1.0000 -0.1888405453
C   C31       1.0  0.81440  0.33130  0.15950  1.0000 -0.0180808889
C   C32       1.0  0.04010  0.45120  0.30730  1.0000 0.336370892
C   C33       1.0  0.10460  0.54010  0.36730  1.0000 -0.2319857859
C   C34       1.0  0.19060  0.56220  0.41340  1.0000 -0.0136913362
C   C35       1.0  0.21320  0.49390  0.39690  1.0000 -0.1888405453
C   C36       1.0  0.14730  0.41030  0.33600  1.0000 0.0525130847
C   C37       1.0  0.58777  0.58427  0.50530  1.0000 0.172447683
C   C38       1.0  0.52940  0.58690  0.43590  1.0000 -0.2006983927
C   C39       1.0  0.55640  0.61010  0.38230  1.0000 -0.139978422
C   C40       1.0  0.64000  0.63080  0.39560  1.0000 0.0600680775
C   C41       1.0  0.69690  0.62590  0.46360  1.0000 -0.1224554401
C   C42       1.0  0.67080  0.60530  0.51790  1.0000 -0.1888405453
C   C43       1.0  0.67180  0.65490  0.34050  1.0000 -0.0180808889
C   C44       1.0  0.64390  0.73280  0.19270  1.0000 0.336370892
C   C45       1.0  0.67280  0.73730  0.13270  1.0000 -0.2319857859
C   C46       1.0  0.64880  0.77720  0.08660  1.0000 -0.0136913362
C   C47       1.0  0.59700  0.81630  0.10310  1.0000 -0.1888405453
C   C48       1.0  0.57430  0.81130  0.16400  1.0000 0.0525130847
C   C49       1.0  0.99650  0.91223  0.41753  1.0000 0.172447683
C   C50       1.0  0.05750  0.97060  0.40650  1.0000 -0.2006983927
C   C51       1.0  0.05370  0.94360  0.32590  1.0000 -0.139978422
C   C52       1.0  0.99080  0.86000  0.25560  1.0000 0.0600680775
C   C53       1.0  0.92900  0.80310  0.26670  1.0000 -0.1224554401
C   C54       1.0  0.93450  0.82920  0.34710  1.0000 -0.1888405453
C   C55       1.0  0.98310  0.82820  0.16870  1.0000 -0.0180808889
C   C56       1.0  0.08890  0.85610  0.04880  1.0000 0.336370892
C   C57       1.0  0.06450  0.82720  0.95990  1.0000 -0.2319857859
C   C58       1.0  0.12840  0.85120  0.93780  1.0000 -0.0136913362
C   C59       1.0  0.21930  0.90300  0.00610  1.0000 -0.1888405453
C   C60       1.0  0.23700  0.92570  0.08970  1.0000 0.0525130847
C   C61       1.0  0.50350  0.92103  0.91573  1.0000 0.172447683
C   C62       1.0  0.44250  0.84900  0.91310  1.0000 -0.2006983927
C   C63       1.0  0.44630  0.77220  0.88990  1.0000 -0.139978422
C   C64       1.0  0.50920  0.76480  0.86920  1.0000 0.0600680775
C   C65       1.0  0.57100  0.83770  0.87410  1.0000 -0.1224554401
C   C66       1.0  0.56550  0.91260  0.89470  1.0000 -0.1888405453
C   C67       1.0  0.51690  0.68560  0.84510  1.0000 -0.0180808889
C   C68       1.0  0.41110  0.45990  0.76720  1.0000 0.336370892
C   C69       1.0  0.43550  0.39540  0.76270  1.0000 -0.2319857859
C   C70       1.0  0.37160  0.30940  0.72280  1.0000 -0.0136913362
C   C71       1.0  0.28070  0.28680  0.68370  1.0000 -0.1888405453
C   C72       1.0  0.26300  0.35270  0.68870  1.0000 0.0525130847
C   C73       1.0  0.99470  0.57897  0.08247  1.0000 0.172447683
C   C74       1.0  0.06410  0.65100  0.09350  1.0000 -0.2006983927
C   C75       1.0  0.11770  0.72780  0.17410  1.0000 -0.139978422
C   C76       1.0  0.10440  0.73520  0.24440  1.0000 0.0600680775
C   C77       1.0  0.03640  0.66230  0.23330  1.0000 -0.1224554401
C   C78       1.0  0.98210  0.58740  0.15290  1.0000 -0.1888405453
C   C79       1.0  0.15950  0.81440  0.33130  1.0000 -0.0180808889
C   C80       1.0  0.30730  0.04010  0.45120  1.0000 0.336370892
C   C81       1.0  0.36730  0.10460  0.54010  1.0000 -0.2319857859
C   C82       1.0  0.41340  0.19060  0.56220  1.0000 -0.0136913362
C   C83       1.0  0.39690  0.21320  0.49390  1.0000 -0.1888405453
C   C84       1.0  0.33600  0.14730  0.41030  1.0000 0.0525130847
C   C85       1.0  0.50530  0.58777  0.58427  1.0000 0.172447683
C   C86       1.0  0.43590  0.52940  0.58690  1.0000 -0.2006983927
C   C87       1.0  0.38230  0.55640  0.61010  1.0000 -0.139978422
C   C88       1.0  0.39560  0.64000  0.63080  1.0000 0.0600680775
C   C89       1.0  0.46360  0.69690  0.62590  1.0000 -0.1224554401
C   C90       1.0  0.51790  0.67080  0.60530  1.0000 -0.1888405453
C   C91       1.0  0.34050  0.67180  0.65490  1.0000 -0.0180808889
C   C92       1.0  0.19270  0.64390  0.73280  1.0000 0.336370892
C   C93       1.0  0.13270  0.67280  0.73730  1.0000 -0.2319857859
C   C94       1.0  0.08660  0.64880  0.77720  1.0000 -0.0136913362
C   C95       1.0  0.10310  0.59700  0.81630  1.0000 -0.1888405453
C   C96       1.0  0.16400  0.57430  0.81130  1.0000 0.0525130847
C   C97       1.0  0.41753  0.99650  0.91223  1.0000 0.172447683
C   C98       1.0  0.40650  0.05750  0.97060  1.0000 -0.2006983927
C   C99       1.0  0.32590  0.05370  0.94360  1.0000 -0.139978422
C   C100      1.0  0.25560  0.99080  0.86000  1.0000 0.0600680775
C   C101      1.0  0.26670  0.92900  0.80310  1.0000 -0.1224554401
C   C102      1.0  0.34710  0.93450  0.82920  1.0000 -0.1888405453
C   C103      1.0  0.16870  0.98310  0.82820  1.0000 -0.0180808889
C   C104      1.0  0.04880  0.08890  0.85610  1.0000 0.336370892
C   C105      1.0  0.95990  0.06450  0.82720  1.0000 -0.2319857859
C   C106      1.0  0.93780  0.12840  0.85120  1.0000 -0.0136913362
C   C107      1.0  0.00610  0.21930  0.90300  1.0000 -0.1888405453
C   C108      1.0  0.08970  0.23700  0.92570  1.0000 0.0525130847
C   C109      1.0  0.91573  0.50350  0.92103  1.0000 0.172447683
C   C110      1.0  0.91310  0.44250  0.84900  1.0000 -0.2006983927
C   C111      1.0  0.88990  0.44630  0.77220  1.0000 -0.139978422
C   C112      1.0  0.86920  0.50920  0.76480  1.0000 0.0600680775
C   C113      1.0  0.87410  0.57100  0.83770  1.0000 -0.1224554401
C   C114      1.0  0.89470  0.56550  0.91260  1.0000 -0.1888405453
C   C115      1.0  0.84510  0.51690  0.68560  1.0000 -0.0180808889
C   C116      1.0  0.76720  0.41110  0.45990  1.0000 0.336370892
C   C117      1.0  0.76270  0.43550  0.39540  1.0000 -0.2319857859
C   C118      1.0  0.72280  0.37160  0.30940  1.0000 -0.0136913362
C   C119      1.0  0.68370  0.28070  0.28680  1.0000 -0.1888405453
C   C120      1.0  0.68870  0.26300  0.35270  1.0000 0.0525130847
C   C121      1.0  0.08247  0.99470  0.57897  1.0000 0.172447683
C   C122      1.0  0.09350  0.06410  0.65100  1.0000 -0.2006983927
C   C123      1.0  0.17410  0.11770  0.72780  1.0000 -0.139978422
C   C124      1.0  0.24440  0.10440  0.73520  1.0000 0.0600680775
C   C125      1.0  0.23330  0.03640  0.66230  1.0000 -0.1224554401
C   C126      1.0  0.15290  0.98210  0.58740  1.0000 -0.1888405453
C   C127      1.0  0.33130  0.15950  0.81440  1.0000 -0.0180808889
C   C128      1.0  0.45120  0.30730  0.04010  1.0000 0.336370892
C   C129      1.0  0.54010  0.36730  0.10460  1.0000 -0.2319857859
C   C130      1.0  0.56220  0.41340  0.19060  1.0000 -0.0136913362
C   C131      1.0  0.49390  0.39690  0.21320  1.0000 -0.1888405453
C   C132      1.0  0.41030  0.33600  0.14730  1.0000 0.0525130847
C   C133      1.0  0.58427  0.50530  0.58777  1.0000 0.172447683
C   C134      1.0  0.58690  0.43590  0.52940  1.0000 -0.2006983927
C   C135      1.0  0.61010  0.38230  0.55640  1.0000 -0.139978422
C   C136      1.0  0.63080  0.39560  0.64000  1.0000 0.0600680775
C   C137      1.0  0.62590  0.46360  0.69690  1.0000 -0.1224554401
C   C138      1.0  0.60530  0.51790  0.67080  1.0000 -0.1888405453
C   C139      1.0  0.65490  0.34050  0.67180  1.0000 -0.0180808889
C   C140      1.0  0.73280  0.19270  0.64390  1.0000 0.336370892
C   C141      1.0  0.73730  0.13270  0.67280  1.0000 -0.2319857859
C   C142      1.0  0.77720  0.08660  0.64880  1.0000 -0.0136913362
C   C143      1.0  0.81630  0.10310  0.59700  1.0000 -0.1888405453
C   C144      1.0  0.81130  0.16400  0.57430  1.0000 0.0525130847
N   N1        1.0  0.86540  0.15543  0.04323  1.0000 -0.1274310049
N   N2        1.0  0.83130  0.07050  0.02620  1.0000 -0.2006983927
N   N3        1.0  0.90450  0.11250  0.17300  1.0000 -0.2921276821
N   N4        1.0  0.61220  0.82217  0.45677  1.0000 -0.1274310049
N   N5        1.0  0.54430  0.80510  0.47380  1.0000 -0.2006983927
N   N6        1.0  0.43950  0.73150  0.32700  1.0000 -0.2921276821
N   N7        1.0  0.88780  0.34457  0.20997  1.0000 -0.1274310049
N   N8        1.0  0.95570  0.42950  0.26080  1.0000 -0.2006983927
N   N9        1.0  0.06050  0.38750  0.29200  1.0000 -0.2921276821
N   N10       1.0  0.63460  0.67783  0.29003  1.0000 -0.1274310049
N   N11       1.0  0.66870  0.69490  0.23920  1.0000 -0.2006983927
N   N12       1.0  0.59550  0.76850  0.20800  1.0000 -0.2921276821
N   N13       1.0  0.04323  0.86540  0.15543  1.0000 -0.1274310049
N   N14       1.0  0.02620  0.83130  0.07050  1.0000 -0.2006983927
N   N15       1.0  0.17300  0.90450  0.11250  1.0000 -0.2921276821
N   N16       1.0  0.45677  0.61220  0.82217  1.0000 -0.1274310049
N   N17       1.0  0.47380  0.54430  0.80510  1.0000 -0.2006983927
N   N18       1.0  0.32700  0.43950  0.73150  1.0000 -0.2921276821
N   N19       1.0  0.20997  0.88780  0.34457  1.0000 -0.1274310049
N   N20       1.0  0.26080  0.95570  0.42950  1.0000 -0.2006983927
N   N21       1.0  0.29200  0.06050  0.38750  1.0000 -0.2921276821
N   N22       1.0  0.29003  0.63460  0.67783  1.0000 -0.1274310049
N   N23       1.0  0.23920  0.66870  0.69490  1.0000 -0.2006983927
N   N24       1.0  0.20800  0.59550  0.76850  1.0000 -0.2921276821
N   N25       1.0  0.15543  0.04323  0.86540  1.0000 -0.1274310049
N   N26       1.0  0.07050  0.02620  0.83130  1.0000 -0.2006983927
N   N27       1.0  0.11250  0.17300  0.90450  1.0000 -0.2921276821
N   N28       1.0  0.82217  0.45677  0.61220  1.0000 -0.1274310049
N   N29       1.0  0.80510  0.47380  0.54430  1.0000 -0.2006983927
N   N30       1.0  0.73150  0.32700  0.43950  1.0000 -0.2921276821
N   N31       1.0  0.34457  0.20997  0.88780  1.0000 -0.1274310049
N   N32       1.0  0.42950  0.26080  0.95570  1.0000 -0.2006983927
N   N33       1.0  0.38750  0.29200  0.06050  1.0000 -0.2921276821
N   N34       1.0  0.67783  0.29003  0.63460  1.0000 -0.1274310049
N   N35       1.0  0.69490  0.23920  0.66870  1.0000 -0.2006983927
N   N36       1.0  0.76850  0.20800  0.59550  1.0000 -0.2921276821
N   N37       1.0  0.94040  0.50000  0.00000  1.0000 -0.1733245523
N   N38       1.0  0.00000  0.94040  0.50000  1.0000 -0.1733245523
N   N39       1.0  0.50000  0.00000  0.94040  1.0000 -0.1733245523
N   N40       1.0  0.55960  0.55960  0.55960  1.0000 -0.1733245523
Cl  Cl1       1.0  0.55726  0.25000  0.80726  1.0000 1.2498021788
Cl  Cl2       1.0  0.94274  0.75000  0.69274  1.0000 1.2498021788
Cl  Cl3       1.0  0.25000  0.80726  0.55726  1.0000 1.2498021788
Cl  Cl4       1.0  0.75000  0.69274  0.94274  1.0000 1.2498021788
Cl  Cl5       1.0  0.80726  0.55726  0.25000  1.0000 1.2498021788
Cl  Cl6       1.0  0.69274  0.94274  0.75000  1.0000 1.2498021788
O   O1        1.0  0.56880  0.32240  0.79580  1.0000 -0.4764368766
O   O2        1.0  0.62000  0.22980  0.79700  1.0000 -0.4719584096
O   O3        1.0  0.47340  0.17760  0.74640  1.0000 -0.4764368766
O   O4        1.0  0.56720  0.27020  0.89020  1.0000 -0.4719584096
O   O5        1.0  0.93120  0.72700  0.75360  1.0000 -0.4764368766
O   O6        1.0  0.88000  0.67700  0.60980  1.0000 -0.4719584096
O   O7        1.0  0.02660  0.77300  0.70420  1.0000 -0.4764368766
O   O8        1.0  0.93280  0.82300  0.70300  1.0000 -0.4719584096
O   O9        1.0  0.32240  0.79580  0.56880  1.0000 -0.4764368766
O   O10       1.0  0.22980  0.79700  0.62000  1.0000 -0.4719584096
O   O11       1.0  0.17760  0.74640  0.47340  1.0000 -0.4764368766
O   O12       1.0  0.27020  0.89020  0.56720  1.0000 -0.4719584096
O   O13       1.0  0.72700  0.75360  0.93120  1.0000 -0.4764368766
O   O14       1.0  0.67700  0.60980  0.88000  1.0000 -0.4719584096
O   O15       1.0  0.77300  0.70420  0.02660  1.0000 -0.4764368766
O   O16       1.0  0.82300  0.70300  0.93280  1.0000 -0.4719584096
O   O17       1.0  0.79580  0.56880  0.32240  1.0000 -0.4764368766
O   O18       1.0  0.79700  0.62000  0.22980  1.0000 -0.4719584096
O   O19       1.0  0.74640  0.47340  0.17760  1.0000 -0.4764368766
O   O20       1.0  0.89020  0.56720  0.27020  1.0000 -0.4719584096
O   O21       1.0  0.75360  0.93120  0.72700  1.0000 -0.4764368766
O   O22       1.0  0.60980  0.88000  0.67700  1.0000 -0.4719584096
O   O23       1.0  0.70420  0.02660  0.77300  1.0000 -0.4764368766
O   O24       1.0  0.70300  0.93280  0.82300  1.0000 -0.4719584096
