# DDEC6 charges by PACMAN v1.1 (https://github.com/mtap-research/PACMAN-charge/)
data_2017[Ag][hcb]2[ION]6
_chemical_formula_sum              "Ag6 H126 C168 S6 N18 O54 F18"
_cell_length_a       16.8803
_cell_length_b       17.5384
_cell_length_c       20.0423
_cell_angle_alpha    96.33
_cell_angle_beta     96.153
_cell_angle_gamma    117.623

_symmetry_space_group_name_H-M    "P 1"
_symmetry_Int_Tables_number       1

loop_
  _symmetry_equiv_pos_as_xyz
  'x, y, z'

loop_
  _atom_site_type_symbol
  _atom_site_label
  _atom_site_symmetry_multiplicity
  _atom_site_fract_x
  _atom_site_fract_y
  _atom_site_fract_z
  _atom_site_occupancy
  _atom_site_charge
Ag  Ag1       1.0  0.82118  0.83028  0.06846  1.0000 0.299794549
Ag  Ag2       1.0  0.17882  0.16972  0.93154  1.0000 0.299794549
Ag  Ag3       1.0  0.77973  0.14354  0.73569  1.0000 0.2929550203
Ag  Ag4       1.0  0.22053  0.49563  0.63848  1.0000 0.2845481279
Ag  Ag5       1.0  0.22027  0.85646  0.26431  1.0000 0.2929550203
Ag  Ag6       1.0  0.77947  0.50437  0.36152  1.0000 0.2845481279
H   H1        1.0  0.00260  0.65790  0.08050  1.0000 0.1303713423
H   H2        1.0  0.87890  0.68160  0.06900  1.0000 0.1009586426
H   H3        1.0  0.03570  0.93240  0.07380  1.0000 0.1088308966
H   H4        1.0  0.16480  0.91670  0.08470  1.0000 0.1380657192
H   H5        1.0  0.25400  0.67920  0.03180  1.0000 0.1194381733
H   H6        1.0  0.28250  0.70730  0.11330  1.0000 0.1088308966
H   H7        1.0  0.99820  0.16730  0.09840  1.0000 0.1303713423
H   H8        1.0  0.97370  0.02690  0.09890  1.0000 0.1088308966
H   H9        1.0  0.71020  0.93630  0.07470  1.0000 0.1088308966
H   H10       1.0  0.72710  0.07410  0.07240  1.0000 0.1380657192
H   H11       1.0  0.94230  0.37380  0.04670  1.0000 0.1088308966
H   H12       1.0  0.96270  0.39650  0.12850  1.0000 0.1088308966
H   H13       1.0  0.63210  0.55040  0.17080  1.0000 0.1380657192
H   H14       1.0  0.75920  0.67070  0.15350  1.0000 0.1009586426
H   H15       1.0  0.61520  0.70900  0.00700  1.0000 0.1194381733
H   H16       1.0  0.48170  0.59560  0.02550  1.0000 0.1303713423
H   H17       1.0  0.27850  0.36760  0.07340  1.0000 0.1088308966
H   H18       1.0  0.31020  0.41650  0.15170  1.0000 0.1088308966
H   H19       1.0  0.12280  0.34250  0.09590  1.0000 0.1194381733
H   H20       1.0  0.06310  0.53750  0.07710  1.0000 0.1194381733
H   H21       1.0  0.32300  0.58410  0.08950  1.0000 0.1194381733
H   H22       1.0  0.99740  0.34210  0.91950  1.0000 0.1303713423
H   H23       1.0  0.12110  0.31840  0.93100  1.0000 0.1009586426
H   H24       1.0  0.96430  0.06760  0.92620  1.0000 0.1088308966
H   H25       1.0  0.83520  0.08330  0.91530  1.0000 0.1380657192
H   H26       1.0  0.74600  0.32080  0.96820  1.0000 0.1194381733
H   H27       1.0  0.71750  0.29270  0.88670  1.0000 0.1088308966
H   H28       1.0  0.00180  0.83270  0.90160  1.0000 0.1303713423
H   H29       1.0  0.02630  0.97310  0.90110  1.0000 0.1088308966
H   H30       1.0  0.28980  0.06370  0.92530  1.0000 0.1088308966
H   H31       1.0  0.27290  0.92590  0.92760  1.0000 0.1380657192
H   H32       1.0  0.05770  0.62620  0.95330  1.0000 0.1088308966
H   H33       1.0  0.03730  0.60350  0.87150  1.0000 0.1088308966
H   H34       1.0  0.36790  0.44960  0.82920  1.0000 0.1380657192
H   H35       1.0  0.24080  0.32930  0.84650  1.0000 0.1009586426
H   H36       1.0  0.38480  0.29100  0.99300  1.0000 0.1194381733
H   H37       1.0  0.51830  0.40440  0.97450  1.0000 0.1303713423
H   H38       1.0  0.72150  0.63240  0.92660  1.0000 0.1088308966
H   H39       1.0  0.68980  0.58350  0.84830  1.0000 0.1088308966
H   H40       1.0  0.87720  0.65750  0.90410  1.0000 0.1194381733
H   H41       1.0  0.93690  0.46250  0.92290  1.0000 0.1194381733
H   H42       1.0  0.67700  0.41590  0.91050  1.0000 0.1194381733
H   H43       1.0  0.68520  0.38560  0.73400  1.0000 0.1380657192
H   H44       1.0  0.67180  0.25140  0.74410  1.0000 0.1088308966
H   H45       1.0  0.93480  0.34260  0.75700  1.0000 0.1088308966
H   H46       1.0  0.95440  0.48070  0.74790  1.0000 0.1380657192
H   H47       1.0  0.90120  0.68720  0.69640  1.0000 0.1088308966
H   H48       1.0  0.91660  0.70460  0.77820  1.0000 0.1088308966
H   H49       1.0  0.45590  0.90500  0.61690  1.0000 0.1303713423
H   H50       1.0  0.60220  0.01840  0.62870  1.0000 0.1194381733
H   H51       1.0  0.65120  0.01470  0.82240  1.0000 0.1194381733
H   H52       1.0  0.50680  0.89950  0.81670  1.0000 0.1380657192
H   H53       1.0  0.23880  0.68360  0.73210  1.0000 0.1088308966
H   H54       1.0  0.25200  0.71410  0.81260  1.0000 0.1194381733
H   H55       1.0  0.95750  0.96630  0.74720  1.0000 0.1303713423
H   H56       1.0  0.83560  0.99190  0.74540  1.0000 0.1088308966
H   H57       1.0  0.99280  0.24380  0.75270  1.0000 0.1088308966
H   H58       1.0  0.11870  0.22660  0.75650  1.0000 0.1303713423
H   H59       1.0  0.21750  0.99760  0.70000  1.0000 0.1194381733
H   H60       1.0  0.24010  0.01860  0.78200  1.0000 0.1088308966
H   H61       1.0  0.28260  0.89710  0.75800  1.0000 0.1194381733
H   H62       1.0  0.07840  0.65250  0.75170  1.0000 0.1303713423
H   H63       1.0  0.02090  0.84760  0.72800  1.0000 0.1194381733
H   H64       1.0  0.30880  0.24710  0.61080  1.0000 0.1380657192
H   H65       1.0  0.32780  0.38730  0.62650  1.0000 0.1088308966
H   H66       1.0  0.06620  0.29790  0.61170  1.0000 0.1088308966
H   H67       1.0  0.03810  0.15510  0.59280  1.0000 0.1380657192
H   H68       1.0  0.06660  0.93120  0.52790  1.0000 0.1194381733
H   H69       1.0  0.09110  0.93430  0.60810  1.0000 0.1009586426
H   H70       1.0  0.87850  0.40380  0.58140  1.0000 0.1380657192
H   H71       1.0  0.00890  0.39220  0.60820  1.0000 0.1088308966
H   H72       1.0  0.16460  0.63870  0.60040  1.0000 0.1088308966
H   H73       1.0  0.03980  0.65930  0.57830  1.0000 0.1303713423
H   H74       1.0  0.76280  0.60970  0.51320  1.0000 0.1009586426
H   H75       1.0  0.76480  0.61600  0.59400  1.0000 0.1194381733
H   H76       1.0  0.49220  0.70710  0.53800  1.0000 0.1380657192
H   H77       1.0  0.34850  0.59500  0.54140  1.0000 0.1088308966
H   H78       1.0  0.40370  0.62760  0.74150  1.0000 0.1194381733
H   H79       1.0  0.54650  0.74390  0.74410  1.0000 0.1380657192
H   H80       1.0  0.73060  0.91510  0.53430  1.0000 0.1194381733
H   H81       1.0  0.75570  0.93940  0.61580  1.0000 0.1088308966
H   H82       1.0  0.71070  0.72600  0.56740  1.0000 0.1194381733
H   H83       1.0  0.97020  0.77680  0.56750  1.0000 0.1194381733
H   H84       1.0  0.91070  0.97530  0.58170  1.0000 0.1380657192
H   H85       1.0  0.31480  0.61440  0.26600  1.0000 0.1380657192
H   H86       1.0  0.32820  0.74860  0.25590  1.0000 0.1088308966
H   H87       1.0  0.06520  0.65740  0.24300  1.0000 0.1088308966
H   H88       1.0  0.04560  0.51930  0.25210  1.0000 0.1380657192
H   H89       1.0  0.09880  0.31280  0.30360  1.0000 0.1088308966
H   H90       1.0  0.08340  0.29540  0.22180  1.0000 0.1088308966
H   H91       1.0  0.54410  0.09500  0.38310  1.0000 0.1303713423
H   H92       1.0  0.39780  0.98160  0.37130  1.0000 0.1194381733
H   H93       1.0  0.34880  0.98530  0.17760  1.0000 0.1194381733
H   H94       1.0  0.49320  0.10050  0.18330  1.0000 0.1380657192
H   H95       1.0  0.76120  0.31640  0.26790  1.0000 0.1088308966
H   H96       1.0  0.74800  0.28590  0.18740  1.0000 0.1194381733
H   H97       1.0  0.04250  0.03370  0.25280  1.0000 0.1303713423
H   H98       1.0  0.16440  0.00810  0.25460  1.0000 0.1088308966
H   H99       1.0  0.00720  0.75620  0.24730  1.0000 0.1088308966
H   H100      1.0  0.88130  0.77340  0.24350  1.0000 0.1303713423
H   H101      1.0  0.78250  0.00240  0.30000  1.0000 0.1194381733
H   H102      1.0  0.75990  0.98140  0.21800  1.0000 0.1088308966
H   H103      1.0  0.71740  0.10290  0.24200  1.0000 0.1194381733
H   H104      1.0  0.92160  0.34750  0.24830  1.0000 0.1303713423
H   H105      1.0  0.97910  0.15240  0.27200  1.0000 0.1194381733
H   H106      1.0  0.69120  0.75290  0.38920  1.0000 0.1380657192
H   H107      1.0  0.67220  0.61270  0.37350  1.0000 0.1088308966
H   H108      1.0  0.93380  0.70210  0.38830  1.0000 0.1088308966
H   H109      1.0  0.96190  0.84490  0.40720  1.0000 0.1380657192
H   H110      1.0  0.93340  0.06880  0.47210  1.0000 0.1194381733
H   H111      1.0  0.90890  0.06570  0.39190  1.0000 0.1009586426
H   H112      1.0  0.12150  0.59620  0.41860  1.0000 0.1380657192
H   H113      1.0  0.99110  0.60780  0.39180  1.0000 0.1088308966
H   H114      1.0  0.83540  0.36130  0.39960  1.0000 0.1088308966
H   H115      1.0  0.96020  0.34070  0.42170  1.0000 0.1303713423
H   H116      1.0  0.23720  0.39030  0.48680  1.0000 0.1009586426
H   H117      1.0  0.23520  0.38400  0.40600  1.0000 0.1194381733
H   H118      1.0  0.50780  0.29290  0.46200  1.0000 0.1380657192
H   H119      1.0  0.65150  0.40500  0.45860  1.0000 0.1088308966
H   H120      1.0  0.59630  0.37240  0.25850  1.0000 0.1194381733
H   H121      1.0  0.45350  0.25610  0.25590  1.0000 0.1380657192
H   H122      1.0  0.26940  0.08490  0.46570  1.0000 0.1194381733
H   H123      1.0  0.24430  0.06060  0.38420  1.0000 0.1088308966
H   H124      1.0  0.28930  0.27400  0.43260  1.0000 0.1194381733
H   H125      1.0  0.02980  0.22320  0.43250  1.0000 0.1194381733
H   H126      1.0  0.08930  0.02470  0.41830  1.0000 0.1380657192
C   C1        1.0  0.01100  0.71510  0.07910  1.0000 -0.1676607964
C   C2        1.0  0.93780  0.72980  0.07230  1.0000 0.078799377
C   C3        1.0  0.02930  0.87580  0.07500  1.0000 0.078799377
C   C4        1.0  0.10670  0.86740  0.08170  1.0000 -0.1492651541
C   C5        1.0  0.09770  0.78480  0.08388  1.0000 -0.0001750596
C   C6        1.0  0.18090  0.77400  0.08860  1.0000 0.4907006926
C   C7        1.0  0.23150  0.66910  0.07540  1.0000 -0.0799536861
C   C8        1.0  0.93800  0.12050  0.09300  1.0000 -0.1492651541
C   C9        1.0  0.92270  0.03660  0.09350  1.0000 0.078799377
C   C10       1.0  0.76970  0.98400  0.07930  1.0000 0.070135191
C   C11       1.0  0.77900  0.06580  0.07790  1.0000 -0.1492651541
C   C12       1.0  0.86500  0.13590  0.08461  1.0000 0.0025362463
C   C13       1.0  0.87470  0.22430  0.08161  1.0000 0.4907006926
C   C14       1.0  0.97970  0.37370  0.08820  1.0000 -0.0705411019
C   C15       1.0  0.62690  0.58380  0.13800  1.0000 -0.1415214447
C   C16       1.0  0.70200  0.65460  0.12680  1.0000 0.070135191
C   C17       1.0  0.61810  0.67780  0.04220  1.0000 0.0894208519
C   C18       1.0  0.53840  0.60940  0.05190  1.0000 -0.1603248772
C   C19       1.0  0.54280  0.56150  0.10060  1.0000 0.0025362463
C   C20       1.0  0.45980  0.48650  0.11440  1.0000 0.4990805405
C   C21       1.0  0.30120  0.42460  0.10380  1.0000 -0.0705411019
C   C22       1.0  0.23310  0.45890  0.09320  1.0000 0.1194381733
C   C23       1.0  0.14170  0.40190  0.09260  1.0000 -0.216915208
C   C24       1.0  0.07860  0.43090  0.08721  1.0000 0.1088308966
C   C25       1.0  0.10660  0.51750  0.08135  1.0000 -0.2098140798
C   C26       1.0  0.19740  0.57550  0.08165  1.0000 0.1088308966
C   C27       1.0  0.26060  0.54510  0.08830  1.0000 -0.2098140798
C   C28       1.0  0.77950  0.79780  0.83020  1.0000 0.4832331382
C   C29       1.0  0.98900  0.28490  0.92090  1.0000 -0.1676607964
C   C30       1.0  0.06220  0.27020  0.92770  1.0000 0.078799377
C   C31       1.0  0.97070  0.12420  0.92500  1.0000 0.078799377
C   C32       1.0  0.89330  0.13260  0.91830  1.0000 -0.1492651541
C   C33       1.0  0.90230  0.21520  0.91612  1.0000 -0.0001750596
C   C34       1.0  0.81910  0.22600  0.91140  1.0000 0.4907006926
C   C35       1.0  0.76850  0.33090  0.92460  1.0000 -0.0799536861
C   C36       1.0  0.06200  0.87950  0.90700  1.0000 -0.1492651541
C   C37       1.0  0.07730  0.96340  0.90650  1.0000 0.078799377
C   C38       1.0  0.23030  0.01600  0.92070  1.0000 0.070135191
C   C39       1.0  0.22100  0.93420  0.92210  1.0000 -0.1492651541
C   C40       1.0  0.13500  0.86410  0.91539  1.0000 0.0025362463
C   C41       1.0  0.12530  0.77570  0.91839  1.0000 0.4907006926
C   C42       1.0  0.02030  0.62630  0.91180  1.0000 -0.0705411019
C   C43       1.0  0.37310  0.41620  0.86200  1.0000 -0.1415214447
C   C44       1.0  0.29800  0.34540  0.87320  1.0000 0.070135191
C   C45       1.0  0.38190  0.32220  0.95780  1.0000 0.0894208519
C   C46       1.0  0.46160  0.39060  0.94810  1.0000 -0.1603248772
C   C47       1.0  0.45720  0.43850  0.89940  1.0000 0.0025362463
C   C48       1.0  0.54020  0.51350  0.88560  1.0000 0.4990805405
C   C49       1.0  0.69880  0.57540  0.89620  1.0000 -0.0705411019
C   C50       1.0  0.76690  0.54110  0.90680  1.0000 0.1194381733
C   C51       1.0  0.85830  0.59810  0.90740  1.0000 -0.216915208
C   C52       1.0  0.92140  0.56910  0.91279  1.0000 0.1088308966
C   C53       1.0  0.89340  0.48250  0.91865  1.0000 -0.216915208
C   C54       1.0  0.80260  0.42450  0.91835  1.0000 0.1088308966
C   C55       1.0  0.73940  0.45490  0.91170  1.0000 -0.2098140798
C   C56       1.0  0.22050  0.20220  0.16980  1.0000 0.4832331382
C   C57       1.0  0.73770  0.37820  0.73860  1.0000 -0.1492651541
C   C58       1.0  0.73050  0.29840  0.74420  1.0000 0.0603636558
C   C59       1.0  0.88290  0.35100  0.75180  1.0000 0.0894208519
C   C60       1.0  0.89530  0.43380  0.74670  1.0000 -0.1492651541
C   C61       1.0  0.82170  0.44740  0.73990  1.0000 0.0126029121
C   C62       1.0  0.83100  0.53600  0.73490  1.0000 0.4990805405
C   C63       1.0  0.93590  0.68420  0.73810  1.0000 -0.0705411019
C   C64       1.0  0.49520  0.92620  0.66000  1.0000 -0.1492651541
C   C65       1.0  0.58230  0.99410  0.66770  1.0000 0.070135191
C   C66       1.0  0.61090  0.99190  0.77980  1.0000 0.1009586426
C   C67       1.0  0.52470  0.92290  0.77700  1.0000 -0.1492651541
C   C68       1.0  0.46580  0.88920  0.71590  1.0000 -0.0123211966
C   C69       1.0  0.37240  0.81550  0.70820  1.0000 0.4907006926
C   C70       1.0  0.25620  0.73460  0.76840  1.0000 -0.0705411019
C   C71       1.0  0.96620  0.02400  0.74860  1.0000 -0.1676607964
C   C72       1.0  0.89420  0.04000  0.74730  1.0000 0.078799377
C   C73       1.0  0.98580  0.18670  0.75170  1.0000 0.078799377
C   C74       1.0  0.06070  0.17720  0.75390  1.0000 -0.1492651541
C   C75       1.0  0.05240  0.09390  0.75211  1.0000 -0.0001750596
C   C76       1.0  0.13600  0.08420  0.75260  1.0000 0.4832331382
C   C77       1.0  0.19170  0.98290  0.74180  1.0000 -0.0799536861
C   C78       1.0  0.15590  0.88670  0.74308  1.0000 0.1088308966
C   C79       1.0  0.21960  0.85720  0.75319  1.0000 -0.216915208
C   C80       1.0  0.19130  0.77000  0.75615  1.0000 0.1194381733
C   C81       1.0  0.09840  0.71240  0.74984  1.0000 -0.2098140798
C   C82       1.0  0.03560  0.74120  0.74104  1.0000 0.1088308966
C   C83       1.0  0.06440  0.82810  0.73618  1.0000 -0.216915208
C   C84       1.0  0.25740  0.25610  0.61080  1.0000 -0.1492651541
C   C85       1.0  0.26800  0.33940  0.62030  1.0000 0.0603636558
C   C86       1.0  0.11650  0.28740  0.61130  1.0000 0.078799377
C   C87       1.0  0.09880  0.20180  0.60050  1.0000 -0.1492651541
C   C88       1.0  0.17080  0.18540  0.60110  1.0000 0.0126029121
C   C89       1.0  0.15920  0.09410  0.59080  1.0000 0.4907006926
C   C90       1.0  0.05270  0.94440  0.57310  1.0000 -0.0705411019
C   C91       1.0  0.93670  0.45340  0.58580  1.0000 -0.1492651541
C   C92       1.0  0.01500  0.44720  0.60110  1.0000 0.078799377
C   C93       1.0  0.10580  0.59050  0.59720  1.0000 0.078799377
C   C94       1.0  0.03160  0.60310  0.58350  1.0000 -0.1676607964
C   C95       1.0  0.94520  0.53360  0.57722  1.0000 0.0180892031
C   C96       1.0  0.85970  0.54110  0.56370  1.0000 0.4907006926
C   C97       1.0  0.80160  0.63960  0.55860  1.0000 -0.0799536861
C   C98       1.0  0.47500  0.69290  0.58050  1.0000 -0.1603248772
C   C99       1.0  0.38990  0.62570  0.58310  1.0000 0.070135191
C   C100      1.0  0.42140  0.64480  0.69990  1.0000 0.0894208519
C   C101      1.0  0.50680  0.71370  0.70170  1.0000 -0.1492651541
C   C102      1.0  0.53430  0.73890  0.64130  1.0000 0.0025362463
C   C103      1.0  0.62750  0.81350  0.64350  1.0000 0.4907006926
C   C104      1.0  0.73370  0.89110  0.57640  1.0000 -0.0705411019
C   C105      1.0  0.80100  0.85570  0.57550  1.0000 0.1194381733
C   C106      1.0  0.77300  0.76650  0.56950  1.0000 -0.216915208
C   C107      1.0  0.83570  0.73670  0.56650  1.0000 0.1088308966
C   C108      1.0  0.92660  0.79660  0.56914  1.0000 -0.216915208
C   C109      1.0  0.95410  0.88570  0.57425  1.0000 0.1088308966
C   C110      1.0  0.89180  0.91460  0.57770  1.0000 -0.1989397613
C   C111      1.0  0.26230  0.62180  0.26140  1.0000 -0.1492651541
C   C112      1.0  0.26950  0.70160  0.25580  1.0000 0.0603636558
C   C113      1.0  0.11710  0.64900  0.24820  1.0000 0.0894208519
C   C114      1.0  0.10470  0.56620  0.25330  1.0000 -0.1492651541
C   C115      1.0  0.17830  0.55260  0.26010  1.0000 0.0126029121
C   C116      1.0  0.16900  0.46400  0.26510  1.0000 0.4990805405
C   C117      1.0  0.06410  0.31580  0.26190  1.0000 -0.0705411019
C   C118      1.0  0.50480  0.07380  0.34000  1.0000 -0.1492651541
C   C119      1.0  0.41770  0.00590  0.33230  1.0000 0.070135191
C   C120      1.0  0.38910  0.00810  0.22020  1.0000 0.1009586426
C   C121      1.0  0.47530  0.07710  0.22300  1.0000 -0.1492651541
C   C122      1.0  0.53420  0.11080  0.28410  1.0000 -0.0123211966
C   C123      1.0  0.62760  0.18450  0.29180  1.0000 0.4907006926
C   C124      1.0  0.74380  0.26540  0.23160  1.0000 -0.0705411019
C   C125      1.0  0.03380  0.97600  0.25140  1.0000 -0.1676607964
C   C126      1.0  0.10580  0.96000  0.25270  1.0000 0.078799377
C   C127      1.0  0.01420  0.81330  0.24830  1.0000 0.078799377
C   C128      1.0  0.93930  0.82280  0.24610  1.0000 -0.1492651541
C   C129      1.0  0.94760  0.90610  0.24789  1.0000 -0.0001750596
C   C130      1.0  0.86400  0.91580  0.24740  1.0000 0.4832331382
C   C131      1.0  0.80830  0.01710  0.25820  1.0000 -0.0799536861
C   C132      1.0  0.84410  0.11330  0.25692  1.0000 0.1088308966
C   C133      1.0  0.78040  0.14280  0.24681  1.0000 -0.216915208
C   C134      1.0  0.80870  0.23000  0.24385  1.0000 0.1194381733
C   C135      1.0  0.90160  0.28760  0.25016  1.0000 -0.2098140798
C   C136      1.0  0.96440  0.25880  0.25896  1.0000 0.1088308966
C   C137      1.0  0.93560  0.17190  0.26382  1.0000 -0.216915208
C   C138      1.0  0.74260  0.74390  0.38920  1.0000 -0.1492651541
C   C139      1.0  0.73200  0.66060  0.37970  1.0000 0.0603636558
C   C140      1.0  0.88350  0.71260  0.38870  1.0000 0.078799377
C   C141      1.0  0.90120  0.79820  0.39950  1.0000 -0.1492651541
C   C142      1.0  0.82920  0.81460  0.39890  1.0000 0.0126029121
C   C143      1.0  0.84080  0.90590  0.40920  1.0000 0.4907006926
C   C144      1.0  0.94730  0.05560  0.42690  1.0000 -0.0705411019
C   C145      1.0  0.06330  0.54660  0.41420  1.0000 -0.1492651541
C   C146      1.0  0.98500  0.55280  0.39890  1.0000 0.078799377
C   C147      1.0  0.89420  0.40950  0.40280  1.0000 0.078799377
C   C148      1.0  0.96840  0.39690  0.41650  1.0000 -0.1676607964
C   C149      1.0  0.05480  0.46640  0.42278  1.0000 0.0180892031
C   C150      1.0  0.14030  0.45890  0.43630  1.0000 0.4907006926
C   C151      1.0  0.19840  0.36040  0.44140  1.0000 -0.0799536861
C   C152      1.0  0.52500  0.30710  0.41950  1.0000 -0.1603248772
C   C153      1.0  0.61010  0.37430  0.41690  1.0000 0.070135191
C   C154      1.0  0.57860  0.35520  0.30010  1.0000 0.0894208519
C   C155      1.0  0.49320  0.28630  0.29830  1.0000 -0.1492651541
C   C156      1.0  0.46570  0.26110  0.35870  1.0000 0.0025362463
C   C157      1.0  0.37250  0.18650  0.35650  1.0000 0.4907006926
C   C158      1.0  0.26630  0.10890  0.42360  1.0000 -0.0705411019
C   C159      1.0  0.19900  0.14430  0.42450  1.0000 0.1194381733
C   C160      1.0  0.22700  0.23350  0.43050  1.0000 -0.216915208
C   C161      1.0  0.16430  0.26330  0.43350  1.0000 0.1088308966
C   C162      1.0  0.07340  0.20340  0.43086  1.0000 -0.2098140798
C   C163      1.0  0.04590  0.11430  0.42575  1.0000 0.1088308966
C   C164      1.0  0.10820  0.08540  0.42230  1.0000 -0.1989397613
C   C165      1.0  0.80000  0.16870  0.49080  1.0000 0.4907006926
C   C166      1.0  0.19760  0.52280  0.88670  1.0000 0.4832331382
C   C167      1.0  0.20000  0.83130  0.50920  1.0000 0.4907006926
C   C168      1.0  0.80240  0.47720  0.11330  1.0000 0.4832331382
S   S1        1.0  0.78049  0.86330  0.90510  1.0000 0.9797640237
S   S2        1.0  0.21951  0.13670  0.09490  1.0000 0.9797640237
S   S3        1.0  0.83244  0.15639  0.57634  1.0000 0.9692481252
S   S4        1.0  0.16880  0.48193  0.79670  1.0000 0.9692481252
S   S5        1.0  0.16756  0.84361  0.42366  1.0000 0.9692481252
S   S6        1.0  0.83120  0.51807  0.20330  1.0000 0.9692481252
N   N1        1.0  0.94560  0.80900  0.07026  1.0000 -0.2098140798
N   N2        1.0  0.83960  0.96760  0.08670  1.0000 -0.1883226059
N   N3        1.0  0.69900  0.70260  0.07960  1.0000 -0.1883226059
N   N4        1.0  0.05440  0.19100  0.92974  1.0000 -0.2098140798
N   N5        1.0  0.16040  0.03240  0.91330  1.0000 -0.1883226059
N   N6        1.0  0.30100  0.29740  0.92040  1.0000 -0.1883226059
N   N7        1.0  0.80110  0.28210  0.74969  1.0000 -0.1883226059
N   N8        1.0  0.64030  0.02790  0.72699  1.0000 -0.1883226059
N   N9        1.0  0.90160  0.12000  0.74838  1.0000 -0.1883226059
N   N10       1.0  0.19860  0.35650  0.62128  1.0000 -0.1883226059
N   N11       1.0  0.09870  0.51360  0.60641  1.0000 -0.1989397613
N   N12       1.0  0.36290  0.60160  0.64143  1.0000 -0.1883226059
N   N13       1.0  0.19890  0.71790  0.25031  1.0000 -0.1883226059
N   N14       1.0  0.35970  0.97210  0.27301  1.0000 -0.1883226059
N   N15       1.0  0.09840  0.88000  0.25162  1.0000 -0.1883226059
N   N16       1.0  0.80140  0.64350  0.37872  1.0000 -0.1883226059
N   N17       1.0  0.90130  0.48640  0.39359  1.0000 -0.1989397613
N   N18       1.0  0.63710  0.39840  0.35857  1.0000 -0.1883226059
O   O1        1.0  0.25610  0.83268  0.09910  1.0000 -0.4592928534
O   O2        1.0  0.15828  0.68981  0.07750  1.0000 -0.2098140798
O   O3        1.0  0.81271  0.23932  0.07121  1.0000 -0.4355937747
O   O4        1.0  0.96290  0.28585  0.09091  1.0000 -0.2098140798
O   O5        1.0  0.46040  0.43190  0.14640  1.0000 -0.4592928534
O   O6        1.0  0.38556  0.48840  0.08822  1.0000 -0.2315433232
O   O7        1.0  0.73180  0.80060  0.94590  1.0000 -0.5600967911
O   O8        1.0  0.73540  0.90940  0.88080  1.0000 -0.5531735776
O   O9        1.0  0.87550  0.91690  0.93350  1.0000 -0.5796170143
O   O10       1.0  0.74390  0.16732  0.90090  1.0000 -0.4592928534
O   O11       1.0  0.84172  0.31019  0.92250  1.0000 -0.2098140798
O   O12       1.0  0.18729  0.76068  0.92879  1.0000 -0.4355937747
O   O13       1.0  0.03710  0.71415  0.90909  1.0000 -0.2098140798
O   O14       1.0  0.53960  0.56810  0.85360  1.0000 -0.4592928534
O   O15       1.0  0.61444  0.51160  0.91178  1.0000 -0.2315433232
O   O16       1.0  0.26820  0.19940  0.05410  1.0000 -0.5600967911
O   O17       1.0  0.26460  0.09060  0.11920  1.0000 -0.5531735776
O   O18       1.0  0.12450  0.08310  0.06650  1.0000 -0.5796170143
O   O19       1.0  0.76952  0.55160  0.72982  1.0000 -0.422098836
O   O20       1.0  0.91806  0.59553  0.73771  1.0000 -0.2098140798
O   O21       1.0  0.32292  0.77520  0.65420  1.0000 -0.4509787393
O   O22       1.0  0.34918  0.79989  0.76908  1.0000 -0.216915208
O   O23       1.0  0.21150  0.14478  0.75848  1.0000 -0.4592928534
O   O24       1.0  0.11585  0.00035  0.74316  1.0000 -0.2098140798
O   O25       1.0  0.21983  0.07787  0.58818  1.0000 -0.427548757
O   O26       1.0  0.07204  0.03446  0.58669  1.0000 -0.2098140798
O   O27       1.0  0.78535  0.48098  0.55435  1.0000 -0.4592928534
O   O28       1.0  0.87936  0.62458  0.56573  1.0000 -0.216915208
O   O29       1.0  0.67870  0.85710  0.69554  1.0000 -0.4509787393
O   O30       1.0  0.64442  0.82471  0.58070  1.0000 -0.216915208
O   O31       1.0  0.23048  0.44840  0.27018  1.0000 -0.422098836
O   O32       1.0  0.08194  0.40447  0.26229  1.0000 -0.2098140798
O   O33       1.0  0.67708  0.22480  0.34580  1.0000 -0.4509787393
O   O34       1.0  0.65082  0.20011  0.23092  1.0000 -0.216915208
O   O35       1.0  0.78850  0.85522  0.24152  1.0000 -0.4592928534
O   O36       1.0  0.88415  0.99965  0.25684  1.0000 -0.2098140798
O   O37       1.0  0.78017  0.92213  0.41182  1.0000 -0.427548757
O   O38       1.0  0.92796  0.96554  0.41331  1.0000 -0.2098140798
O   O39       1.0  0.21465  0.51902  0.44565  1.0000 -0.4592928534
O   O40       1.0  0.12064  0.37542  0.43427  1.0000 -0.216915208
O   O41       1.0  0.32130  0.14290  0.30446  1.0000 -0.4509787393
O   O42       1.0  0.35558  0.17529  0.41930  1.0000 -0.216915208
O   O43       1.0  0.74814  0.12030  0.60135  1.0000 -0.5531735776
O   O44       1.0  0.89720  0.24320  0.60948  1.0000 -0.5600967911
O   O45       1.0  0.86900  0.09808  0.56561  1.0000 -0.5600967911
O   O46       1.0  0.25520  0.51540  0.77517  1.0000 -0.5600967911
O   O47       1.0  0.11440  0.52100  0.77340  1.0000 -0.5796170143
O   O48       1.0  0.12170  0.38980  0.79320  1.0000 -0.5600967911
O   O49       1.0  0.25186  0.87970  0.39865  1.0000 -0.5531735776
O   O50       1.0  0.10280  0.75680  0.39052  1.0000 -0.5600967911
O   O51       1.0  0.13100  0.90192  0.43439  1.0000 -0.5600967911
O   O52       1.0  0.74480  0.48460  0.22483  1.0000 -0.5600967911
O   O53       1.0  0.88560  0.47900  0.22660  1.0000 -0.5796170143
O   O54       1.0  0.87830  0.61020  0.20680  1.0000 -0.5600967911
F   F1        1.0  0.69625  0.73950  0.79793  1.0000 -0.1603248772
F   F2        1.0  0.82180  0.75200  0.84700  1.0000 -0.1793904436
F   F3        1.0  0.82360  0.84440  0.78561  1.0000 -0.1793904436
F   F4        1.0  0.30375  0.26050  0.20207  1.0000 -0.1676607964
F   F5        1.0  0.17820  0.24800  0.15300  1.0000 -0.1883226059
F   F6        1.0  0.17640  0.15560  0.21439  1.0000 -0.1793904436
F   F7        1.0  0.77100  0.22830  0.49269  1.0000 -0.1793904436
F   F8        1.0  0.73450  0.09540  0.45389  1.0000 -0.1676607964
F   F9        1.0  0.87000  0.19770  0.45829  1.0000 -0.1883226059
F   F10       1.0  0.24820  0.49440  0.91957  1.0000 -0.1676607964
F   F11       1.0  0.12310  0.49780  0.91478  1.0000 -0.1793904436
F   F12       1.0  0.24230  0.60856  0.90094  1.0000 -0.1603248772
F   F13       1.0  0.22900  0.77170  0.50731  1.0000 -0.1793904436
F   F14       1.0  0.26550  0.90460  0.54611  1.0000 -0.1676607964
F   F15       1.0  0.13000  0.80230  0.54171  1.0000 -0.1883226059
F   F16       1.0  0.75180  0.50560  0.08043  1.0000 -0.1793904436
F   F17       1.0  0.87690  0.50220  0.08522  1.0000 -0.1793904436
F   F18       1.0  0.75770  0.39144  0.09906  1.0000 -0.1603248772
