# DDEC6 charges by PACMAN v1.1 (https://github.com/mtap-research/PACMAN-charge/)
data_2017[Nd][sql]2[ION]1
_chemical_formula_sum              "Nd4 H84 C42 N6 Cl2 O38"
_cell_length_a       11.8493
_cell_length_b       12.9278
_cell_length_c       14.7952
_cell_angle_alpha    93.099
_cell_angle_beta     104.009
_cell_angle_gamma    95.959

_symmetry_space_group_name_H-M    "P 1"
_symmetry_Int_Tables_number       1

loop_
  _symmetry_equiv_pos_as_xyz
  'x, y, z'

loop_
  _atom_site_type_symbol
  _atom_site_label
  _atom_site_symmetry_multiplicity
  _atom_site_fract_x
  _atom_site_fract_y
  _atom_site_fract_z
  _atom_site_occupancy
  _atom_site_charge
Nd  Nd1       1.0  0.83497  0.42439  0.41617  1.0000 2.0675643227
Nd  Nd2       1.0  0.63376  0.47970  0.12893  1.0000 2.1468278906
Nd  Nd3       1.0  0.16503  0.57561  0.58383  1.0000 2.0675643227
Nd  Nd4       1.0  0.36624  0.52030  0.87107  1.0000 2.1468278906
H   H1        1.0  0.84820  0.19160  0.41040  1.0000 0.4037153415
H   H2        1.0  0.73610  0.20620  0.43960  1.0000 0.40871182
H   H3        1.0  0.88090  0.48240  0.10690  1.0000 0.3267613194
H   H4        1.0  0.85830  0.58850  0.09750  1.0000 0.2938829801
H   H5        1.0  0.77340  0.41190  0.59440  1.0000 0.3417866371
H   H6        1.0  0.89340  0.45700  0.61870  1.0000 0.3699380896
H   H7        1.0  0.73240  0.72660  0.70520  1.0000 0.2234547354
H   H8        1.0  0.79650  0.69520  0.11330  1.0000 0.2260674975
H   H9        1.0  0.69980  0.26650  0.03000  1.0000 0.2537410549
H   H10       1.0  0.70810  0.76320  0.51710  1.0000 0.1108694225
H   H11       1.0  0.77250  0.84810  0.59740  1.0000 0.0972428984
H   H12       1.0  0.92390  0.78190  0.57520  1.0000 0.1412094128
H   H13       1.0  0.89650  0.70990  0.65050  1.0000 0.1310031391
H   H14       1.0  0.68450  0.57570  0.60810  1.0000 0.075862392
H   H15       1.0  0.57390  0.61910  0.54820  1.0000 0.1108694225
H   H16       1.0  0.55910  0.50200  0.67990  1.0000 0.1498254902
H   H17       1.0  0.58300  0.61000  0.73830  1.0000 0.1412094128
H   H18       1.0  0.55680  0.77410  0.70410  1.0000 0.1310031391
H   H19       1.0  0.53180  0.79420  0.59790  1.0000 0.1310031391
H   H20       1.0  0.62810  0.86780  0.67170  1.0000 0.1310031391
H   H21       1.0  0.81010  0.81720  0.24240  1.0000 0.1108694225
H   H22       1.0  0.92890  0.86820  0.22610  1.0000 0.0972428984
H   H23       1.0  0.97200  0.75530  0.34060  1.0000 0.1498254902
H   H24       1.0  0.00790  0.71020  0.25270  1.0000 0.1310031391
H   H25       1.0  0.78710  0.89930  0.06200  1.0000 0.0972428984
H   H26       1.0  0.69060  0.83920  0.10200  1.0000 0.1108694225
H   H27       1.0  0.98140  0.70460  0.09840  1.0000 0.1108694225
H   H28       1.0  0.98760  0.82450  0.08570  1.0000 0.1229036405
H   H29       1.0  0.90840  0.74450  0.00660  1.0000 0.1310031391
H   H30       1.0  0.57010  0.21890  0.83130  1.0000 0.1498254902
H   H31       1.0  0.64660  0.29870  0.78840  1.0000 0.1412094128
H   H32       1.0  0.76340  0.18840  0.87250  1.0000 0.0903330493
H   H33       1.0  0.80150  0.30270  0.91830  1.0000 0.0903330493
H   H34       1.0  0.66280  0.05680  0.96240  1.0000 0.1229036405
H   H35       1.0  0.56450  0.13110  0.94550  1.0000 0.1310031391
H   H36       1.0  0.62170  0.10410  0.04720  1.0000 0.1310031391
H   H37       1.0  0.92390  0.17690  0.19480  1.0000 0.1310031391
H   H38       1.0  0.79240  0.12860  0.16800  1.0000 0.1498254902
H   H39       1.0  0.90170  0.24720  0.05260  1.0000 0.0903330493
H   H40       1.0  0.86480  0.12640  0.03690  1.0000 0.0903330493
H   H41       1.0  0.63490  0.83230  0.93720  1.0000 0.1498254902
H   H42       1.0  0.74300  0.77390  0.93280  1.0000 0.1310031391
H   H43       1.0  0.15180  0.80840  0.58960  1.0000 0.4037153415
H   H44       1.0  0.26390  0.79380  0.56040  1.0000 0.40871182
H   H45       1.0  0.11910  0.51760  0.89310  1.0000 0.3267613194
H   H46       1.0  0.14170  0.41150  0.90250  1.0000 0.2938829801
H   H47       1.0  0.22660  0.58810  0.40560  1.0000 0.3417866371
H   H48       1.0  0.10660  0.54300  0.38130  1.0000 0.3699380896
H   H49       1.0  0.26760  0.27340  0.29480  1.0000 0.2234547354
H   H50       1.0  0.20350  0.30480  0.88670  1.0000 0.2260674975
H   H51       1.0  0.30020  0.73350  0.97000  1.0000 0.2537410549
H   H52       1.0  0.29190  0.23680  0.48290  1.0000 0.1108694225
H   H53       1.0  0.22750  0.15190  0.40260  1.0000 0.0972428984
H   H54       1.0  0.07610  0.21810  0.42480  1.0000 0.1412094128
H   H55       1.0  0.10350  0.29010  0.34950  1.0000 0.1310031391
H   H56       1.0  0.31550  0.42430  0.39190  1.0000 0.075862392
H   H57       1.0  0.42610  0.38090  0.45180  1.0000 0.1108694225
H   H58       1.0  0.44090  0.49800  0.32010  1.0000 0.1498254902
H   H59       1.0  0.41700  0.39000  0.26170  1.0000 0.1412094128
H   H60       1.0  0.44320  0.22590  0.29590  1.0000 0.1310031391
H   H61       1.0  0.46820  0.20580  0.40210  1.0000 0.1310031391
H   H62       1.0  0.37190  0.13220  0.32830  1.0000 0.1310031391
H   H63       1.0  0.18990  0.18280  0.75760  1.0000 0.1108694225
H   H64       1.0  0.07110  0.13180  0.77390  1.0000 0.0972428984
H   H65       1.0  0.02800  0.24470  0.65940  1.0000 0.1498254902
H   H66       1.0  0.99210  0.28980  0.74730  1.0000 0.1310031391
H   H67       1.0  0.21290  0.10070  0.93800  1.0000 0.0972428984
H   H68       1.0  0.30940  0.16080  0.89800  1.0000 0.1108694225
H   H69       1.0  0.01860  0.29540  0.90160  1.0000 0.1108694225
H   H70       1.0  0.01240  0.17550  0.91430  1.0000 0.1229036405
H   H71       1.0  0.09160  0.25550  0.99340  1.0000 0.1310031391
H   H72       1.0  0.42990  0.78110  0.16870  1.0000 0.1498254902
H   H73       1.0  0.35340  0.70130  0.21160  1.0000 0.1412094128
H   H74       1.0  0.23660  0.81160  0.12750  1.0000 0.0903330493
H   H75       1.0  0.19850  0.69730  0.08170  1.0000 0.0903330493
H   H76       1.0  0.33720  0.94320  0.03760  1.0000 0.1229036405
H   H77       1.0  0.43550  0.86890  0.05450  1.0000 0.1310031391
H   H78       1.0  0.37830  0.89590  0.95280  1.0000 0.1310031391
H   H79       1.0  0.07610  0.82310  0.80520  1.0000 0.1310031391
H   H80       1.0  0.20760  0.87140  0.83200  1.0000 0.1498254902
H   H81       1.0  0.09830  0.75280  0.94740  1.0000 0.0903330493
H   H82       1.0  0.13520  0.87360  0.96310  1.0000 0.0903330493
H   H83       1.0  0.36510  0.16770  0.06280  1.0000 0.1498254902
H   H84       1.0  0.25700  0.22610  0.06720  1.0000 0.1310031391
C   C1        1.0  0.75430  0.77340  0.58140  1.0000 -0.0694444076
C   C2        1.0  0.86730  0.72780  0.58690  1.0000 -0.3798368855
C   C3        1.0  0.86400  0.63330  0.52220  1.0000 0.6417921326
C   C4        1.0  0.62390  0.62000  0.61080  1.0000 -0.0694444076
C   C5        1.0  0.55030  0.57560  0.67620  1.0000 -0.3798368855
C   C6        1.0  0.42190  0.58620  0.64910  1.0000 0.6605341426
C   C7        1.0  0.59150  0.79720  0.65530  1.0000 -0.3388752797
C   C8        1.0  0.87730  0.80330  0.21910  1.0000 -0.0646511995
C   C9        1.0  0.94160  0.72450  0.27700  1.0000 -0.3798368855
C   C10       1.0  0.86750  0.62210  0.27870  1.0000 0.6605341426
C   C11       1.0  0.74820  0.83060  0.06630  1.0000 -0.0694444076
C   C12       1.0  0.93760  0.75930  0.07290  1.0000 -0.3798368855
C   C13       1.0  0.58030  0.36810  0.88850  1.0000 0.6783604465
C   C14       1.0  0.63000  0.27860  0.84650  1.0000 -0.3580820221
C   C15       1.0  0.73950  0.24480  0.90680  1.0000 -0.0694444076
C   C16       1.0  0.63590  0.11700  0.98740  1.0000 -0.3580820221
C   C17       1.0  0.81290  0.28550  0.20620  1.0000 0.6783604465
C   C18       1.0  0.84570  0.18810  0.16100  1.0000 -0.3798368855
C   C19       1.0  0.84320  0.19170  0.05910  1.0000 -0.0831769862
C   C20       1.0  0.61150  0.67960  0.96500  1.0000 0.6711186907
C   C21       1.0  0.68510  0.78330  0.96800  1.0000 -0.3798368855
C   C22       1.0  0.24570  0.22660  0.41860  1.0000 -0.0694444076
C   C23       1.0  0.13270  0.27220  0.41310  1.0000 -0.3798368855
C   C24       1.0  0.13600  0.36670  0.47780  1.0000 0.6417921326
C   C25       1.0  0.37610  0.38000  0.38920  1.0000 -0.0694444076
C   C26       1.0  0.44970  0.42440  0.32380  1.0000 -0.3798368855
C   C27       1.0  0.57810  0.41380  0.35090  1.0000 0.6605341426
C   C28       1.0  0.40850  0.20280  0.34470  1.0000 -0.3388752797
C   C29       1.0  0.12270  0.19670  0.78090  1.0000 -0.0646511995
C   C30       1.0  0.05840  0.27550  0.72300  1.0000 -0.3798368855
C   C31       1.0  0.13250  0.37790  0.72130  1.0000 0.6605341426
C   C32       1.0  0.25180  0.16940  0.93370  1.0000 -0.0694444076
C   C33       1.0  0.06240  0.24070  0.92710  1.0000 -0.3798368855
C   C34       1.0  0.41970  0.63190  0.11150  1.0000 0.6783604465
C   C35       1.0  0.37000  0.72140  0.15350  1.0000 -0.3580820221
C   C36       1.0  0.26050  0.75520  0.09320  1.0000 -0.0694444076
C   C37       1.0  0.36410  0.88300  0.01260  1.0000 -0.3580820221
C   C38       1.0  0.18710  0.71450  0.79380  1.0000 0.6783604465
C   C39       1.0  0.15430  0.81190  0.83900  1.0000 -0.3798368855
C   C40       1.0  0.15680  0.80830  0.94090  1.0000 -0.0831769862
C   C41       1.0  0.38850  0.32040  0.03500  1.0000 0.6711186907
C   C42       1.0  0.31490  0.21670  0.03200  1.0000 -0.3798368855
N   N1        1.0  0.67980  0.72930  0.64330  1.0000 0.0180057484
N   N2        1.0  0.83630  0.76620  0.11710  1.0000 -0.0001983818
N   N3        1.0  0.72710  0.20920  0.99830  1.0000 0.0180057484
N   N4        1.0  0.32020  0.27070  0.35670  1.0000 0.0180057484
N   N5        1.0  0.16370  0.23380  0.88290  1.0000 -0.0001983818
N   N6        1.0  0.27290  0.79080  0.00170  1.0000 0.0180057484
Cl  Cl1       1.0  0.40100  0.98120  0.74360  1.0000 1.1300844095
Cl  Cl2       1.0  0.59900  0.01880  0.25640  1.0000 1.1300844095
O   O1        1.0  0.95690  0.58850  0.53010  1.0000 -0.7714909472
O   O2        1.0  0.77320  0.59730  0.46190  1.0000 -0.6225247838
O   O3        1.0  0.36040  0.56380  0.70760  1.0000 -0.7600872972
O   O4        1.0  0.37270  0.61260  0.57130  1.0000 -0.6444943406
O   O5        1.0  0.91370  0.55070  0.32240  1.0000 -0.6894670286
O   O6        1.0  0.85470  0.30830  0.29070  1.0000 -0.674601511
O   O7        1.0  0.81590  0.23660  0.44910  1.0000 -0.8088192203
O   O8        1.0  0.53090  0.65180  0.89410  1.0000 -0.6786818661
O   O9        1.0  0.74360  0.33610  0.15420  1.0000 -0.6786818661
O   O10       1.0  0.82820  0.52260  0.08030  1.0000 -0.7780638196
O   O11       1.0  0.61680  0.39270  0.97480  1.0000 -0.7099296906
O   O12       1.0  0.76130  0.61530  0.23420  1.0000 -0.6894670286
O   O13       1.0  0.84280  0.40730  0.58280  1.0000 -0.7714909472
O   O14       1.0  0.50630  0.41130  0.83390  1.0000 -0.674601511
O   O15       1.0  0.63670  0.62730  0.03490  1.0000 -0.7099296906
O   O16       1.0  0.04310  0.41150  0.46990  1.0000 -0.7714909472
O   O17       1.0  0.22680  0.40270  0.53810  1.0000 -0.6225247838
O   O18       1.0  0.63960  0.43620  0.29240  1.0000 -0.7600872972
O   O19       1.0  0.62730  0.38740  0.42870  1.0000 -0.6444943406
O   O20       1.0  0.08630  0.44930  0.67760  1.0000 -0.6894670286
O   O21       1.0  0.14530  0.69170  0.70930  1.0000 -0.674601511
O   O22       1.0  0.18410  0.76340  0.55090  1.0000 -0.8088192203
O   O23       1.0  0.46910  0.34820  0.10590  1.0000 -0.6786818661
O   O24       1.0  0.25640  0.66390  0.84580  1.0000 -0.6786818661
O   O25       1.0  0.17180  0.47740  0.91970  1.0000 -0.7780638196
O   O26       1.0  0.38320  0.60730  0.02520  1.0000 -0.7099296906
O   O27       1.0  0.23870  0.38470  0.76580  1.0000 -0.6894670286
O   O28       1.0  0.15720  0.59270  0.41720  1.0000 -0.7714909472
O   O29       1.0  0.49370  0.58870  0.16610  1.0000 -0.674601511
O   O30       1.0  0.36330  0.37270  0.96510  1.0000 -0.7099296906
O   O31       1.0  0.38240  0.03940  0.80850  1.0000 -0.4289711424
O   O32       1.0  0.50710  0.01970  0.72290  1.0000 -0.5161018529
O   O33       1.0  0.32400  0.93720  0.68380  1.0000 -0.3580820221
O   O34       1.0  0.43600  0.88460  0.79680  1.0000 -0.5057609537
O   O35       1.0  0.61760  0.96060  0.19150  1.0000 -0.4289711424
O   O36       1.0  0.49290  0.98030  0.27710  1.0000 -0.5161018529
O   O37       1.0  0.67600  0.06280  0.31620  1.0000 -0.3580820221
O   O38       1.0  0.56400  0.11540  0.20320  1.0000 -0.5057609537
