# DDEC6 charges by PACMAN v1.1 (https://github.com/mtap-research/PACMAN-charge/)
data_2017[Ag][srs]3[ION]4
_chemical_formula_sum              "Ag6 H108 C144 N40 Cl18 O24"
_cell_length_a       18.4713
_cell_length_b       18.4713
_cell_length_c       18.4713
_cell_angle_alpha    109.471
_cell_angle_beta     109.471
_cell_angle_gamma    109.471

_symmetry_space_group_name_H-M    "P 1"
_symmetry_Int_Tables_number       1

loop_
  _symmetry_equiv_pos_as_xyz
  'x, y, z'

loop_
  _atom_site_type_symbol
  _atom_site_label
  _atom_site_symmetry_multiplicity
  _atom_site_fract_x
  _atom_site_fract_y
  _atom_site_fract_z
  _atom_site_occupancy
  _atom_site_charge
Ag  Ag1       1.0  0.75000  0.46136  0.71136  1.0000 0.2969507282
Ag  Ag2       1.0  0.25000  0.03864  0.78864  1.0000 0.2969507282
Ag  Ag3       1.0  0.03864  0.78864  0.25000  1.0000 0.2969507282
Ag  Ag4       1.0  0.46136  0.71136  0.75000  1.0000 0.2969507282
Ag  Ag5       1.0  0.71136  0.75000  0.46136  1.0000 0.2969507282
Ag  Ag6       1.0  0.78864  0.25000  0.03864  1.0000 0.2969507282
H   H1        1.0  0.95370  0.54120  0.60270  1.0000 0.1292155638
H   H2        1.0  0.82010  0.49280  0.60190  1.0000 0.1105470196
H   H3        1.0  0.72090  0.25670  0.39280  1.0000 0.1292155638
H   H4        1.0  0.85340  0.30100  0.39480  1.0000 0.1208161071
H   H5        1.0  0.62050  0.28540  0.43750  1.0000 0.1208161071
H   H6        1.0  0.41170  0.29460  0.50870  1.0000 0.1543858752
H   H7        1.0  0.37480  0.33310  0.61830  1.0000 0.1105470196
H   H8        1.0  0.48460  0.41390  0.76610  1.0000 0.1292155638
H   H9        1.0  0.52730  0.29630  0.47660  1.0000 0.2813722819
H   H10       1.0  0.43850  0.35100  0.89730  1.0000 0.1292155638
H   H11       1.0  0.39090  0.21820  0.89810  1.0000 0.1105470196
H   H12       1.0  0.36390  0.32810  0.10720  1.0000 0.1292155638
H   H13       1.0  0.40620  0.45860  0.10520  1.0000 0.1208161071
H   H14       1.0  0.34790  0.18300  0.06250  1.0000 0.1208161071
H   H15       1.0  0.28590  0.90300  0.99130  1.0000 0.1543858752
H   H16       1.0  0.21480  0.75650  0.88170  1.0000 0.1105470196
H   H17       1.0  0.14780  0.71850  0.73390  1.0000 0.1292155638
H   H18       1.0  0.31970  0.05070  0.02340  1.0000 0.2813722819
H   H19       1.0  0.54630  0.14900  0.58750  1.0000 0.1292155638
H   H20       1.0  0.67990  0.28180  0.67270  1.0000 0.1105470196
H   H21       1.0  0.77910  0.17190  0.53580  1.0000 0.1292155638
H   H22       1.0  0.64660  0.04140  0.44760  1.0000 0.1208161071
H   H23       1.0  0.87950  0.31700  0.66490  1.0000 0.1105470196
H   H24       1.0  0.08830  0.59700  0.88290  1.0000 0.1543858752
H   H25       1.0  0.12520  0.74350  0.95830  1.0000 0.1105470196
H   H26       1.0  0.01540  0.78150  0.92930  1.0000 0.1292155638
H   H27       1.0  0.97270  0.44930  0.76900  1.0000 0.2813722819
H   H28       1.0  0.06150  0.95880  0.91250  1.0000 0.1292155638
H   H29       1.0  0.10910  0.00720  0.82730  1.0000 0.1105470196
H   H30       1.0  0.13610  0.24330  0.96420  1.0000 0.1292155638
H   H31       1.0  0.09380  0.19900  0.05240  1.0000 0.1208161071
H   H32       1.0  0.15210  0.21460  0.83510  1.0000 0.1105470196
H   H33       1.0  0.21410  0.20540  0.61710  1.0000 0.1543858752
H   H34       1.0  0.28520  0.16690  0.54170  1.0000 0.1105470196
H   H35       1.0  0.35220  0.08610  0.57070  1.0000 0.1292155638
H   H36       1.0  0.18030  0.20370  0.73100  1.0000 0.2813722819
H   H37       1.0  0.95880  0.91250  0.06150  1.0000 0.1292155638
H   H38       1.0  0.00720  0.82730  0.10910  1.0000 0.1105470196
H   H39       1.0  0.24330  0.96420  0.13610  1.0000 0.1292155638
H   H40       1.0  0.19900  0.05240  0.09380  1.0000 0.1208161071
H   H41       1.0  0.21460  0.83510  0.15210  1.0000 0.1105470196
H   H42       1.0  0.20540  0.61710  0.21410  1.0000 0.1543858752
H   H43       1.0  0.16690  0.54170  0.28520  1.0000 0.1105470196
H   H44       1.0  0.08610  0.57070  0.35220  1.0000 0.1292155638
H   H45       1.0  0.20370  0.73100  0.18030  1.0000 0.2813722819
H   H46       1.0  0.14900  0.58750  0.54630  1.0000 0.1292155638
H   H47       1.0  0.28180  0.67270  0.67990  1.0000 0.1105470196
H   H48       1.0  0.17190  0.53580  0.77910  1.0000 0.1292155638
H   H49       1.0  0.04140  0.44760  0.64660  1.0000 0.1208161071
H   H50       1.0  0.31700  0.66490  0.87950  1.0000 0.1105470196
H   H51       1.0  0.59700  0.88290  0.08830  1.0000 0.1543858752
H   H52       1.0  0.74350  0.95830  0.12520  1.0000 0.1105470196
H   H53       1.0  0.78150  0.92930  0.01540  1.0000 0.1292155638
H   H54       1.0  0.44930  0.76900  0.97270  1.0000 0.2813722819
H   H55       1.0  0.35100  0.89730  0.43850  1.0000 0.1292155638
H   H56       1.0  0.21820  0.89810  0.39090  1.0000 0.1105470196
H   H57       1.0  0.32810  0.10720  0.36390  1.0000 0.1292155638
H   H58       1.0  0.45860  0.10520  0.40620  1.0000 0.1208161071
H   H59       1.0  0.18300  0.06250  0.34790  1.0000 0.1105470196
H   H60       1.0  0.90300  0.99130  0.28590  1.0000 0.1543858752
H   H61       1.0  0.75650  0.88170  0.21480  1.0000 0.1105470196
H   H62       1.0  0.71850  0.73390  0.14780  1.0000 0.1292155638
H   H63       1.0  0.05070  0.02340  0.31970  1.0000 0.2813722819
H   H64       1.0  0.54120  0.60270  0.95370  1.0000 0.1292155638
H   H65       1.0  0.49280  0.60190  0.82010  1.0000 0.1105470196
H   H66       1.0  0.25670  0.39280  0.72090  1.0000 0.1292155638
H   H67       1.0  0.30100  0.39480  0.85340  1.0000 0.1208161071
H   H68       1.0  0.28540  0.43750  0.62050  1.0000 0.1208161071
H   H69       1.0  0.29460  0.50870  0.41170  1.0000 0.1543858752
H   H70       1.0  0.33310  0.61830  0.37480  1.0000 0.1105470196
H   H71       1.0  0.41390  0.76610  0.48460  1.0000 0.1292155638
H   H72       1.0  0.29630  0.47660  0.52730  1.0000 0.2813722819
H   H73       1.0  0.58750  0.54630  0.14900  1.0000 0.1292155638
H   H74       1.0  0.67270  0.67990  0.28180  1.0000 0.1105470196
H   H75       1.0  0.53580  0.77910  0.17190  1.0000 0.1292155638
H   H76       1.0  0.44760  0.64660  0.04140  1.0000 0.1208161071
H   H77       1.0  0.66490  0.87950  0.31700  1.0000 0.1208161071
H   H78       1.0  0.88290  0.08830  0.59700  1.0000 0.1543858752
H   H79       1.0  0.95830  0.12520  0.74350  1.0000 0.1105470196
H   H80       1.0  0.92930  0.01540  0.78150  1.0000 0.1292155638
H   H81       1.0  0.76900  0.97270  0.44930  1.0000 0.2813722819
H   H82       1.0  0.91250  0.06150  0.95880  1.0000 0.1292155638
H   H83       1.0  0.82730  0.10910  0.00720  1.0000 0.1105470196
H   H84       1.0  0.96420  0.13610  0.24330  1.0000 0.1292155638
H   H85       1.0  0.05240  0.09380  0.19900  1.0000 0.1208161071
H   H86       1.0  0.83510  0.15210  0.21460  1.0000 0.1105470196
H   H87       1.0  0.61710  0.21410  0.20540  1.0000 0.1543858752
H   H88       1.0  0.54170  0.28520  0.16690  1.0000 0.1105470196
H   H89       1.0  0.57070  0.35220  0.08610  1.0000 0.1292155638
H   H90       1.0  0.73100  0.18030  0.20370  1.0000 0.2813722819
H   H91       1.0  0.60270  0.95370  0.54120  1.0000 0.1292155638
H   H92       1.0  0.60190  0.82010  0.49280  1.0000 0.1105470196
H   H93       1.0  0.39280  0.72090  0.25670  1.0000 0.1292155638
H   H94       1.0  0.39480  0.85340  0.30100  1.0000 0.1208161071
H   H95       1.0  0.43750  0.62050  0.28540  1.0000 0.1208161071
H   H96       1.0  0.50870  0.41170  0.29460  1.0000 0.1543858752
H   H97       1.0  0.61830  0.37480  0.33310  1.0000 0.1105470196
H   H98       1.0  0.76610  0.48460  0.41390  1.0000 0.1292155638
H   H99       1.0  0.47660  0.52730  0.29630  1.0000 0.2813722819
H   H100      1.0  0.89730  0.43850  0.35100  1.0000 0.1292155638
H   H101      1.0  0.89810  0.39090  0.21820  1.0000 0.1105470196
H   H102      1.0  0.10720  0.36390  0.32810  1.0000 0.1292155638
H   H103      1.0  0.10520  0.40620  0.45860  1.0000 0.1208161071
H   H104      1.0  0.06250  0.34790  0.18300  1.0000 0.1208161071
H   H105      1.0  0.99130  0.28590  0.90300  1.0000 0.1543858752
H   H106      1.0  0.88170  0.21480  0.75650  1.0000 0.1105470196
H   H107      1.0  0.73390  0.14780  0.71850  1.0000 0.1292155638
H   H108      1.0  0.02340  0.31970  0.05070  1.0000 0.2813722819
C   C1        1.0  0.91810  0.42620  0.49930  1.0000 0.1784042597
C   C2        1.0  0.90690  0.48310  0.56060  1.0000 -0.1939662839
C   C3        1.0  0.82670  0.45430  0.55960  1.0000 -0.1370611968
C   C4        1.0  0.75620  0.36930  0.49670  1.0000 0.0600076658
C   C5        1.0  0.76840  0.31420  0.43600  1.0000 -0.1174179717
C   C6        1.0  0.84710  0.34050  0.43660  1.0000 -0.1832250376
C   C7        1.0  0.66900  0.33660  0.49020  1.0000 -0.0060440028
C   C8        1.0  0.54500  0.35850  0.59430  1.0000 0.3335406239
C   C9        1.0  0.45570  0.32890  0.56880  1.0000 -0.2326290683
C   C10       1.0  0.43430  0.35110  0.63380  1.0000 -0.0060440028
C   C11       1.0  0.49850  0.39910  0.72060  1.0000 -0.2326290683
C   C12       1.0  0.58360  0.42480  0.73920  1.0000 0.2813722819
C   C13       1.0  0.42690  0.41880  0.00070  1.0000 0.1784042597
C   C14       1.0  0.42250  0.34630  0.93940  1.0000 -0.1939662839
C   C15       1.0  0.39470  0.26710  0.94040  1.0000 -0.1370611968
C   C16       1.0  0.37260  0.25950  0.00330  1.0000 0.0600076658
C   C17       1.0  0.37820  0.33240  0.06400  1.0000 -0.1174179717
C   C18       1.0  0.40390  0.41050  0.06340  1.0000 -0.1832250376
C   C19       1.0  0.34640  0.17880  0.00980  1.0000 -0.0060440028
C   C20       1.0  0.26420  0.95070  0.90570  1.0000 0.3335406239
C   C21       1.0  0.26010  0.88690  0.93120  1.0000 -0.2326290683
C   C22       1.0  0.21730  0.80050  0.86620  1.0000 -0.0060440028
C   C23       1.0  0.17850  0.77790  0.77940  1.0000 -0.2326290683
C   C24       1.0  0.18560  0.84440  0.76080  1.0000 0.2813722819
C   C25       1.0  0.58190  0.08120  0.50810  1.0000 0.1784042597
C   C26       1.0  0.59310  0.15370  0.57620  1.0000 -0.1939662839
C   C27       1.0  0.67330  0.23290  0.62760  1.0000 -0.1370611968
C   C28       1.0  0.74380  0.24050  0.61310  1.0000 0.0600076658
C   C29       1.0  0.73160  0.16760  0.54580  1.0000 -0.1174179717
C   C30       1.0  0.65290  0.08950  0.49340  1.0000 -0.1832250376
C   C31       1.0  0.83100  0.32120  0.66760  1.0000 -0.0060440028
C   C32       1.0  0.95500  0.54930  0.81350  1.0000 0.3335406239
C   C33       1.0  0.04430  0.61310  0.87320  1.0000 -0.2326290683
C   C34       1.0  0.06570  0.69950  0.91680  1.0000 -0.0060440028
C   C35       1.0  0.00150  0.72210  0.90060  1.0000 -0.2326290683
C   C36       1.0  0.91640  0.65560  0.84120  1.0000 0.2813722819
C   C37       1.0  0.07310  0.07380  0.99190  1.0000 0.1784042597
C   C38       1.0  0.07750  0.01690  0.92380  1.0000 -0.1939662839
C   C39       1.0  0.10530  0.04570  0.87240  1.0000 -0.1370611968
C   C40       1.0  0.12740  0.13070  0.88690  1.0000 0.0600076658
C   C41       1.0  0.12180  0.18580  0.95420  1.0000 -0.1174179717
C   C42       1.0  0.09610  0.15950  0.00660  1.0000 -0.1832250376
C   C43       1.0  0.15360  0.16340  0.83240  1.0000 -0.0060440028
C   C44       1.0  0.23580  0.14150  0.68650  1.0000 0.3335406239
C   C45       1.0  0.23990  0.17110  0.62680  1.0000 -0.2326290683
C   C46       1.0  0.28270  0.14890  0.58320  1.0000 -0.0060440028
C   C47       1.0  0.32150  0.10090  0.59940  1.0000 -0.2326290683
C   C48       1.0  0.31440  0.07520  0.65880  1.0000 0.2813722819
C   C49       1.0  0.07380  0.99190  0.07310  1.0000 0.1784042597
C   C50       1.0  0.01690  0.92380  0.07750  1.0000 -0.1939662839
C   C51       1.0  0.04570  0.87240  0.10530  1.0000 -0.1370611968
C   C52       1.0  0.13070  0.88690  0.12740  1.0000 0.0600076658
C   C53       1.0  0.18580  0.95420  0.12180  1.0000 -0.1174179717
C   C54       1.0  0.15950  0.00660  0.09610  1.0000 -0.1832250376
C   C55       1.0  0.16340  0.83240  0.15360  1.0000 -0.0060440028
C   C56       1.0  0.14150  0.68650  0.23580  1.0000 0.3335406239
C   C57       1.0  0.17110  0.62680  0.23990  1.0000 -0.2326290683
C   C58       1.0  0.14890  0.58320  0.28270  1.0000 -0.0060440028
C   C59       1.0  0.10090  0.59940  0.32150  1.0000 -0.2326290683
C   C60       1.0  0.07520  0.65880  0.31440  1.0000 0.2813722819
C   C61       1.0  0.08120  0.50810  0.58190  1.0000 0.1784042597
C   C62       1.0  0.15370  0.57620  0.59310  1.0000 -0.1939662839
C   C63       1.0  0.23290  0.62760  0.67330  1.0000 -0.1370611968
C   C64       1.0  0.24050  0.61310  0.74380  1.0000 0.0600076658
C   C65       1.0  0.16760  0.54580  0.73160  1.0000 -0.1174179717
C   C66       1.0  0.08950  0.49340  0.65290  1.0000 -0.1832250376
C   C67       1.0  0.32120  0.66760  0.83100  1.0000 -0.0060440028
C   C68       1.0  0.54930  0.81350  0.95500  1.0000 0.3335406239
C   C69       1.0  0.61310  0.87320  0.04430  1.0000 -0.2326290683
C   C70       1.0  0.69950  0.91680  0.06570  1.0000 -0.0060440028
C   C71       1.0  0.72210  0.90060  0.00150  1.0000 -0.2326290683
C   C72       1.0  0.65560  0.84120  0.91640  1.0000 0.2813722819
C   C73       1.0  0.41880  0.00070  0.42690  1.0000 0.1784042597
C   C74       1.0  0.34630  0.93940  0.42250  1.0000 -0.1939662839
C   C75       1.0  0.26710  0.94040  0.39470  1.0000 -0.1370611968
C   C76       1.0  0.25950  0.00330  0.37260  1.0000 0.0600076658
C   C77       1.0  0.33240  0.06400  0.37820  1.0000 -0.1174179717
C   C78       1.0  0.41050  0.06340  0.40390  1.0000 -0.1832250376
C   C79       1.0  0.17880  0.00980  0.34640  1.0000 -0.0060440028
C   C80       1.0  0.95070  0.90570  0.26420  1.0000 0.3335406239
C   C81       1.0  0.88690  0.93120  0.26010  1.0000 -0.2326290683
C   C82       1.0  0.80050  0.86620  0.21730  1.0000 -0.0060440028
C   C83       1.0  0.77790  0.77940  0.17850  1.0000 -0.2326290683
C   C84       1.0  0.84440  0.76080  0.18560  1.0000 0.2813722819
C   C85       1.0  0.42620  0.49930  0.91810  1.0000 0.1784042597
C   C86       1.0  0.48310  0.56060  0.90690  1.0000 -0.1939662839
C   C87       1.0  0.45430  0.55960  0.82670  1.0000 -0.1370611968
C   C88       1.0  0.36930  0.49670  0.75620  1.0000 0.0600076658
C   C89       1.0  0.31420  0.43600  0.76840  1.0000 -0.1174179717
C   C90       1.0  0.34050  0.43660  0.84710  1.0000 -0.1832250376
C   C91       1.0  0.33660  0.49020  0.66900  1.0000 -0.0060440028
C   C92       1.0  0.35850  0.59430  0.54500  1.0000 0.3335406239
C   C93       1.0  0.32890  0.56880  0.45570  1.0000 -0.2326290683
C   C94       1.0  0.35110  0.63380  0.43430  1.0000 -0.0060440028
C   C95       1.0  0.39910  0.72060  0.49850  1.0000 -0.2326290683
C   C96       1.0  0.42480  0.73920  0.58360  1.0000 0.2813722819
C   C97       1.0  0.50810  0.58190  0.08120  1.0000 0.1784042597
C   C98       1.0  0.57620  0.59310  0.15370  1.0000 -0.1939662839
C   C99       1.0  0.62760  0.67330  0.23290  1.0000 -0.1370611968
C   C100      1.0  0.61310  0.74380  0.24050  1.0000 0.0600076658
C   C101      1.0  0.54580  0.73160  0.16760  1.0000 -0.1174179717
C   C102      1.0  0.49340  0.65290  0.08950  1.0000 -0.1832250376
C   C103      1.0  0.66760  0.83100  0.32120  1.0000 -0.0060440028
C   C104      1.0  0.81350  0.95500  0.54930  1.0000 0.3335406239
C   C105      1.0  0.87320  0.04430  0.61310  1.0000 -0.2326290683
C   C106      1.0  0.91680  0.06570  0.69950  1.0000 -0.0060440028
C   C107      1.0  0.90060  0.00150  0.72210  1.0000 -0.2326290683
C   C108      1.0  0.84120  0.91640  0.65560  1.0000 0.2813722819
C   C109      1.0  0.99190  0.07310  0.07380  1.0000 0.1784042597
C   C110      1.0  0.92380  0.07750  0.01690  1.0000 -0.1939662839
C   C111      1.0  0.87240  0.10530  0.04570  1.0000 -0.1370611968
C   C112      1.0  0.88690  0.12740  0.13070  1.0000 0.0600076658
C   C113      1.0  0.95420  0.12180  0.18580  1.0000 -0.1174179717
C   C114      1.0  0.00660  0.09610  0.15950  1.0000 -0.1832250376
C   C115      1.0  0.83240  0.15360  0.16340  1.0000 -0.0060440028
C   C116      1.0  0.68650  0.23580  0.14150  1.0000 0.3335406239
C   C117      1.0  0.62680  0.23990  0.17110  1.0000 -0.2326290683
C   C118      1.0  0.58320  0.28270  0.14890  1.0000 -0.0060440028
C   C119      1.0  0.59940  0.32150  0.10090  1.0000 -0.2326290683
C   C120      1.0  0.65880  0.31440  0.07520  1.0000 0.2813722819
C   C121      1.0  0.49930  0.91810  0.42620  1.0000 0.1784042597
C   C122      1.0  0.56060  0.90690  0.48310  1.0000 -0.1939662839
C   C123      1.0  0.55960  0.82670  0.45430  1.0000 -0.1370611968
C   C124      1.0  0.49670  0.75620  0.36930  1.0000 0.0600076658
C   C125      1.0  0.43600  0.76840  0.31420  1.0000 -0.1174179717
C   C126      1.0  0.43660  0.84710  0.34050  1.0000 -0.1832250376
C   C127      1.0  0.49020  0.66900  0.33660  1.0000 -0.0060440028
C   C128      1.0  0.59430  0.54500  0.35850  1.0000 0.3335406239
C   C129      1.0  0.56880  0.45570  0.32890  1.0000 -0.2326290683
C   C130      1.0  0.63380  0.43430  0.35110  1.0000 -0.0060440028
C   C131      1.0  0.72060  0.49850  0.39910  1.0000 -0.2326290683
C   C132      1.0  0.73920  0.58360  0.42480  1.0000 0.2813722819
C   C133      1.0  0.00070  0.42690  0.41880  1.0000 0.1784042597
C   C134      1.0  0.93940  0.42250  0.34630  1.0000 -0.1939662839
C   C135      1.0  0.94040  0.39470  0.26710  1.0000 -0.1370611968
C   C136      1.0  0.00330  0.37260  0.25950  1.0000 0.0600076658
C   C137      1.0  0.06400  0.37820  0.33240  1.0000 -0.1174179717
C   C138      1.0  0.06340  0.40390  0.41050  1.0000 -0.1832250376
C   C139      1.0  0.00980  0.34640  0.17880  1.0000 -0.0060440028
C   C140      1.0  0.90570  0.26420  0.95070  1.0000 0.3335406239
C   C141      1.0  0.93120  0.26010  0.88690  1.0000 -0.2326290683
C   C142      1.0  0.86620  0.21730  0.80050  1.0000 -0.004344531
C   C143      1.0  0.77940  0.17850  0.77790  1.0000 -0.2326290683
C   C144      1.0  0.76080  0.18560  0.84440  1.0000 0.2813722819
N   N1        1.0  0.65539  0.37301  0.55120  1.0000 -0.1142084806
N   N2        1.0  0.56850  0.33570  0.53120  1.0000 -0.1952873215
N   N3        1.0  0.60920  0.40680  0.68040  1.0000 -0.3266172553
N   N4        1.0  0.32181  0.10419  0.94880  1.0000 -0.1142084806
N   N5        1.0  0.30450  0.03730  0.96880  1.0000 -0.1952873215
N   N6        1.0  0.22640  0.92880  0.81960  1.0000 -0.3266172553
N   N7        1.0  0.84461  0.39581  0.71762  1.0000 -0.1142084806
N   N8        1.0  0.93150  0.46270  0.76720  1.0000 -0.1952873215
N   N9        1.0  0.89080  0.57120  0.79760  1.0000 -0.3266172553
N   N10       1.0  0.17819  0.12699  0.78238  1.0000 -0.1142084806
N   N11       1.0  0.19550  0.16430  0.73280  1.0000 -0.1939662839
N   N12       1.0  0.27360  0.09320  0.70240  1.0000 -0.3266172553
N   N13       1.0  0.12699  0.78238  0.17819  1.0000 -0.1142084806
N   N14       1.0  0.16430  0.73280  0.19550  1.0000 -0.1952873215
N   N15       1.0  0.09320  0.70240  0.27360  1.0000 -0.3266172553
N   N16       1.0  0.39581  0.71762  0.84461  1.0000 -0.1142084806
N   N17       1.0  0.46270  0.76720  0.93150  1.0000 -0.1952873215
N   N18       1.0  0.57120  0.79760  0.89080  1.0000 -0.3266172553
N   N19       1.0  0.10419  0.94880  0.32181  1.0000 -0.1174179717
N   N20       1.0  0.03730  0.96880  0.30450  1.0000 -0.1939662839
N   N21       1.0  0.92880  0.81960  0.22640  1.0000 -0.3266172553
N   N22       1.0  0.37301  0.55120  0.65539  1.0000 -0.1142084806
N   N23       1.0  0.33570  0.53120  0.56850  1.0000 -0.1952873215
N   N24       1.0  0.40680  0.68040  0.60920  1.0000 -0.3266172553
N   N25       1.0  0.71762  0.84461  0.39581  1.0000 -0.1142084806
N   N26       1.0  0.76720  0.93150  0.46270  1.0000 -0.1952873215
N   N27       1.0  0.79760  0.89080  0.57120  1.0000 -0.3266172553
N   N28       1.0  0.78238  0.17819  0.12699  1.0000 -0.1142084806
N   N29       1.0  0.73280  0.19550  0.16430  1.0000 -0.1952873215
N   N30       1.0  0.70240  0.27360  0.09320  1.0000 -0.3266172553
N   N31       1.0  0.55120  0.65539  0.37301  1.0000 -0.1142084806
N   N32       1.0  0.53120  0.56850  0.33570  1.0000 -0.1952873215
N   N33       1.0  0.68040  0.60920  0.40680  1.0000 -0.3266172553
N   N34       1.0  0.94880  0.32181  0.10419  1.0000 -0.1142084806
N   N35       1.0  0.96880  0.30450  0.03730  1.0000 -0.1939662839
N   N36       1.0  0.81960  0.22640  0.92880  1.0000 -0.3266172553
N   N37       1.0  0.00000  0.45620  0.50000  1.0000 -0.172966455
N   N38       1.0  0.45620  0.50000  0.00000  1.0000 -0.172966455
N   N39       1.0  0.50000  0.00000  0.45620  1.0000 -0.172966455
N   N40       1.0  0.04380  0.04380  0.04380  1.0000 -0.172966455
Cl  Cl1       1.0  0.66882  0.48865  0.84871  1.0000 -0.1174179717
Cl  Cl2       1.0  0.13994  0.82011  0.65129  1.0000 -0.1142084806
Cl  Cl3       1.0  0.83118  0.67989  0.81983  1.0000 -0.1174179717
Cl  Cl4       1.0  0.36006  0.01135  0.68017  1.0000 -0.1174179717
Cl  Cl5       1.0  0.01135  0.68017  0.36006  1.0000 -0.1174179717
Cl  Cl6       1.0  0.67989  0.81983  0.83118  1.0000 -0.1142084806
Cl  Cl7       1.0  0.82011  0.65129  0.13994  1.0000 -0.1142084806
Cl  Cl8       1.0  0.48865  0.84871  0.66882  1.0000 -0.1174179717
Cl  Cl9       1.0  0.81983  0.83118  0.67989  1.0000 -0.1142084806
Cl  Cl10      1.0  0.68017  0.36006  0.01135  1.0000 -0.1142084806
Cl  Cl11      1.0  0.84871  0.66882  0.48865  1.0000 -0.1174179717
Cl  Cl12      1.0  0.65129  0.13994  0.82011  1.0000 -0.1142084806
Cl  Cl13      1.0  0.43774  0.18774  0.25000  1.0000 1.2678570106
Cl  Cl14      1.0  0.06226  0.31226  0.75000  1.0000 1.2678570106
Cl  Cl15      1.0  0.75000  0.06226  0.31226  1.0000 1.2678570106
Cl  Cl16      1.0  0.25000  0.43774  0.18774  1.0000 1.2678570106
Cl  Cl17      1.0  0.31226  0.75000  0.06226  1.0000 1.2678570106
Cl  Cl18      1.0  0.18774  0.25000  0.43774  1.0000 1.2678570106
O   O1        1.0  0.42510  0.20070  0.32380  1.0000 -0.4991656413
O   O2        1.0  0.52510  0.20180  0.27510  1.0000 -0.4991656413
O   O3        1.0  0.37690  0.10130  0.17620  1.0000 -0.4991656413
O   O4        1.0  0.42670  0.25000  0.22490  1.0000 -0.4991656413
O   O5        1.0  0.07490  0.39870  0.77560  1.0000 -0.4991656413
O   O6        1.0  0.97490  0.25000  0.67670  1.0000 -0.4991656413
O   O7        1.0  0.12310  0.29930  0.72440  1.0000 -0.4991656413
O   O8        1.0  0.07330  0.29820  0.82330  1.0000 -0.4991656413
O   O9        1.0  0.77560  0.07490  0.39870  1.0000 -0.4991656413
O   O10       1.0  0.67670  0.97490  0.25000  1.0000 -0.4991656413
O   O11       1.0  0.72440  0.12310  0.29930  1.0000 -0.4991656413
O   O12       1.0  0.82330  0.07330  0.29820  1.0000 -0.4991656413
O   O13       1.0  0.32380  0.42510  0.20070  1.0000 -0.4991656413
O   O14       1.0  0.27510  0.52510  0.20180  1.0000 -0.4991656413
O   O15       1.0  0.17620  0.37690  0.10130  1.0000 -0.4991656413
O   O16       1.0  0.22490  0.42670  0.25000  1.0000 -0.4991656413
O   O17       1.0  0.29930  0.72440  0.12310  1.0000 -0.4991656413
O   O18       1.0  0.29820  0.82330  0.07330  1.0000 -0.4991656413
O   O19       1.0  0.39870  0.77560  0.07490  1.0000 -0.4991656413
O   O20       1.0  0.25000  0.67670  0.97490  1.0000 -0.4991656413
O   O21       1.0  0.10130  0.17620  0.37690  1.0000 -0.4991656413
O   O22       1.0  0.25000  0.22490  0.42670  1.0000 -0.4991656413
O   O23       1.0  0.20070  0.32380  0.42510  1.0000 -0.4991656413
O   O24       1.0  0.20180  0.27510  0.52510  1.0000 -0.4991656413
