# DDEC6 charges by PACMAN v1.1 (https://github.com/mtap-research/PACMAN-charge/)
data_2017[Ag][srs]3[ION]38
_chemical_formula_sum              "Ag6 H120 C144 N40 Cl6 O24"
_cell_length_a       18.4452
_cell_length_b       18.4452
_cell_length_c       18.4452
_cell_angle_alpha    109.471
_cell_angle_beta     109.471
_cell_angle_gamma    109.471

_symmetry_space_group_name_H-M    "P 1"
_symmetry_Int_Tables_number       1

loop_
  _symmetry_equiv_pos_as_xyz
  'x, y, z'

loop_
  _atom_site_type_symbol
  _atom_site_label
  _atom_site_symmetry_multiplicity
  _atom_site_fract_x
  _atom_site_fract_y
  _atom_site_fract_z
  _atom_site_occupancy
  _atom_site_charge
Ag  Ag1       1.0  0.95812  0.25000  0.20812  1.0000 0.2633994538
Ag  Ag2       1.0  0.54188  0.75000  0.29188  1.0000 0.2633994538
Ag  Ag3       1.0  0.20812  0.95812  0.25000  1.0000 0.2633994538
Ag  Ag4       1.0  0.29188  0.54188  0.75000  1.0000 0.2633994538
Ag  Ag5       1.0  0.25000  0.20812  0.95812  1.0000 0.2633994538
Ag  Ag6       1.0  0.75000  0.29188  0.54188  1.0000 0.2633994538
H   H1        1.0  0.03450  0.45450  0.10280  1.0000 0.1245269381
H   H2        1.0  0.98750  0.31990  0.09940  1.0000 0.1013810382
H   H3        1.0  0.75140  0.21850  0.88850  1.0000 0.126033992
H   H4        1.0  0.79310  0.35310  0.89560  1.0000 0.126033992
H   H5        1.0  0.78180  0.11910  0.93410  1.0000 0.1101498225
H   H6        1.0  0.79710  0.91330  0.01000  1.0000 0.153200211
H   H7        1.0  0.83290  0.87790  0.12020  1.0000 0.1101498225
H   H8        1.0  0.91320  0.99240  0.27220  1.0000 0.126033992
H   H9        1.0  0.96050  0.13580  0.30250  1.0000 0.1013810382
H   H10       1.0  0.79720  0.02480  0.97540  1.0000 0.2816659578
H   H11       1.0  0.85170  0.93170  0.39720  1.0000 0.1245269381
H   H12       1.0  0.72050  0.88810  0.40060  1.0000 0.1013810382
H   H13       1.0  0.83000  0.86290  0.61150  1.0000 0.126033992
H   H14       1.0  0.95750  0.89750  0.60440  1.0000 0.126033992
H   H15       1.0  0.68500  0.84770  0.56590  1.0000 0.1101498225
H   H16       1.0  0.40330  0.78710  0.49000  1.0000 0.153200211
H   H17       1.0  0.25770  0.71270  0.37980  1.0000 0.1101498225
H   H18       1.0  0.22020  0.64100  0.22780  1.0000 0.1245269381
H   H19       1.0  0.33333  0.65800  0.19750  1.0000 0.1013810382
H   H20       1.0  0.54940  0.82180  0.52460  1.0000 0.2816659578
H   H21       1.0  0.64830  0.04550  0.08000  1.0000 0.1245269381
H   H22       1.0  0.77950  0.18010  0.16760  1.0000 0.1013810382
H   H23       1.0  0.67000  0.28150  0.03290  1.0000 0.126033992
H   H24       1.0  0.54250  0.14690  0.94000  1.0000 0.126033992
H   H25       1.0  0.81500  0.38090  0.16270  1.0000 0.1101498225
H   H26       1.0  0.09670  0.58670  0.38380  1.0000 0.153200211
H   H27       1.0  0.24230  0.62210  0.45500  1.0000 0.1101498225
H   H28       1.0  0.27980  0.50760  0.42080  1.0000 0.1245269381
H   H29       1.0  0.16670  0.36420  0.32470  1.0000 0.1013810382
H   H30       1.0  0.95060  0.47520  0.27240  1.0000 0.2816659578
H   H31       1.0  0.46550  0.56830  0.42000  1.0000 0.1245269381
H   H32       1.0  0.51250  0.61190  0.33240  1.0000 0.1013810382
H   H33       1.0  0.74860  0.63710  0.46710  1.0000 0.126033992
H   H34       1.0  0.70690  0.60250  0.56000  1.0000 0.126033992
H   H35       1.0  0.71820  0.65230  0.33730  1.0000 0.1101498225
H   H36       1.0  0.70290  0.71290  0.11620  1.0000 0.153200211
H   H37       1.0  0.66710  0.78730  0.04500  1.0000 0.1101498225
H   H38       1.0  0.58680  0.85900  0.07920  1.0000 0.126033992
H   H39       1.0  0.53950  0.84200  0.17530  1.0000 0.1013810382
H   H40       1.0  0.70280  0.67820  0.22760  1.0000 0.2816659578
H   H41       1.0  0.10280  0.03450  0.45450  1.0000 0.1245269381
H   H42       1.0  0.09940  0.98750  0.31990  1.0000 0.1013810382
H   H43       1.0  0.88850  0.75140  0.21850  1.0000 0.126033992
H   H44       1.0  0.89560  0.79310  0.35310  1.0000 0.126033992
H   H45       1.0  0.93410  0.78180  0.11910  1.0000 0.1101498225
H   H46       1.0  0.01000  0.79710  0.91330  1.0000 0.153200211
H   H47       1.0  0.12020  0.83290  0.87790  1.0000 0.1101498225
H   H48       1.0  0.27220  0.91320  0.99240  1.0000 0.1245269381
H   H49       1.0  0.30250  0.96050  0.13580  1.0000 0.1013810382
H   H50       1.0  0.97540  0.79720  0.02480  1.0000 0.2816659578
H   H51       1.0  0.39720  0.85170  0.93170  1.0000 0.1245269381
H   H52       1.0  0.40060  0.72050  0.88810  1.0000 0.1013810382
H   H53       1.0  0.61150  0.83000  0.86290  1.0000 0.126033992
H   H54       1.0  0.60440  0.95750  0.89750  1.0000 0.126033992
H   H55       1.0  0.56590  0.68500  0.84770  1.0000 0.1101498225
H   H56       1.0  0.49000  0.40330  0.78710  1.0000 0.153200211
H   H57       1.0  0.37980  0.25770  0.71270  1.0000 0.1101498225
H   H58       1.0  0.22780  0.22020  0.64100  1.0000 0.1245269381
H   H59       1.0  0.19750  0.33333  0.65800  1.0000 0.1013810382
H   H60       1.0  0.52460  0.54940  0.82180  1.0000 0.2816659578
H   H61       1.0  0.08000  0.64830  0.04550  1.0000 0.1245269381
H   H62       1.0  0.16760  0.77950  0.18010  1.0000 0.1013810382
H   H63       1.0  0.03290  0.67000  0.28150  1.0000 0.126033992
H   H64       1.0  0.94000  0.54250  0.14690  1.0000 0.126033992
H   H65       1.0  0.16270  0.81500  0.38090  1.0000 0.1101498225
H   H66       1.0  0.38380  0.09670  0.58670  1.0000 0.153200211
H   H67       1.0  0.45500  0.24230  0.62210  1.0000 0.1101498225
H   H68       1.0  0.42080  0.27980  0.50760  1.0000 0.1245269381
H   H69       1.0  0.32470  0.16670  0.36420  1.0000 0.1013810382
H   H70       1.0  0.27240  0.95060  0.47520  1.0000 0.2816659578
H   H71       1.0  0.42000  0.46550  0.56830  1.0000 0.1245269381
H   H72       1.0  0.33240  0.51250  0.61190  1.0000 0.1013810382
H   H73       1.0  0.46710  0.74860  0.63710  1.0000 0.126033992
H   H74       1.0  0.56000  0.70690  0.60250  1.0000 0.126033992
H   H75       1.0  0.33730  0.71820  0.65230  1.0000 0.1101498225
H   H76       1.0  0.11620  0.70290  0.71290  1.0000 0.153200211
H   H77       1.0  0.04500  0.66710  0.78730  1.0000 0.1101498225
H   H78       1.0  0.07920  0.58680  0.85900  1.0000 0.1245269381
H   H79       1.0  0.17530  0.53950  0.84200  1.0000 0.1013810382
H   H80       1.0  0.22760  0.70280  0.67820  1.0000 0.2816659578
H   H81       1.0  0.45450  0.10280  0.03450  1.0000 0.1245269381
H   H82       1.0  0.31990  0.09940  0.98750  1.0000 0.1013810382
H   H83       1.0  0.21850  0.88850  0.75140  1.0000 0.126033992
H   H84       1.0  0.35310  0.89560  0.79310  1.0000 0.126033992
H   H85       1.0  0.11910  0.93410  0.78180  1.0000 0.1101498225
H   H86       1.0  0.91330  0.01000  0.79710  1.0000 0.153200211
H   H87       1.0  0.87790  0.12020  0.83290  1.0000 0.1101498225
H   H88       1.0  0.99240  0.27220  0.91320  1.0000 0.1245269381
H   H89       1.0  0.13580  0.30250  0.96050  1.0000 0.1013810382
H   H90       1.0  0.02480  0.97540  0.79720  1.0000 0.2816659578
H   H91       1.0  0.93170  0.39720  0.85170  1.0000 0.1245269381
H   H92       1.0  0.88810  0.40060  0.72050  1.0000 0.1013810382
H   H93       1.0  0.86290  0.61150  0.83000  1.0000 0.126033992
H   H94       1.0  0.89750  0.60440  0.95750  1.0000 0.126033992
H   H95       1.0  0.84770  0.56590  0.68500  1.0000 0.1101498225
H   H96       1.0  0.78710  0.49000  0.40330  1.0000 0.153200211
H   H97       1.0  0.71270  0.37980  0.25770  1.0000 0.1101498225
H   H98       1.0  0.64100  0.22780  0.22020  1.0000 0.126033992
H   H99       1.0  0.65800  0.19750  0.33333  1.0000 0.1013810382
H   H100      1.0  0.82180  0.52460  0.54940  1.0000 0.2816659578
H   H101      1.0  0.04550  0.08000  0.64830  1.0000 0.1245269381
H   H102      1.0  0.18010  0.16760  0.77950  1.0000 0.1013810382
H   H103      1.0  0.28150  0.03290  0.67000  1.0000 0.126033992
H   H104      1.0  0.14690  0.94000  0.54250  1.0000 0.126033992
H   H105      1.0  0.38090  0.16270  0.81500  1.0000 0.1101498225
H   H106      1.0  0.58670  0.38380  0.09670  1.0000 0.153200211
H   H107      1.0  0.62210  0.45500  0.24230  1.0000 0.1101498225
H   H108      1.0  0.50760  0.42080  0.27980  1.0000 0.1245269381
H   H109      1.0  0.36420  0.32470  0.16670  1.0000 0.1013810382
H   H110      1.0  0.47520  0.27240  0.95060  1.0000 0.2816659578
H   H111      1.0  0.56830  0.42000  0.46550  1.0000 0.1245269381
H   H112      1.0  0.61190  0.33240  0.51250  1.0000 0.1013810382
H   H113      1.0  0.63710  0.46710  0.74860  1.0000 0.126033992
H   H114      1.0  0.60250  0.56000  0.70690  1.0000 0.126033992
H   H115      1.0  0.65230  0.33730  0.71820  1.0000 0.1101498225
H   H116      1.0  0.71290  0.11620  0.70290  1.0000 0.153200211
H   H117      1.0  0.78730  0.04500  0.66710  1.0000 0.1101498225
H   H118      1.0  0.85900  0.07920  0.58680  1.0000 0.126033992
H   H119      1.0  0.84200  0.17530  0.53950  1.0000 0.1013810382
H   H120      1.0  0.67820  0.22760  0.70280  1.0000 0.2816659578
C   C1        1.0  0.91870  0.41850  0.99760  1.0000 0.176193336
C   C2        1.0  0.97680  0.40710  0.05970  1.0000 -0.206499987
C   C3        1.0  0.94880  0.32640  0.05700  1.0000 -0.1380744459
C   C4        1.0  0.86550  0.25550  0.99360  1.0000 0.0600510453
C   C5        1.0  0.80840  0.26670  0.93270  1.0000 -0.1207072692
C   C6        1.0  0.83400  0.34660  0.93600  1.0000 -0.1832316103
C   C7        1.0  0.83300  0.16770  0.98670  1.0000 -0.0165261794
C   C8        1.0  0.85890  0.04800  0.09390  1.0000 0.3381843486
C   C9        1.0  0.83000  0.95790  0.06990  1.0000 -0.2280480272
C   C10       1.0  0.85070  0.93720  0.13490  1.0000 -0.0165261794
C   C11       1.0  0.89980  0.00560  0.22600  1.0000 -0.1943703871
C   C12       1.0  0.92620  0.08990  0.24290  1.0000 0.0600510453
C   C13       1.0  0.92090  0.92110  0.50240  1.0000 0.176193336
C   C14       1.0  0.84740  0.91710  0.44030  1.0000 -0.206499987
C   C15       1.0  0.76940  0.89180  0.44300  1.0000 -0.1380744459
C   C16       1.0  0.76190  0.87190  0.50640  1.0000 0.0600510453
C   C17       1.0  0.83400  0.87570  0.56730  1.0000 -0.1207072692
C   C18       1.0  0.91060  0.89800  0.56400  1.0000 -0.1832316103
C   C19       1.0  0.68100  0.84630  0.51330  1.0000 -0.0165261794
C   C20       1.0  0.45410  0.76500  0.40610  1.0000 0.3381843486
C   C21       1.0  0.38800  0.76010  0.43010  1.0000 -0.2280480272
C   C22       1.0  0.30230  0.71580  0.36510  1.0000 -0.0165261794
C   C23       1.0  0.27960  0.67380  0.27400  1.0000 -0.2011257603
C   C24       1.0  0.34700  0.68330  0.25710  1.0000 0.0600510453
C   C25       1.0  0.57910  0.08150  0.00020  1.0000 0.176193336
C   C26       1.0  0.65260  0.09290  0.06970  1.0000 -0.2011257603
C   C27       1.0  0.73060  0.17360  0.12240  1.0000 -0.1380744459
C   C28       1.0  0.73810  0.24450  0.11000  1.0000 0.0600510453
C   C29       1.0  0.66600  0.23330  0.04170  1.0000 -0.1207072692
C   C30       1.0  0.58940  0.15340  0.98740  1.0000 -0.1832316103
C   C31       1.0  0.81900  0.33230  0.16530  1.0000 -0.0165261794
C   C32       1.0  0.04590  0.45200  0.31090  1.0000 0.3381843486
C   C33       1.0  0.11200  0.54210  0.37210  1.0000 -0.2280480272
C   C34       1.0  0.19770  0.56280  0.41350  1.0000 -0.0165261794
C   C35       1.0  0.22040  0.49440  0.39420  1.0000 -0.1943703871
C   C36       1.0  0.15300  0.41010  0.33630  1.0000 0.0600510453
C   C37       1.0  0.58130  0.57890  0.49980  1.0000 0.176193336
C   C38       1.0  0.52320  0.58290  0.43030  1.0000 -0.2011257603
C   C39       1.0  0.55120  0.60820  0.37760  1.0000 -0.1380744459
C   C40       1.0  0.63450  0.62810  0.39000  1.0000 0.0600510453
C   C41       1.0  0.69160  0.62430  0.45830  1.0000 -0.1207072692
C   C42       1.0  0.66600  0.60200  0.51260  1.0000 -0.1832316103
C   C43       1.0  0.66700  0.65370  0.33470  1.0000 -0.0165261794
C   C44       1.0  0.64110  0.73500  0.18910  1.0000 0.3381843486
C   C45       1.0  0.67000  0.73990  0.12790  1.0000 -0.2280480272
C   C46       1.0  0.64930  0.78420  0.08650  1.0000 -0.0165261794
C   C47       1.0  0.60020  0.82620  0.10580  1.0000 -0.2011257603
C   C48       1.0  0.57380  0.81670  0.16370  1.0000 0.0600510453
C   C49       1.0  0.99760  0.91870  0.41850  1.0000 0.176193336
C   C50       1.0  0.05970  0.97680  0.40710  1.0000 -0.2011257603
C   C51       1.0  0.05700  0.94880  0.32640  1.0000 -0.1380744459
C   C52       1.0  0.99360  0.86550  0.25550  1.0000 0.0600510453
C   C53       1.0  0.93270  0.80840  0.26670  1.0000 -0.1207072692
C   C54       1.0  0.93600  0.83400  0.34660  1.0000 -0.1832316103
C   C55       1.0  0.98670  0.83300  0.16770  1.0000 -0.0165261794
C   C56       1.0  0.09390  0.85890  0.04800  1.0000 0.3381843486
C   C57       1.0  0.06990  0.83000  0.95790  1.0000 -0.2280480272
C   C58       1.0  0.13490  0.85070  0.93720  1.0000 -0.0165261794
C   C59       1.0  0.22600  0.89980  0.00560  1.0000 -0.2011257603
C   C60       1.0  0.24290  0.92620  0.08990  1.0000 0.0600510453
C   C61       1.0  0.50240  0.92090  0.92110  1.0000 0.176193336
C   C62       1.0  0.44030  0.84740  0.91710  1.0000 -0.2011257603
C   C63       1.0  0.44300  0.76940  0.89180  1.0000 -0.1380744459
C   C64       1.0  0.50640  0.76190  0.87190  1.0000 0.0600510453
C   C65       1.0  0.56730  0.83400  0.87570  1.0000 -0.1207072692
C   C66       1.0  0.56400  0.91060  0.89800  1.0000 -0.1832316103
C   C67       1.0  0.51330  0.68100  0.84630  1.0000 -0.0165261794
C   C68       1.0  0.40610  0.45410  0.76500  1.0000 0.3381843486
C   C69       1.0  0.43010  0.38800  0.76010  1.0000 -0.2280480272
C   C70       1.0  0.36510  0.30230  0.71580  1.0000 -0.0165261794
C   C71       1.0  0.27400  0.27960  0.67380  1.0000 -0.2011257603
C   C72       1.0  0.25710  0.34700  0.68330  1.0000 0.0600510453
C   C73       1.0  0.00020  0.57910  0.08150  1.0000 0.176193336
C   C74       1.0  0.06970  0.65260  0.09290  1.0000 -0.2011257603
C   C75       1.0  0.12240  0.73060  0.17360  1.0000 -0.1380744459
C   C76       1.0  0.11000  0.73810  0.24450  1.0000 0.0600510453
C   C77       1.0  0.04170  0.66600  0.23330  1.0000 -0.1207072692
C   C78       1.0  0.98740  0.58940  0.15340  1.0000 -0.1832316103
C   C79       1.0  0.16530  0.81900  0.33230  1.0000 -0.0165261794
C   C80       1.0  0.31090  0.04590  0.45200  1.0000 0.3381843486
C   C81       1.0  0.37210  0.11200  0.54210  1.0000 -0.2280480272
C   C82       1.0  0.41350  0.19770  0.56280  1.0000 -0.0165261794
C   C83       1.0  0.39420  0.22040  0.49440  1.0000 -0.1943703871
C   C84       1.0  0.33630  0.15300  0.41010  1.0000 0.0600510453
C   C85       1.0  0.49980  0.58130  0.57890  1.0000 0.176193336
C   C86       1.0  0.43030  0.52320  0.58290  1.0000 -0.2011257603
C   C87       1.0  0.37760  0.55120  0.60820  1.0000 -0.1380744459
C   C88       1.0  0.39000  0.63450  0.62810  1.0000 0.0600510453
C   C89       1.0  0.45830  0.69160  0.62430  1.0000 -0.1207072692
C   C90       1.0  0.51260  0.66600  0.60200  1.0000 -0.1832316103
C   C91       1.0  0.33470  0.66700  0.65370  1.0000 -0.0165261794
C   C92       1.0  0.18910  0.64110  0.73500  1.0000 0.3381843486
C   C93       1.0  0.12790  0.67000  0.73990  1.0000 -0.2280480272
C   C94       1.0  0.08650  0.64930  0.78420  1.0000 -0.0165261794
C   C95       1.0  0.10580  0.60020  0.82620  1.0000 -0.2011257603
C   C96       1.0  0.16370  0.57380  0.81670  1.0000 0.0600510453
C   C97       1.0  0.41850  0.99760  0.91870  1.0000 0.176193336
C   C98       1.0  0.40710  0.05970  0.97680  1.0000 -0.2011257603
C   C99       1.0  0.32640  0.05700  0.94880  1.0000 -0.1380744459
C   C100      1.0  0.25550  0.99360  0.86550  1.0000 0.0600510453
C   C101      1.0  0.26670  0.93270  0.80840  1.0000 -0.1207072692
C   C102      1.0  0.34660  0.93600  0.83400  1.0000 -0.1832316103
C   C103      1.0  0.16770  0.98670  0.83300  1.0000 -0.0165261794
C   C104      1.0  0.04800  0.09390  0.85890  1.0000 0.3381843486
C   C105      1.0  0.95790  0.06990  0.83000  1.0000 -0.2280480272
C   C106      1.0  0.93720  0.13490  0.85070  1.0000 -0.0165261794
C   C107      1.0  0.00560  0.22600  0.89980  1.0000 -0.1943703871
C   C108      1.0  0.08990  0.24290  0.92620  1.0000 0.0600510453
C   C109      1.0  0.92110  0.50240  0.92090  1.0000 0.176193336
C   C110      1.0  0.91710  0.44030  0.84740  1.0000 -0.2011257603
C   C111      1.0  0.89180  0.44300  0.76940  1.0000 -0.1380744459
C   C112      1.0  0.87190  0.50640  0.76190  1.0000 0.0600510453
C   C113      1.0  0.87570  0.56730  0.83400  1.0000 -0.1207072692
C   C114      1.0  0.89800  0.56400  0.91060  1.0000 -0.1832316103
C   C115      1.0  0.84630  0.51330  0.68100  1.0000 -0.0165261794
C   C116      1.0  0.76500  0.40610  0.45410  1.0000 0.3381843486
C   C117      1.0  0.76010  0.43010  0.38800  1.0000 -0.2280480272
C   C118      1.0  0.71580  0.36510  0.30230  1.0000 -0.0165261794
C   C119      1.0  0.67380  0.27400  0.27960  1.0000 -0.2011257603
C   C120      1.0  0.68330  0.25710  0.34700  1.0000 0.0600510453
C   C121      1.0  0.08150  0.00020  0.57910  1.0000 0.176193336
C   C122      1.0  0.09290  0.06970  0.65260  1.0000 -0.2011257603
C   C123      1.0  0.17360  0.12240  0.73060  1.0000 -0.1380744459
C   C124      1.0  0.24450  0.11000  0.73810  1.0000 0.0600510453
C   C125      1.0  0.23330  0.04170  0.66600  1.0000 -0.1207072692
C   C126      1.0  0.15340  0.98740  0.58940  1.0000 -0.1832316103
C   C127      1.0  0.33230  0.16530  0.81900  1.0000 -0.0165261794
C   C128      1.0  0.45200  0.31090  0.04590  1.0000 0.3381843486
C   C129      1.0  0.54210  0.37210  0.11200  1.0000 -0.2280480272
C   C130      1.0  0.56280  0.41350  0.19770  1.0000 -0.0165261794
C   C131      1.0  0.49440  0.39420  0.22040  1.0000 -0.1943703871
C   C132      1.0  0.41010  0.33630  0.15300  1.0000 0.0600510453
C   C133      1.0  0.57890  0.49980  0.58130  1.0000 0.176193336
C   C134      1.0  0.58290  0.43030  0.52320  1.0000 -0.2011257603
C   C135      1.0  0.60820  0.37760  0.55120  1.0000 -0.1380744459
C   C136      1.0  0.62810  0.39000  0.63450  1.0000 0.0600510453
C   C137      1.0  0.62430  0.45830  0.69160  1.0000 -0.1207072692
C   C138      1.0  0.60200  0.51260  0.66600  1.0000 -0.1832316103
C   C139      1.0  0.65370  0.33470  0.66700  1.0000 -0.0165261794
C   C140      1.0  0.73500  0.18910  0.64110  1.0000 0.3381843486
C   C141      1.0  0.73990  0.12790  0.67000  1.0000 -0.2280480272
C   C142      1.0  0.78420  0.08650  0.64930  1.0000 -0.0165261794
C   C143      1.0  0.82620  0.10580  0.60020  1.0000 -0.1943703871
C   C144      1.0  0.81670  0.16370  0.57380  1.0000 0.0600510453
N   N1        1.0  0.87040  0.15457  0.04797  1.0000 -0.1328067128
N   N2        1.0  0.83530  0.06750  0.02980  1.0000 -0.206499987
N   N3        1.0  0.90600  0.11170  0.17930  1.0000 -0.2726063089
N   N4        1.0  0.60660  0.82243  0.45203  1.0000 -0.1328067128
N   N5        1.0  0.53770  0.80550  0.47020  1.0000 -0.206499987
N   N6        1.0  0.43240  0.72670  0.32070  1.0000 -0.2726063089
N   N7        1.0  0.89340  0.34543  0.21583  1.0000 -0.1328067128
N   N8        1.0  0.96230  0.43250  0.26780  1.0000 -0.206499987
N   N9        1.0  0.06760  0.38830  0.29430  1.0000 -0.2726063089
N   N10       1.0  0.62960  0.67757  0.28417  1.0000 -0.1328067128
N   N11       1.0  0.66470  0.69450  0.23220  1.0000 -0.206499987
N   N12       1.0  0.59400  0.77330  0.20570  1.0000 -0.2726063089
N   N13       1.0  0.04797  0.87040  0.15457  1.0000 -0.1328067128
N   N14       1.0  0.02980  0.83530  0.06750  1.0000 -0.206499987
N   N15       1.0  0.17930  0.90600  0.11170  1.0000 -0.2726063089
N   N16       1.0  0.45203  0.60660  0.82243  1.0000 -0.1328067128
N   N17       1.0  0.47020  0.53770  0.80550  1.0000 -0.206499987
N   N18       1.0  0.32070  0.43240  0.72670  1.0000 -0.2726063089
N   N19       1.0  0.21583  0.89340  0.34543  1.0000 -0.1328067128
N   N20       1.0  0.26780  0.96230  0.43250  1.0000 -0.206499987
N   N21       1.0  0.29430  0.06760  0.38830  1.0000 -0.2726063089
N   N22       1.0  0.28417  0.62960  0.67757  1.0000 -0.1328067128
N   N23       1.0  0.23220  0.66470  0.69450  1.0000 -0.206499987
N   N24       1.0  0.20570  0.59400  0.77330  1.0000 -0.2726063089
N   N25       1.0  0.15457  0.04797  0.87040  1.0000 -0.1328067128
N   N26       1.0  0.06750  0.02980  0.83530  1.0000 -0.206499987
N   N27       1.0  0.11170  0.17930  0.90600  1.0000 -0.2726063089
N   N28       1.0  0.82243  0.45203  0.60660  1.0000 -0.1328067128
N   N29       1.0  0.80550  0.47020  0.53770  1.0000 -0.206499987
N   N30       1.0  0.72670  0.32070  0.43240  1.0000 -0.2726063089
N   N31       1.0  0.34543  0.21583  0.89340  1.0000 -0.1328067128
N   N32       1.0  0.43250  0.26780  0.96230  1.0000 -0.206499987
N   N33       1.0  0.38830  0.29430  0.06760  1.0000 -0.2726063089
N   N34       1.0  0.67757  0.28417  0.62960  1.0000 -0.1328067128
N   N35       1.0  0.69450  0.23220  0.66470  1.0000 -0.206499987
N   N36       1.0  0.77330  0.20570  0.59400  1.0000 -0.2726063089
N   N37       1.0  0.94620  0.50000  0.00000  1.0000 -0.1572706781
N   N38       1.0  1.00000  0.94620  0.50000  1.0000 -0.1572706781
N   N39       1.0  0.50000  0.00000  0.94620  1.0000 -0.1572706781
N   N40       1.0  0.55380  0.55380  0.55380  1.0000 -0.1572706781
Cl  Cl1       1.0  0.55941  0.25000  0.80941  1.0000 1.2541144409
Cl  Cl2       1.0  0.94059  0.75000  0.69059  1.0000 1.2541144409
Cl  Cl3       1.0  0.25000  0.80941  0.55941  1.0000 1.2541144409
Cl  Cl4       1.0  0.75000  0.69059  0.94059  1.0000 1.2541144409
Cl  Cl5       1.0  0.80941  0.55941  0.25000  1.0000 1.2541144409
Cl  Cl6       1.0  0.69059  0.94059  0.75000  1.0000 1.2541144409
O   O1        1.0  0.57140  0.32360  0.79660  1.0000 -0.4977736455
O   O2        1.0  0.62100  0.22640  0.79720  1.0000 -0.487795361
O   O3        1.0  0.47300  0.17640  0.74780  1.0000 -0.4977736455
O   O4        1.0  0.57080  0.27360  0.89460  1.0000 -0.487795361
O   O5        1.0  0.92860  0.72520  0.75220  1.0000 -0.4977736455
O   O6        1.0  0.87900  0.67620  0.60540  1.0000 -0.487795361
O   O7        1.0  0.02700  0.77480  0.70340  1.0000 -0.4977736455
O   O8        1.0  0.92920  0.82380  0.70280  1.0000 -0.487795361
O   O9        1.0  0.32360  0.79660  0.57140  1.0000 -0.4977736455
O   O10       1.0  0.22640  0.79720  0.62100  1.0000 -0.487795361
O   O11       1.0  0.17640  0.74780  0.47300  1.0000 -0.4977736455
O   O12       1.0  0.27360  0.89460  0.57080  1.0000 -0.487795361
O   O13       1.0  0.72520  0.75220  0.92860  1.0000 -0.4977736455
O   O14       1.0  0.67620  0.60540  0.87900  1.0000 -0.487795361
O   O15       1.0  0.77480  0.70340  0.02700  1.0000 -0.4977736455
O   O16       1.0  0.82380  0.70280  0.92920  1.0000 -0.487795361
O   O17       1.0  0.79660  0.57140  0.32360  1.0000 -0.4977736455
O   O18       1.0  0.79720  0.62100  0.22640  1.0000 -0.487795361
O   O19       1.0  0.74780  0.47300  0.17640  1.0000 -0.4977736455
O   O20       1.0  0.89460  0.57080  0.27360  1.0000 -0.487795361
O   O21       1.0  0.75220  0.92860  0.72520  1.0000 -0.4977736455
O   O22       1.0  0.60540  0.87900  0.67620  1.0000 -0.487795361
O   O23       1.0  0.70340  0.02700  0.77480  1.0000 -0.4977736455
O   O24       1.0  0.70280  0.92920  0.82380  1.0000 -0.487795361
