# DDEC6 charges by PACMAN v1.1 (https://github.com/mtap-research/PACMAN-charge/)
data_2017[Ag][srs]3[ION]32
_chemical_formula_sum              "Ag6 H120 C144 N40 Cl6 O24"
_cell_length_a       18.4661
_cell_length_b       18.4661
_cell_length_c       18.4661
_cell_angle_alpha    109.471
_cell_angle_beta     109.471
_cell_angle_gamma    109.471

_symmetry_space_group_name_H-M    "P 1"
_symmetry_Int_Tables_number       1

loop_
  _symmetry_equiv_pos_as_xyz
  'x, y, z'

loop_
  _atom_site_type_symbol
  _atom_site_label
  _atom_site_symmetry_multiplicity
  _atom_site_fract_x
  _atom_site_fract_y
  _atom_site_fract_z
  _atom_site_occupancy
  _atom_site_charge
Ag  Ag1       1.0  0.04275  0.75000  0.79275  1.0000 0.2634357658
Ag  Ag2       1.0  0.45725  0.25000  0.70725  1.0000 0.2634357658
Ag  Ag3       1.0  0.79275  0.04275  0.75000  1.0000 0.2634357658
Ag  Ag4       1.0  0.70725  0.45725  0.25000  1.0000 0.2634357658
Ag  Ag5       1.0  0.75000  0.79275  0.04275  1.0000 0.2634357658
Ag  Ag6       1.0  0.25000  0.70725  0.45725  1.0000 0.2634357658
H   H1        1.0  0.96670  0.54600  0.89730  1.0000 0.1240569052
H   H2        1.0  0.01380  0.68050  0.90190  1.0000 0.1026455148
H   H3        1.0  0.24960  0.78160  0.11240  1.0000 0.1259327602
H   H4        1.0  0.20820  0.64680  0.10380  1.0000 0.1259327602
H   H5        1.0  0.21880  0.88050  0.06670  1.0000 0.1102268954
H   H6        1.0  0.20240  0.08630  0.99030  1.0000 0.1557339129
H   H7        1.0  0.16750  0.12210  0.88080  1.0000 0.1102268954
H   H8        1.0  0.08420  0.00690  0.72790  1.0000 0.1259327602
H   H9        1.0  0.04040  0.86510  0.69930  1.0000 0.1026455148
H   H10       1.0  0.20330  0.97500  0.02490  1.0000 0.2807825354
H   H11       1.0  0.14870  0.06940  0.60270  1.0000 0.1240569052
H   H12       1.0  0.27860  0.11190  0.59810  1.0000 0.1026455148
H   H13       1.0  0.16920  0.13720  0.38760  1.0000 0.1259327602
H   H14       1.0  0.04300  0.10440  0.39620  1.0000 0.1259327602
H   H15       1.0  0.31380  0.15210  0.43330  1.0000 0.1102268954
H   H16       1.0  0.59600  0.21210  0.50970  1.0000 0.1557339129
H   H17       1.0  0.74130  0.28670  0.61920  1.0000 0.1102268954
H   H18       1.0  0.77900  0.35630  0.77210  1.0000 0.1259327602
H   H19       1.0  0.66580  0.34110  0.80070  1.0000 0.1026455148
H   H20       1.0  0.45010  0.17840  0.47510  1.0000 0.2807825354
H   H21       1.0  0.35130  0.95400  0.92070  1.0000 0.1240569052
H   H22       1.0  0.22140  0.81950  0.83330  1.0000 0.1026455148
H   H23       1.0  0.33080  0.71840  0.96800  1.0000 0.1259327602
H   H24       1.0  0.45700  0.85320  0.06140  1.0000 0.1259327602
H   H25       1.0  0.18620  0.61950  0.83830  1.0000 0.1102268954
H   H26       1.0  0.90400  0.41370  0.61610  1.0000 0.1557339129
H   H27       1.0  0.75870  0.37790  0.54540  1.0000 0.1102268954
H   H28       1.0  0.72100  0.49310  0.57730  1.0000 0.1259327602
H   H29       1.0  0.83420  0.63490  0.67530  1.0000 0.1026455148
H   H30       1.0  0.04990  0.52500  0.72830  1.0000 0.2807825354
H   H31       1.0  0.53330  0.43060  0.57930  1.0000 0.1240569052
H   H32       1.0  0.48620  0.38810  0.66667  1.0000 0.1026455148
H   H33       1.0  0.25040  0.36280  0.53200  1.0000 0.1259327602
H   H34       1.0  0.29180  0.39560  0.43860  1.0000 0.1259327602
H   H35       1.0  0.28120  0.34790  0.66170  1.0000 0.1102268954
H   H36       1.0  0.29760  0.28790  0.88390  1.0000 0.1557339129
H   H37       1.0  0.33250  0.21330  0.95460  1.0000 0.1102268954
H   H38       1.0  0.41580  0.14370  0.92270  1.0000 0.1259327602
H   H39       1.0  0.45960  0.15890  0.82470  1.0000 0.1026455148
H   H40       1.0  0.29670  0.32160  0.77170  1.0000 0.2807825354
H   H41       1.0  0.89730  0.96670  0.54600  1.0000 0.1240569052
H   H42       1.0  0.90190  0.01380  0.68050  1.0000 0.1026455148
H   H43       1.0  0.11240  0.24960  0.78160  1.0000 0.1259327602
H   H44       1.0  0.10380  0.20820  0.64680  1.0000 0.1259327602
H   H45       1.0  0.06670  0.21880  0.88050  1.0000 0.1102268954
H   H46       1.0  0.99030  0.20240  0.08630  1.0000 0.1557339129
H   H47       1.0  0.88080  0.16750  0.12210  1.0000 0.1102268954
H   H48       1.0  0.72790  0.08420  0.00690  1.0000 0.1259327602
H   H49       1.0  0.69930  0.04040  0.86510  1.0000 0.1026455148
H   H50       1.0  0.02490  0.20330  0.97500  1.0000 0.2807825354
H   H51       1.0  0.60270  0.14870  0.06940  1.0000 0.1240569052
H   H52       1.0  0.59810  0.27860  0.11190  1.0000 0.1026455148
H   H53       1.0  0.38760  0.16920  0.13720  1.0000 0.1259327602
H   H54       1.0  0.39620  0.04300  0.10440  1.0000 0.1259327602
H   H55       1.0  0.43330  0.31380  0.15210  1.0000 0.1102268954
H   H56       1.0  0.50970  0.59600  0.21210  1.0000 0.1557339129
H   H57       1.0  0.61920  0.74130  0.28670  1.0000 0.1102268954
H   H58       1.0  0.77210  0.77900  0.35630  1.0000 0.1259327602
H   H59       1.0  0.80070  0.66580  0.34110  1.0000 0.1026455148
H   H60       1.0  0.47510  0.45010  0.17840  1.0000 0.2807825354
H   H61       1.0  0.92070  0.35130  0.95400  1.0000 0.1240569052
H   H62       1.0  0.83330  0.22140  0.81950  1.0000 0.1026455148
H   H63       1.0  0.96800  0.33080  0.71840  1.0000 0.1259327602
H   H64       1.0  0.06140  0.45700  0.85320  1.0000 0.1259327602
H   H65       1.0  0.83830  0.18620  0.61950  1.0000 0.1102268954
H   H66       1.0  0.61610  0.90400  0.41370  1.0000 0.1557339129
H   H67       1.0  0.54540  0.75870  0.37790  1.0000 0.1102268954
H   H68       1.0  0.57730  0.72100  0.49310  1.0000 0.1259327602
H   H69       1.0  0.67530  0.83420  0.63490  1.0000 0.1026455148
H   H70       1.0  0.72830  0.04990  0.52500  1.0000 0.2807825354
H   H71       1.0  0.57930  0.53330  0.43060  1.0000 0.1240569052
H   H72       1.0  0.66667  0.48620  0.38810  1.0000 0.1026455148
H   H73       1.0  0.53200  0.25040  0.36280  1.0000 0.1259327602
H   H74       1.0  0.43860  0.29180  0.39560  1.0000 0.1259327602
H   H75       1.0  0.66170  0.28120  0.34790  1.0000 0.1102268954
H   H76       1.0  0.88390  0.29760  0.28790  1.0000 0.1557339129
H   H77       1.0  0.95460  0.33250  0.21330  1.0000 0.1102268954
H   H78       1.0  0.92270  0.41580  0.14370  1.0000 0.1259327602
H   H79       1.0  0.82470  0.45960  0.15890  1.0000 0.1026455148
H   H80       1.0  0.77170  0.29670  0.32160  1.0000 0.2807825354
H   H81       1.0  0.54600  0.89730  0.96670  1.0000 0.1240569052
H   H82       1.0  0.68050  0.90190  0.01380  1.0000 0.1026455148
H   H83       1.0  0.78160  0.11240  0.24960  1.0000 0.1259327602
H   H84       1.0  0.64680  0.10380  0.20820  1.0000 0.1259327602
H   H85       1.0  0.88050  0.06670  0.21880  1.0000 0.1102268954
H   H86       1.0  0.08630  0.99030  0.20240  1.0000 0.1557339129
H   H87       1.0  0.12210  0.88080  0.16750  1.0000 0.1102268954
H   H88       1.0  0.00690  0.72790  0.08420  1.0000 0.1259327602
H   H89       1.0  0.86510  0.69930  0.04040  1.0000 0.1026455148
H   H90       1.0  0.97500  0.02490  0.20330  1.0000 0.2807825354
H   H91       1.0  0.06940  0.60270  0.14870  1.0000 0.1240569052
H   H92       1.0  0.11190  0.59810  0.27860  1.0000 0.1026455148
H   H93       1.0  0.13720  0.38760  0.16920  1.0000 0.1259327602
H   H94       1.0  0.10440  0.39620  0.04300  1.0000 0.1259327602
H   H95       1.0  0.15210  0.43330  0.31380  1.0000 0.1102268954
H   H96       1.0  0.21210  0.50970  0.59600  1.0000 0.1557339129
H   H97       1.0  0.28670  0.61920  0.74130  1.0000 0.1102268954
H   H98       1.0  0.35630  0.77210  0.77900  1.0000 0.1259327602
H   H99       1.0  0.34110  0.80070  0.66580  1.0000 0.1026455148
H   H100      1.0  0.17840  0.47510  0.45010  1.0000 0.2807825354
H   H101      1.0  0.95400  0.92070  0.35130  1.0000 0.1240569052
H   H102      1.0  0.81950  0.83330  0.22140  1.0000 0.1026455148
H   H103      1.0  0.71840  0.96800  0.33080  1.0000 0.1259327602
H   H104      1.0  0.85320  0.06140  0.45700  1.0000 0.1259327602
H   H105      1.0  0.61950  0.83830  0.18620  1.0000 0.1102268954
H   H106      1.0  0.41370  0.61610  0.90400  1.0000 0.1557339129
H   H107      1.0  0.37790  0.54540  0.75870  1.0000 0.1102268954
H   H108      1.0  0.49310  0.57730  0.72100  1.0000 0.1259327602
H   H109      1.0  0.63490  0.67530  0.83420  1.0000 0.1026455148
H   H110      1.0  0.52500  0.72830  0.04990  1.0000 0.2807825354
H   H111      1.0  0.43060  0.57930  0.53330  1.0000 0.1240569052
H   H112      1.0  0.38810  0.66667  0.48620  1.0000 0.1026455148
H   H113      1.0  0.36280  0.53200  0.25040  1.0000 0.1259327602
H   H114      1.0  0.39560  0.43860  0.29180  1.0000 0.1259327602
H   H115      1.0  0.34790  0.66170  0.28120  1.0000 0.1102268954
H   H116      1.0  0.28790  0.88390  0.29760  1.0000 0.1557339129
H   H117      1.0  0.21330  0.95460  0.33250  1.0000 0.1102268954
H   H118      1.0  0.14370  0.92270  0.41580  1.0000 0.1259327602
H   H119      1.0  0.15890  0.82470  0.45960  1.0000 0.1026455148
H   H120      1.0  0.32160  0.77170  0.29670  1.0000 0.2807825354
C   C1        1.0  0.08220  0.58180  0.00260  1.0000 0.1801349058
C   C2        1.0  0.02440  0.59330  0.94070  1.0000 -0.2032929736
C   C3        1.0  0.05250  0.67390  0.94400  1.0000 -0.1388158032
C   C4        1.0  0.13580  0.74520  0.00740  1.0000 0.0572462825
C   C5        1.0  0.19260  0.73350  0.06790  1.0000 -0.1217458773
C   C6        1.0  0.16720  0.65360  0.06400  1.0000 -0.184150711
C   C7        1.0  0.16770  0.83200  0.01410  1.0000 -0.0201732134
C   C8        1.0  0.14110  0.95160  0.90590  1.0000 0.3395438042
C   C9        1.0  0.16970  0.04190  0.93020  1.0000 -0.2276295799
C   C10       1.0  0.14910  0.06270  0.86580  1.0000 -0.0201732134
C   C11       1.0  0.09900  0.99430  0.77430  1.0000 -0.2032929736
C   C12       1.0  0.07440  0.91100  0.75880  1.0000 0.0572462825
C   C13       1.0  0.07920  0.07960  0.49740  1.0000 0.1801349058
C   C14       1.0  0.15260  0.08370  0.55930  1.0000 -0.2032929736
C   C15       1.0  0.22990  0.10850  0.55600  1.0000 -0.1388158032
C   C16       1.0  0.23780  0.12840  0.49260  1.0000 0.0572462825
C   C17       1.0  0.16560  0.12470  0.43210  1.0000 -0.1217458773
C   C18       1.0  0.08960  0.10320  0.43600  1.0000 -0.184150711
C   C19       1.0  0.31790  0.15360  0.48590  1.0000 -0.0201732134
C   C20       1.0  0.54570  0.23520  0.59410  1.0000 0.3395438042
C   C21       1.0  0.61170  0.23950  0.56980  1.0000 -0.2276295799
C   C22       1.0  0.69690  0.28330  0.63420  1.0000 -0.0201732134
C   C23       1.0  0.72000  0.32470  0.72570  1.0000 -0.1946576077
C   C24       1.0  0.65220  0.31560  0.74120  1.0000 0.0572462825
C   C25       1.0  0.42080  0.91820  0.00040  1.0000 0.1801349058
C   C26       1.0  0.34740  0.90670  0.93110  1.0000 -0.2032929736
C   C27       1.0  0.27010  0.82610  0.87860  1.0000 -0.1388158032
C   C28       1.0  0.26220  0.75480  0.89060  1.0000 0.0572462825
C   C29       1.0  0.33440  0.76650  0.95910  1.0000 -0.1217458773
C   C30       1.0  0.41040  0.84640  0.01360  1.0000 -0.184150711
C   C31       1.0  0.18210  0.66800  0.83570  1.0000 -0.0201732134
C   C32       1.0  0.95430  0.54840  0.68950  1.0000 0.3395438042
C   C33       1.0  0.88830  0.45810  0.62780  1.0000 -0.2276295799
C   C34       1.0  0.80310  0.43730  0.58640  1.0000 -0.0201732134
C   C35       1.0  0.78000  0.50570  0.60470  1.0000 -0.2032929736
C   C36       1.0  0.84780  0.58900  0.66340  1.0000 0.0572462825
C   C37       1.0  0.41780  0.42040  0.49960  1.0000 0.1801349058
C   C38       1.0  0.47560  0.41630  0.56890  1.0000 -0.2032929736
C   C39       1.0  0.44750  0.39150  0.62140  1.0000 -0.1388158032
C   C40       1.0  0.36420  0.37160  0.60940  1.0000 0.0572462825
C   C41       1.0  0.30740  0.37530  0.54090  1.0000 -0.1217458773
C   C42       1.0  0.33280  0.39680  0.48640  1.0000 -0.184150711
C   C43       1.0  0.33230  0.34640  0.66430  1.0000 -0.0201732134
C   C44       1.0  0.35890  0.26480  0.81050  1.0000 0.3395438042
C   C45       1.0  0.33030  0.26050  0.87220  1.0000 -0.2276295799
C   C46       1.0  0.35090  0.21670  0.91360  1.0000 -0.0201732134
C   C47       1.0  0.40100  0.17530  0.89530  1.0000 -0.1946576077
C   C48       1.0  0.42560  0.18440  0.83660  1.0000 0.0572462825
C   C49       1.0  0.00260  0.08220  0.58180  1.0000 0.1801349058
C   C50       1.0  0.94070  0.02440  0.59330  1.0000 -0.2032929736
C   C51       1.0  0.94400  0.05250  0.67390  1.0000 -0.1388158032
C   C52       1.0  0.00740  0.13580  0.74520  1.0000 0.0572462825
C   C53       1.0  0.06790  0.19260  0.73350  1.0000 -0.1217458773
C   C54       1.0  0.06400  0.16720  0.65360  1.0000 -0.184150711
C   C55       1.0  0.01410  0.16770  0.83200  1.0000 -0.0201732134
C   C56       1.0  0.90590  0.14110  0.95160  1.0000 0.3395438042
C   C57       1.0  0.93020  0.16970  0.04190  1.0000 -0.2276295799
C   C58       1.0  0.86580  0.14910  0.06270  1.0000 -0.0201732134
C   C59       1.0  0.77430  0.09900  0.99430  1.0000 -0.1946576077
C   C60       1.0  0.75880  0.07440  0.91100  1.0000 0.0572462825
C   C61       1.0  0.49740  0.07920  0.07960  1.0000 0.1801349058
C   C62       1.0  0.55930  0.15260  0.08370  1.0000 -0.2032929736
C   C63       1.0  0.55600  0.22990  0.10850  1.0000 -0.1388158032
C   C64       1.0  0.49260  0.23780  0.12840  1.0000 0.0572462825
C   C65       1.0  0.43210  0.16560  0.12470  1.0000 -0.1217458773
C   C66       1.0  0.43600  0.08960  0.10320  1.0000 -0.184150711
C   C67       1.0  0.48590  0.31790  0.15360  1.0000 -0.0201732134
C   C68       1.0  0.59410  0.54570  0.23520  1.0000 0.3395438042
C   C69       1.0  0.56980  0.61170  0.23950  1.0000 -0.2276295799
C   C70       1.0  0.63420  0.69690  0.28330  1.0000 -0.0201732134
C   C71       1.0  0.72570  0.72000  0.32470  1.0000 -0.1946576077
C   C72       1.0  0.74120  0.65220  0.31560  1.0000 0.0572462825
C   C73       1.0  0.00040  0.42080  0.91820  1.0000 0.1801349058
C   C74       1.0  0.93110  0.34740  0.90670  1.0000 -0.2032929736
C   C75       1.0  0.87860  0.27010  0.82610  1.0000 -0.1388158032
C   C76       1.0  0.89060  0.26220  0.75480  1.0000 0.0572462825
C   C77       1.0  0.95910  0.33440  0.76650  1.0000 -0.1217458773
C   C78       1.0  0.01360  0.41040  0.84640  1.0000 -0.184150711
C   C79       1.0  0.83570  0.18210  0.66800  1.0000 -0.0201732134
C   C80       1.0  0.68950  0.95430  0.54840  1.0000 0.3395438042
C   C81       1.0  0.62780  0.88830  0.45810  1.0000 -0.2276295799
C   C82       1.0  0.58640  0.80310  0.43730  1.0000 -0.0201732134
C   C83       1.0  0.60470  0.78000  0.50570  1.0000 -0.1946576077
C   C84       1.0  0.66340  0.84780  0.58900  1.0000 0.0572462825
C   C85       1.0  0.49960  0.41780  0.42040  1.0000 0.1801349058
C   C86       1.0  0.56890  0.47560  0.41630  1.0000 -0.2032929736
C   C87       1.0  0.62140  0.44750  0.39150  1.0000 -0.1388158032
C   C88       1.0  0.60940  0.36420  0.37160  1.0000 0.0572462825
C   C89       1.0  0.54090  0.30740  0.37530  1.0000 -0.1217458773
C   C90       1.0  0.48640  0.33280  0.39680  1.0000 -0.184150711
C   C91       1.0  0.66430  0.33230  0.34640  1.0000 -0.0201732134
C   C92       1.0  0.81050  0.35890  0.26480  1.0000 0.3395438042
C   C93       1.0  0.87220  0.33030  0.26050  1.0000 -0.2276295799
C   C94       1.0  0.91360  0.35090  0.21670  1.0000 -0.0201732134
C   C95       1.0  0.89530  0.40100  0.17530  1.0000 -0.1946576077
C   C96       1.0  0.83660  0.42560  0.18440  1.0000 0.0572462825
C   C97       1.0  0.58180  0.00260  0.08220  1.0000 0.1801349058
C   C98       1.0  0.59330  0.94070  0.02440  1.0000 -0.2032929736
C   C99       1.0  0.67390  0.94400  0.05250  1.0000 -0.1388158032
C   C100      1.0  0.74520  0.00740  0.13580  1.0000 0.0572462825
C   C101      1.0  0.73350  0.06790  0.19260  1.0000 -0.1217458773
C   C102      1.0  0.65360  0.06400  0.16720  1.0000 -0.184150711
C   C103      1.0  0.83200  0.01410  0.16770  1.0000 -0.0201732134
C   C104      1.0  0.95160  0.90590  0.14110  1.0000 0.3395438042
C   C105      1.0  0.04190  0.93020  0.16970  1.0000 -0.2276295799
C   C106      1.0  0.06270  0.86580  0.14910  1.0000 -0.0201732134
C   C107      1.0  0.99430  0.77430  0.09900  1.0000 -0.1946576077
C   C108      1.0  0.91100  0.75880  0.07440  1.0000 0.0572462825
C   C109      1.0  0.07960  0.49740  0.07920  1.0000 0.1801349058
C   C110      1.0  0.08370  0.55930  0.15260  1.0000 -0.2032929736
C   C111      1.0  0.10850  0.55600  0.22990  1.0000 -0.1388158032
C   C112      1.0  0.12840  0.49260  0.23780  1.0000 0.0572462825
C   C113      1.0  0.12470  0.43210  0.16560  1.0000 -0.1217458773
C   C114      1.0  0.10320  0.43600  0.08960  1.0000 -0.184150711
C   C115      1.0  0.15360  0.48590  0.31790  1.0000 -0.0201732134
C   C116      1.0  0.23520  0.59410  0.54570  1.0000 0.3395438042
C   C117      1.0  0.23950  0.56980  0.61170  1.0000 -0.2276295799
C   C118      1.0  0.28330  0.63420  0.69690  1.0000 -0.0201732134
C   C119      1.0  0.32470  0.72570  0.72000  1.0000 -0.1946576077
C   C120      1.0  0.31560  0.74120  0.65220  1.0000 0.0572462825
C   C121      1.0  0.91820  0.00040  0.42080  1.0000 0.1801349058
C   C122      1.0  0.90670  0.93110  0.34740  1.0000 -0.2032929736
C   C123      1.0  0.82610  0.87860  0.27010  1.0000 -0.1388158032
C   C124      1.0  0.75480  0.89060  0.26220  1.0000 0.0572462825
C   C125      1.0  0.76650  0.95910  0.33440  1.0000 -0.1217458773
C   C126      1.0  0.84640  0.01360  0.41040  1.0000 -0.184150711
C   C127      1.0  0.66800  0.83570  0.18210  1.0000 -0.0201732134
C   C128      1.0  0.54840  0.68950  0.95430  1.0000 0.3395438042
C   C129      1.0  0.45810  0.62780  0.88830  1.0000 -0.2276295799
C   C130      1.0  0.43730  0.58640  0.80310  1.0000 -0.0201732134
C   C131      1.0  0.50570  0.60470  0.78000  1.0000 -0.1946576077
C   C132      1.0  0.58900  0.66340  0.84780  1.0000 0.0572462825
C   C133      1.0  0.42040  0.49960  0.41780  1.0000 0.1801349058
C   C134      1.0  0.41630  0.56890  0.47560  1.0000 -0.2032929736
C   C135      1.0  0.39150  0.62140  0.44750  1.0000 -0.1388158032
C   C136      1.0  0.37160  0.60940  0.36420  1.0000 0.0572462825
C   C137      1.0  0.37530  0.54090  0.30740  1.0000 -0.1217458773
C   C138      1.0  0.39680  0.48640  0.33280  1.0000 -0.184150711
C   C139      1.0  0.34640  0.66430  0.33230  1.0000 -0.0201732134
C   C140      1.0  0.26480  0.81050  0.35890  1.0000 0.3395438042
C   C141      1.0  0.26050  0.87220  0.33030  1.0000 -0.2276295799
C   C142      1.0  0.21670  0.91360  0.35090  1.0000 -0.0201732134
C   C143      1.0  0.17530  0.89530  0.40100  1.0000 -0.1946576077
C   C144      1.0  0.18440  0.83660  0.42560  1.0000 0.0572462825
N   N1        1.0  0.13040  0.84580  0.95300  1.0000 -0.1285360353
N   N2        1.0  0.16500  0.93210  0.97050  1.0000 -0.2112367677
N   N3        1.0  0.09440  0.88790  0.82110  1.0000 -0.2725952718
N   N4        1.0  0.39280  0.17740  0.54700  1.0000 -0.1285360353
N   N5        1.0  0.46160  0.19450  0.52950  1.0000 -0.2112367677
N   N6        1.0  0.56680  0.27330  0.67890  1.0000 -0.2725952718
N   N7        1.0  0.10720  0.65420  0.78460  1.0000 -0.1285360353
N   N8        1.0  0.03840  0.56790  0.73290  1.0000 -0.2112367677
N   N9        1.0  0.93320  0.61210  0.70650  1.0000 -0.2725952718
N   N10       1.0  0.36960  0.32260  0.71540  1.0000 -0.1285360353
N   N11       1.0  0.33500  0.30550  0.76710  1.0000 -0.2112367677
N   N12       1.0  0.40560  0.22670  0.79350  1.0000 -0.2725952718
N   N13       1.0  0.95300  0.13040  0.84580  1.0000 -0.1285360353
N   N14       1.0  0.97050  0.16500  0.93210  1.0000 -0.2112367677
N   N15       1.0  0.82110  0.09440  0.88790  1.0000 -0.2725952718
N   N16       1.0  0.54700  0.39280  0.17740  1.0000 -0.1285360353
N   N17       1.0  0.52950  0.46160  0.19450  1.0000 -0.2112367677
N   N18       1.0  0.67890  0.56680  0.27330  1.0000 -0.2725952718
N   N19       1.0  0.78460  0.10720  0.65420  1.0000 -0.1285360353
N   N20       1.0  0.73290  0.03840  0.56790  1.0000 -0.2112367677
N   N21       1.0  0.70650  0.93320  0.61210  1.0000 -0.2725952718
N   N22       1.0  0.71540  0.36960  0.32260  1.0000 -0.1285360353
N   N23       1.0  0.76710  0.33500  0.30550  1.0000 -0.2112367677
N   N24       1.0  0.79350  0.40560  0.22670  1.0000 -0.2725952718
N   N25       1.0  0.84580  0.95300  0.13040  1.0000 -0.1285360353
N   N26       1.0  0.93210  0.97050  0.16500  1.0000 -0.2112367677
N   N27       1.0  0.88790  0.82110  0.09440  1.0000 -0.2725952718
N   N28       1.0  0.17740  0.54700  0.39280  1.0000 -0.1285360353
N   N29       1.0  0.19450  0.52950  0.46160  1.0000 -0.2112367677
N   N30       1.0  0.27330  0.67890  0.56680  1.0000 -0.2725952718
N   N31       1.0  0.65420  0.78460  0.10720  1.0000 -0.1285360353
N   N32       1.0  0.56790  0.73290  0.03840  1.0000 -0.2112367677
N   N33       1.0  0.61210  0.70650  0.93320  1.0000 -0.2725952718
N   N34       1.0  0.32260  0.71540  0.36960  1.0000 -0.1285360353
N   N35       1.0  0.30550  0.76710  0.33500  1.0000 -0.2112367677
N   N36       1.0  0.22670  0.79350  0.40560  1.0000 -0.2725952718
N   N37       1.0  0.05500  0.50000  0.00000  1.0000 -0.1640791337
N   N38       1.0  0.00000  0.05500  0.50000  1.0000 -0.1640791337
N   N39       1.0  0.50000  0.00000  0.05500  1.0000 -0.1640791337
N   N40       1.0  0.44500  0.44500  0.44500  1.0000 -0.1640791337
Cl  Cl1       1.0  0.44080  0.75000  0.19080  1.0000 1.2515570568
Cl  Cl2       1.0  0.05920  0.25000  0.30920  1.0000 1.2515570568
Cl  Cl3       1.0  0.75000  0.19080  0.44080  1.0000 1.2515570568
Cl  Cl4       1.0  0.25000  0.30920  0.05920  1.0000 1.2515570568
Cl  Cl5       1.0  0.19080  0.44080  0.75000  1.0000 1.2515570568
Cl  Cl6       1.0  0.30920  0.05920  0.25000  1.0000 1.2515570568
O   O1        1.0  0.42860  0.67640  0.20260  1.0000 -0.4883224073
O   O2        1.0  0.37960  0.77390  0.20350  1.0000 -0.4883224073
O   O3        1.0  0.52620  0.82360  0.25220  1.0000 -0.4883224073
O   O4        1.0  0.42960  0.72610  0.10570  1.0000 -0.4883224073
O   O5        1.0  0.07140  0.27400  0.24780  1.0000 -0.4883224073
O   O6        1.0  0.12040  0.32390  0.39430  1.0000 -0.4883224073
O   O7        1.0  0.97380  0.22600  0.29740  1.0000 -0.4883224073
O   O8        1.0  0.07040  0.17610  0.29650  1.0000 -0.4883224073
O   O9        1.0  0.67640  0.20260  0.42860  1.0000 -0.4883224073
O   O10       1.0  0.77390  0.20350  0.37960  1.0000 -0.4883224073
O   O11       1.0  0.82360  0.25220  0.52620  1.0000 -0.4883224073
O   O12       1.0  0.72610  0.10570  0.42960  1.0000 -0.4883224073
O   O13       1.0  0.27400  0.24780  0.07140  1.0000 -0.4883224073
O   O14       1.0  0.32390  0.39430  0.12040  1.0000 -0.4883224073
O   O15       1.0  0.22600  0.29740  0.97380  1.0000 -0.4883224073
O   O16       1.0  0.17610  0.29650  0.07040  1.0000 -0.4883224073
O   O17       1.0  0.20260  0.42860  0.67640  1.0000 -0.4883224073
O   O18       1.0  0.20350  0.37960  0.77390  1.0000 -0.4883224073
O   O19       1.0  0.25220  0.52620  0.82360  1.0000 -0.4883224073
O   O20       1.0  0.10570  0.42960  0.72610  1.0000 -0.4883224073
O   O21       1.0  0.24780  0.07140  0.27400  1.0000 -0.4883224073
O   O22       1.0  0.39430  0.12040  0.32390  1.0000 -0.4883224073
O   O23       1.0  0.29740  0.97380  0.22600  1.0000 -0.4883224073
O   O24       1.0  0.29650  0.07040  0.17610  1.0000 -0.4883224073
