# DDEC6 charges by PACMAN v1.1 (https://github.com/mtap-research/PACMAN-charge/)
data_2017[Ag][srs]3[ION]37
_chemical_formula_sum              "Ag6 H120 C144 N40 Cl6 O24"
_cell_length_a       18.4517
_cell_length_b       18.4517
_cell_length_c       18.4517
_cell_angle_alpha    109.471
_cell_angle_beta     109.471
_cell_angle_gamma    109.471

_symmetry_space_group_name_H-M    "P 1"
_symmetry_Int_Tables_number       1

loop_
  _symmetry_equiv_pos_as_xyz
  'x, y, z'

loop_
  _atom_site_type_symbol
  _atom_site_label
  _atom_site_symmetry_multiplicity
  _atom_site_fract_x
  _atom_site_fract_y
  _atom_site_fract_z
  _atom_site_occupancy
  _atom_site_charge
Ag  Ag1       1.0  0.95787  0.25000  0.20787  1.0000 0.2633989869
Ag  Ag2       1.0  0.54213  0.75000  0.29213  1.0000 0.2633989869
Ag  Ag3       1.0  0.20787  0.95787  0.25000  1.0000 0.2633989869
Ag  Ag4       1.0  0.29213  0.54213  0.75000  1.0000 0.2633989869
Ag  Ag5       1.0  0.25000  0.20787  0.95787  1.0000 0.2633989869
Ag  Ag6       1.0  0.75000  0.29213  0.54213  1.0000 0.2633989869
H   H1        1.0  0.03420  0.45520  0.10320  1.0000 0.1236760474
H   H2        1.0  0.98800  0.31970  0.09830  1.0000 0.1017643623
H   H3        1.0  0.75080  0.21860  0.88800  1.0000 0.1263539611
H   H4        1.0  0.79350  0.35350  0.89560  1.0000 0.1236760474
H   H5        1.0  0.78170  0.11910  0.93360  1.0000 0.1106914037
H   H6        1.0  0.79820  0.91430  0.01010  1.0000 0.1550662636
H   H7        1.0  0.83340  0.87760  0.12000  1.0000 0.1106914037
H   H8        1.0  0.91430  0.99230  0.27160  1.0000 0.1263539611
H   H9        1.0  0.95930  0.13500  0.30130  1.0000 0.1017643623
H   H10       1.0  0.79710  0.02570  0.97560  1.0000 0.2804619515
H   H11       1.0  0.85200  0.93100  0.39680  1.0000 0.1236760474
H   H12       1.0  0.72140  0.88970  0.40170  1.0000 0.1017643623
H   H13       1.0  0.83060  0.86280  0.61200  1.0000 0.1263539611
H   H14       1.0  0.95790  0.89790  0.60440  1.0000 0.1236760474
H   H15       1.0  0.68550  0.84810  0.56640  1.0000 0.1106914037
H   H16       1.0  0.40420  0.78810  0.48990  1.0000 0.1550662636
H   H17       1.0  0.25760  0.71340  0.38000  1.0000 0.1106914037
H   H18       1.0  0.22070  0.64270  0.22840  1.0000 0.1263539611
H   H19       1.0  0.33370  0.65800  0.19870  1.0000 0.1017643623
H   H20       1.0  0.55010  0.82150  0.52440  1.0000 0.2804619515
H   H21       1.0  0.64800  0.04480  0.07900  1.0000 0.1236760474
H   H22       1.0  0.77860  0.18030  0.16830  1.0000 0.1017643623
H   H23       1.0  0.66940  0.28140  0.03220  1.0000 0.1263539611
H   H24       1.0  0.54210  0.14650  0.94000  1.0000 0.1236760474
H   H25       1.0  0.81450  0.38090  0.16260  1.0000 0.1106914037
H   H26       1.0  0.09580  0.58570  0.38390  1.0000 0.1550662636
H   H27       1.0  0.24240  0.62240  0.45580  1.0000 0.1106914037
H   H28       1.0  0.27930  0.50770  0.42200  1.0000 0.1263539611
H   H29       1.0  0.16630  0.36500  0.32430  1.0000 0.1017643623
H   H30       1.0  0.94990  0.47430  0.27140  1.0000 0.2804619515
H   H31       1.0  0.46580  0.56900  0.42100  1.0000 0.1236760474
H   H32       1.0  0.51200  0.61030  0.33170  1.0000 0.1017643623
H   H33       1.0  0.74920  0.63720  0.46780  1.0000 0.1263539611
H   H34       1.0  0.70650  0.60210  0.56000  1.0000 0.1236760474
H   H35       1.0  0.71830  0.65190  0.33740  1.0000 0.1106914037
H   H36       1.0  0.70180  0.71190  0.11610  1.0000 0.1550662636
H   H37       1.0  0.66667  0.78660  0.04420  1.0000 0.1106914037
H   H38       1.0  0.58570  0.85730  0.07800  1.0000 0.1263539611
H   H39       1.0  0.54070  0.84200  0.17570  1.0000 0.1017643623
H   H40       1.0  0.70290  0.67850  0.22860  1.0000 0.2804619515
H   H41       1.0  0.10320  0.03420  0.45520  1.0000 0.1236760474
H   H42       1.0  0.09830  0.98800  0.31970  1.0000 0.1017643623
H   H43       1.0  0.88800  0.75080  0.21860  1.0000 0.1263539611
H   H44       1.0  0.89560  0.79350  0.35350  1.0000 0.1236760474
H   H45       1.0  0.93360  0.78170  0.11910  1.0000 0.1106914037
H   H46       1.0  0.01010  0.79820  0.91430  1.0000 0.1550662636
H   H47       1.0  0.12000  0.83340  0.87760  1.0000 0.1106914037
H   H48       1.0  0.27160  0.91430  0.99230  1.0000 0.1263539611
H   H49       1.0  0.30130  0.95930  0.13500  1.0000 0.1017643623
H   H50       1.0  0.97560  0.79710  0.02570  1.0000 0.2804619515
H   H51       1.0  0.39680  0.85200  0.93100  1.0000 0.1236760474
H   H52       1.0  0.40170  0.72140  0.88970  1.0000 0.1017643623
H   H53       1.0  0.61200  0.83060  0.86280  1.0000 0.1263539611
H   H54       1.0  0.60440  0.95790  0.89790  1.0000 0.1236760474
H   H55       1.0  0.56640  0.68550  0.84810  1.0000 0.1106914037
H   H56       1.0  0.48990  0.40420  0.78810  1.0000 0.1550662636
H   H57       1.0  0.38000  0.25760  0.71340  1.0000 0.1106914037
H   H58       1.0  0.22840  0.22070  0.64270  1.0000 0.1263539611
H   H59       1.0  0.19870  0.33370  0.65800  1.0000 0.1017643623
H   H60       1.0  0.52440  0.55010  0.82150  1.0000 0.2804619515
H   H61       1.0  0.07900  0.64800  0.04480  1.0000 0.1236760474
H   H62       1.0  0.16830  0.77860  0.18030  1.0000 0.1017643623
H   H63       1.0  0.03220  0.66940  0.28140  1.0000 0.1263539611
H   H64       1.0  0.94000  0.54210  0.14650  1.0000 0.1236760474
H   H65       1.0  0.16260  0.81450  0.38090  1.0000 0.1106914037
H   H66       1.0  0.38390  0.09580  0.58570  1.0000 0.1550662636
H   H67       1.0  0.45580  0.24240  0.62240  1.0000 0.1106914037
H   H68       1.0  0.42200  0.27930  0.50770  1.0000 0.1263539611
H   H69       1.0  0.32430  0.16630  0.36500  1.0000 0.1017643623
H   H70       1.0  0.27140  0.94990  0.47430  1.0000 0.2804619515
H   H71       1.0  0.42100  0.46580  0.56900  1.0000 0.1236760474
H   H72       1.0  0.33170  0.51200  0.61030  1.0000 0.1017643623
H   H73       1.0  0.46780  0.74920  0.63720  1.0000 0.1263539611
H   H74       1.0  0.56000  0.70650  0.60210  1.0000 0.1236760474
H   H75       1.0  0.33740  0.71830  0.65190  1.0000 0.1106914037
H   H76       1.0  0.11610  0.70180  0.71190  1.0000 0.1550662636
H   H77       1.0  0.04420  0.66667  0.78660  1.0000 0.1106914037
H   H78       1.0  0.07800  0.58570  0.85730  1.0000 0.1263539611
H   H79       1.0  0.17570  0.54070  0.84200  1.0000 0.1017643623
H   H80       1.0  0.22860  0.70290  0.67850  1.0000 0.2804619515
H   H81       1.0  0.45520  0.10320  0.03420  1.0000 0.1236760474
H   H82       1.0  0.31970  0.09830  0.98800  1.0000 0.1017643623
H   H83       1.0  0.21860  0.88800  0.75080  1.0000 0.1263539611
H   H84       1.0  0.35350  0.89560  0.79350  1.0000 0.1236760474
H   H85       1.0  0.11910  0.93360  0.78170  1.0000 0.1106914037
H   H86       1.0  0.91430  0.01010  0.79820  1.0000 0.1550662636
H   H87       1.0  0.87760  0.12000  0.83340  1.0000 0.1106914037
H   H88       1.0  0.99230  0.27160  0.91430  1.0000 0.1263539611
H   H89       1.0  0.13500  0.30130  0.95930  1.0000 0.1017643623
H   H90       1.0  0.02570  0.97560  0.79710  1.0000 0.2804619515
H   H91       1.0  0.93100  0.39680  0.85200  1.0000 0.1236760474
H   H92       1.0  0.88970  0.40170  0.72140  1.0000 0.1017643623
H   H93       1.0  0.86280  0.61200  0.83060  1.0000 0.1263539611
H   H94       1.0  0.89790  0.60440  0.95790  1.0000 0.1236760474
H   H95       1.0  0.84810  0.56640  0.68550  1.0000 0.1106914037
H   H96       1.0  0.78810  0.48990  0.40420  1.0000 0.1550662636
H   H97       1.0  0.71340  0.38000  0.25760  1.0000 0.1106914037
H   H98       1.0  0.64270  0.22840  0.22070  1.0000 0.1263539611
H   H99       1.0  0.65800  0.19870  0.33370  1.0000 0.1017643623
H   H100      1.0  0.82150  0.52440  0.55010  1.0000 0.2804619515
H   H101      1.0  0.04480  0.07900  0.64800  1.0000 0.1236760474
H   H102      1.0  0.18030  0.16830  0.77860  1.0000 0.1017643623
H   H103      1.0  0.28140  0.03220  0.66940  1.0000 0.1263539611
H   H104      1.0  0.14650  0.94000  0.54210  1.0000 0.1236760474
H   H105      1.0  0.38090  0.16260  0.81450  1.0000 0.1106914037
H   H106      1.0  0.58570  0.38390  0.09580  1.0000 0.1550662636
H   H107      1.0  0.62240  0.45580  0.24240  1.0000 0.1106914037
H   H108      1.0  0.50770  0.42200  0.27930  1.0000 0.1263539611
H   H109      1.0  0.36500  0.32430  0.16630  1.0000 0.1017643623
H   H110      1.0  0.47430  0.27140  0.94990  1.0000 0.2804619515
H   H111      1.0  0.56900  0.42100  0.46580  1.0000 0.1236760474
H   H112      1.0  0.61030  0.33170  0.51200  1.0000 0.1017643623
H   H113      1.0  0.63720  0.46780  0.74920  1.0000 0.1263539611
H   H114      1.0  0.60210  0.56000  0.70650  1.0000 0.1236760474
H   H115      1.0  0.65190  0.33740  0.71830  1.0000 0.1106914037
H   H116      1.0  0.71190  0.11610  0.70180  1.0000 0.1550662636
H   H117      1.0  0.78660  0.04420  0.66667  1.0000 0.1106914037
H   H118      1.0  0.85730  0.07800  0.58570  1.0000 0.1263539611
H   H119      1.0  0.84200  0.17570  0.54070  1.0000 0.1017643623
H   H120      1.0  0.67850  0.22860  0.70290  1.0000 0.2804619515
C   C1        1.0  0.91840  0.41830  0.99790  1.0000 0.1756918362
C   C2        1.0  0.97670  0.40750  0.05980  1.0000 -0.2043654018
C   C3        1.0  0.94890  0.32650  0.05660  1.0000 -0.139864505
C   C4        1.0  0.86530  0.25560  0.99350  1.0000 0.0603766895
C   C5        1.0  0.80790  0.26680  0.93230  1.0000 -0.1206954991
C   C6        1.0  0.83390  0.34670  0.93600  1.0000 -0.1834885769
C   C7        1.0  0.83280  0.16780  0.98640  1.0000 -0.0254126675
C   C8        1.0  0.85880  0.04780  0.09400  1.0000 0.330738298
C   C9        1.0  0.83080  0.95860  0.07020  1.0000 -0.2262146578
C   C10       1.0  0.85140  0.93710  0.13490  1.0000 -0.0135977226
C   C11       1.0  0.90020  0.00520  0.22520  1.0000 -0.1929457418
C   C12       1.0  0.92550  0.08930  0.24160  1.0000 0.0603766895
C   C13       1.0  0.92040  0.92050  0.50210  1.0000 0.1756918362
C   C14       1.0  0.84770  0.91690  0.44020  1.0000 -0.2043654018
C   C15       1.0  0.76990  0.89230  0.44340  1.0000 -0.139864505
C   C16       1.0  0.76210  0.87180  0.50650  1.0000 0.0603766895
C   C17       1.0  0.83450  0.87560  0.56770  1.0000 -0.1206954991
C   C18       1.0  0.91070  0.89790  0.56400  1.0000 -0.1834885769
C   C19       1.0  0.68140  0.84640  0.51360  1.0000 -0.0254126675
C   C20       1.0  0.45380  0.76480  0.40600  1.0000 0.330738298
C   C21       1.0  0.38840  0.76060  0.42980  1.0000 -0.2262146578
C   C22       1.0  0.30220  0.71650  0.36510  1.0000 -0.0135977226
C   C23       1.0  0.28000  0.67500  0.27480  1.0000 -0.1929457418
C   C24       1.0  0.34770  0.68390  0.25840  1.0000 0.0603766895
C   C25       1.0  0.57960  0.08170  0.00010  1.0000 0.1756918362
C   C26       1.0  0.65230  0.09250  0.06920  1.0000 -0.2043654018
C   C27       1.0  0.73010  0.17350  0.12240  1.0000 -0.139864505
C   C28       1.0  0.73790  0.24440  0.10970  1.0000 0.0603766895
C   C29       1.0  0.66550  0.23320  0.04110  1.0000 -0.1206954991
C   C30       1.0  0.58930  0.15330  0.98720  1.0000 -0.1834885769
C   C31       1.0  0.81860  0.33220  0.16500  1.0000 -0.0254126675
C   C32       1.0  0.04620  0.45220  0.31100  1.0000 0.330738298
C   C33       1.0  0.11160  0.54140  0.37220  1.0000 -0.2262146578
C   C34       1.0  0.19780  0.56290  0.41430  1.0000 -0.0135977226
C   C35       1.0  0.22000  0.49480  0.39500  1.0000 -0.1929457418
C   C36       1.0  0.15230  0.41070  0.33620  1.0000 0.0603766895
C   C37       1.0  0.58160  0.57950  0.49990  1.0000 0.1756918362
C   C38       1.0  0.52330  0.58310  0.43080  1.0000 -0.2043654018
C   C39       1.0  0.55110  0.60770  0.37760  1.0000 -0.139864505
C   C40       1.0  0.63470  0.62820  0.39030  1.0000 0.0603766895
C   C41       1.0  0.69210  0.62440  0.45890  1.0000 -0.1206954991
C   C42       1.0  0.66610  0.60210  0.51280  1.0000 -0.1834885769
C   C43       1.0  0.66720  0.65360  0.33500  1.0000 -0.0254126675
C   C44       1.0  0.64120  0.73520  0.18900  1.0000 0.330738298
C   C45       1.0  0.66920  0.73940  0.12780  1.0000 -0.2262146578
C   C46       1.0  0.64860  0.78350  0.08570  1.0000 -0.0135977226
C   C47       1.0  0.59980  0.82500  0.10500  1.0000 -0.1929457418
C   C48       1.0  0.57450  0.81610  0.16380  1.0000 0.0603766895
C   C49       1.0  0.99790  0.91840  0.41830  1.0000 0.1756918362
C   C50       1.0  0.05980  0.97670  0.40750  1.0000 -0.2043654018
C   C51       1.0  0.05660  0.94890  0.32650  1.0000 -0.139864505
C   C52       1.0  0.99350  0.86530  0.25560  1.0000 0.0603766895
C   C53       1.0  0.93230  0.80790  0.26680  1.0000 -0.1206954991
C   C54       1.0  0.93600  0.83390  0.34670  1.0000 -0.1834885769
C   C55       1.0  0.98640  0.83280  0.16780  1.0000 -0.0254126675
C   C56       1.0  0.09400  0.85880  0.04780  1.0000 0.330738298
C   C57       1.0  0.07020  0.83080  0.95860  1.0000 -0.2262146578
C   C58       1.0  0.13490  0.85140  0.93710  1.0000 -0.0135977226
C   C59       1.0  0.22520  0.90020  0.00520  1.0000 -0.1929457418
C   C60       1.0  0.24160  0.92550  0.08930  1.0000 0.0603766895
C   C61       1.0  0.50210  0.92040  0.92050  1.0000 0.1756918362
C   C62       1.0  0.44020  0.84770  0.91690  1.0000 -0.2043654018
C   C63       1.0  0.44340  0.76990  0.89230  1.0000 -0.139864505
C   C64       1.0  0.50650  0.76210  0.87180  1.0000 0.0603766895
C   C65       1.0  0.56770  0.83450  0.87560  1.0000 -0.1206954991
C   C66       1.0  0.56400  0.91070  0.89790  1.0000 -0.1834885769
C   C67       1.0  0.51360  0.68140  0.84640  1.0000 -0.0254126675
C   C68       1.0  0.40600  0.45380  0.76480  1.0000 0.330738298
C   C69       1.0  0.42980  0.38840  0.76060  1.0000 -0.2262146578
C   C70       1.0  0.36510  0.30220  0.71650  1.0000 -0.0135977226
C   C71       1.0  0.27480  0.28000  0.67500  1.0000 -0.1929457418
C   C72       1.0  0.25840  0.34770  0.68390  1.0000 0.0603766895
C   C73       1.0  0.00010  0.57960  0.08170  1.0000 0.1756918362
C   C74       1.0  0.06920  0.65230  0.09250  1.0000 -0.2043654018
C   C75       1.0  0.12240  0.73010  0.17350  1.0000 -0.139864505
C   C76       1.0  0.10970  0.73790  0.24440  1.0000 0.0603766895
C   C77       1.0  0.04110  0.66550  0.23320  1.0000 -0.1206954991
C   C78       1.0  0.98720  0.58930  0.15330  1.0000 -0.1834885769
C   C79       1.0  0.16500  0.81860  0.33220  1.0000 -0.0254126675
C   C80       1.0  0.31100  0.04620  0.45220  1.0000 0.330738298
C   C81       1.0  0.37220  0.11160  0.54140  1.0000 -0.2262146578
C   C82       1.0  0.41430  0.19780  0.56290  1.0000 -0.0135977226
C   C83       1.0  0.39500  0.22000  0.49480  1.0000 -0.1929457418
C   C84       1.0  0.33620  0.15230  0.41070  1.0000 0.0603766895
C   C85       1.0  0.49990  0.58160  0.57950  1.0000 0.1756918362
C   C86       1.0  0.43080  0.52330  0.58310  1.0000 -0.2043654018
C   C87       1.0  0.37760  0.55110  0.60770  1.0000 -0.139864505
C   C88       1.0  0.39030  0.63470  0.62820  1.0000 0.0603766895
C   C89       1.0  0.45890  0.69210  0.62440  1.0000 -0.1206954991
C   C90       1.0  0.51280  0.66610  0.60210  1.0000 -0.1834885769
C   C91       1.0  0.33500  0.66720  0.65360  1.0000 -0.0254126675
C   C92       1.0  0.18900  0.64120  0.73520  1.0000 0.330738298
C   C93       1.0  0.12780  0.66920  0.73940  1.0000 -0.2262146578
C   C94       1.0  0.08570  0.64860  0.78350  1.0000 -0.0135977226
C   C95       1.0  0.10500  0.59980  0.82500  1.0000 -0.1929457418
C   C96       1.0  0.16380  0.57450  0.81610  1.0000 0.0603766895
C   C97       1.0  0.41830  0.99790  0.91840  1.0000 0.1756918362
C   C98       1.0  0.40750  0.05980  0.97670  1.0000 -0.2043654018
C   C99       1.0  0.32650  0.05660  0.94890  1.0000 -0.139864505
C   C100      1.0  0.25560  0.99350  0.86530  1.0000 0.0603766895
C   C101      1.0  0.26680  0.93230  0.80790  1.0000 -0.1206954991
C   C102      1.0  0.34670  0.93600  0.83390  1.0000 -0.1834885769
C   C103      1.0  0.16780  0.98640  0.83280  1.0000 -0.0254126675
C   C104      1.0  0.04780  0.09400  0.85880  1.0000 0.330738298
C   C105      1.0  0.95860  0.07020  0.83080  1.0000 -0.2262146578
C   C106      1.0  0.93710  0.13490  0.85140  1.0000 -0.0135977226
C   C107      1.0  0.00520  0.22520  0.90020  1.0000 -0.1929457418
C   C108      1.0  0.08930  0.24160  0.92550  1.0000 0.0603766895
C   C109      1.0  0.92050  0.50210  0.92040  1.0000 0.1756918362
C   C110      1.0  0.91690  0.44020  0.84770  1.0000 -0.2043654018
C   C111      1.0  0.89230  0.44340  0.76990  1.0000 -0.139864505
C   C112      1.0  0.87180  0.50650  0.76210  1.0000 0.0603766895
C   C113      1.0  0.87560  0.56770  0.83450  1.0000 -0.1206954991
C   C114      1.0  0.89790  0.56400  0.91070  1.0000 -0.1834885769
C   C115      1.0  0.84640  0.51360  0.68140  1.0000 -0.0254126675
C   C116      1.0  0.76480  0.40600  0.45380  1.0000 0.330738298
C   C117      1.0  0.76060  0.42980  0.38840  1.0000 -0.2262146578
C   C118      1.0  0.71650  0.36510  0.30220  1.0000 -0.0135977226
C   C119      1.0  0.67500  0.27480  0.28000  1.0000 -0.1929457418
C   C120      1.0  0.68390  0.25840  0.34770  1.0000 0.0603766895
C   C121      1.0  0.08170  0.00010  0.57960  1.0000 0.1756918362
C   C122      1.0  0.09250  0.06920  0.65230  1.0000 -0.2043654018
C   C123      1.0  0.17350  0.12240  0.73010  1.0000 -0.139864505
C   C124      1.0  0.24440  0.10970  0.73790  1.0000 0.0603766895
C   C125      1.0  0.23320  0.04110  0.66550  1.0000 -0.1206954991
C   C126      1.0  0.15330  0.98720  0.58930  1.0000 -0.1834885769
C   C127      1.0  0.33220  0.16500  0.81860  1.0000 -0.0254126675
C   C128      1.0  0.45220  0.31100  0.04620  1.0000 0.330738298
C   C129      1.0  0.54140  0.37220  0.11160  1.0000 -0.2262146578
C   C130      1.0  0.56290  0.41430  0.19780  1.0000 -0.0135977226
C   C131      1.0  0.49480  0.39500  0.22000  1.0000 -0.1929457418
C   C132      1.0  0.41070  0.33620  0.15230  1.0000 0.0603766895
C   C133      1.0  0.57950  0.49990  0.58160  1.0000 0.1756918362
C   C134      1.0  0.58310  0.43080  0.52330  1.0000 -0.2043654018
C   C135      1.0  0.60770  0.37760  0.55110  1.0000 -0.139864505
C   C136      1.0  0.62820  0.39030  0.63470  1.0000 0.0603766895
C   C137      1.0  0.62440  0.45890  0.69210  1.0000 -0.1206954991
C   C138      1.0  0.60210  0.51280  0.66610  1.0000 -0.1834885769
C   C139      1.0  0.65360  0.33500  0.66720  1.0000 -0.0254126675
C   C140      1.0  0.73520  0.18900  0.64120  1.0000 0.330738298
C   C141      1.0  0.73940  0.12780  0.66920  1.0000 -0.2262146578
C   C142      1.0  0.78350  0.08570  0.64860  1.0000 -0.0135977226
C   C143      1.0  0.82500  0.10500  0.59980  1.0000 -0.1929457418
C   C144      1.0  0.81610  0.16380  0.57450  1.0000 0.0603766895
N   N1        1.0  0.87063  0.15474  0.04797  1.0000 -0.1274464733
N   N2        1.0  0.83560  0.06830  0.03010  1.0000 -0.2043654018
N   N3        1.0  0.90590  0.11200  0.17910  1.0000 -0.2698875001
N   N4        1.0  0.60677  0.82266  0.45203  1.0000 -0.1274464733
N   N5        1.0  0.53820  0.80550  0.46990  1.0000 -0.2043654018
N   N6        1.0  0.43290  0.72680  0.32090  1.0000 -0.2698875001
N   N7        1.0  0.89323  0.34526  0.21589  1.0000 -0.1274464733
N   N8        1.0  0.96180  0.43170  0.26730  1.0000 -0.2043654018
N   N9        1.0  0.06710  0.38800  0.29390  1.0000 -0.2698875001
N   N10       1.0  0.62937  0.67734  0.28411  1.0000 -0.1274464733
N   N11       1.0  0.66440  0.69450  0.23270  1.0000 -0.2043654018
N   N12       1.0  0.59410  0.77320  0.20610  1.0000 -0.2698875001
N   N13       1.0  0.04797  0.87063  0.15474  1.0000 -0.1274464733
N   N14       1.0  0.03010  0.83560  0.06830  1.0000 -0.2043654018
N   N15       1.0  0.17910  0.90590  0.11200  1.0000 -0.2698875001
N   N16       1.0  0.45203  0.60677  0.82266  1.0000 -0.1274464733
N   N17       1.0  0.46990  0.53820  0.80550  1.0000 -0.2043654018
N   N18       1.0  0.32090  0.43290  0.72680  1.0000 -0.2698875001
N   N19       1.0  0.21589  0.89323  0.34526  1.0000 -0.1274464733
N   N20       1.0  0.26730  0.96180  0.43170  1.0000 -0.2043654018
N   N21       1.0  0.29390  0.06710  0.38800  1.0000 -0.2698875001
N   N22       1.0  0.28411  0.62937  0.67734  1.0000 -0.1274464733
N   N23       1.0  0.23270  0.66440  0.69450  1.0000 -0.2043654018
N   N24       1.0  0.20610  0.59410  0.77320  1.0000 -0.2698875001
N   N25       1.0  0.15474  0.04797  0.87063  1.0000 -0.1274464733
N   N26       1.0  0.06830  0.03010  0.83560  1.0000 -0.2043654018
N   N27       1.0  0.11200  0.17910  0.90590  1.0000 -0.2698875001
N   N28       1.0  0.82266  0.45203  0.60677  1.0000 -0.1274464733
N   N29       1.0  0.80550  0.46990  0.53820  1.0000 -0.2043654018
N   N30       1.0  0.72680  0.32090  0.43290  1.0000 -0.2698875001
N   N31       1.0  0.34526  0.21589  0.89323  1.0000 -0.1274464733
N   N32       1.0  0.43170  0.26730  0.96180  1.0000 -0.2043654018
N   N33       1.0  0.38800  0.29390  0.06710  1.0000 -0.2698875001
N   N34       1.0  0.67734  0.28411  0.62937  1.0000 -0.1274464733
N   N35       1.0  0.69450  0.23270  0.66440  1.0000 -0.2043654018
N   N36       1.0  0.77320  0.20610  0.59410  1.0000 -0.2698875001
N   N37       1.0  0.94580  0.50000  0.00000  1.0000 -0.1649410756
N   N38       1.0  0.00000  0.94580  0.50000  1.0000 -0.1649410756
N   N39       1.0  0.50000  0.00000  0.94580  1.0000 -0.1649410756
N   N40       1.0  0.55420  0.55420  0.55420  1.0000 -0.1649410756
Cl  Cl1       1.0  0.55915  0.25000  0.80915  1.0000 1.2524968504
Cl  Cl2       1.0  0.94085  0.75000  0.69085  1.0000 1.2524968504
Cl  Cl3       1.0  0.25000  0.80915  0.55915  1.0000 1.2524968504
Cl  Cl4       1.0  0.75000  0.69085  0.94085  1.0000 1.2524968504
Cl  Cl5       1.0  0.80915  0.55915  0.25000  1.0000 1.2524968504
Cl  Cl6       1.0  0.69085  0.94085  0.75000  1.0000 1.2524968504
O   O1        1.0  0.57050  0.32320  0.79630  1.0000 -0.4911833449
O   O2        1.0  0.62140  0.22640  0.79720  1.0000 -0.4911833449
O   O3        1.0  0.47310  0.17680  0.74730  1.0000 -0.4911833449
O   O4        1.0  0.57080  0.27360  0.89500  1.0000 -0.4911833449
O   O5        1.0  0.92950  0.72580  0.75270  1.0000 -0.4911833449
O   O6        1.0  0.87860  0.67580  0.60500  1.0000 -0.4911833449
O   O7        1.0  0.02690  0.77420  0.70370  1.0000 -0.4911833449
O   O8        1.0  0.92920  0.82420  0.70280  1.0000 -0.4911833449
O   O9        1.0  0.32320  0.79630  0.57050  1.0000 -0.4911833449
O   O10       1.0  0.22640  0.79720  0.62140  1.0000 -0.4911833449
O   O11       1.0  0.17680  0.74730  0.47310  1.0000 -0.4911833449
O   O12       1.0  0.27360  0.89500  0.57080  1.0000 -0.4911833449
O   O13       1.0  0.72580  0.75270  0.92950  1.0000 -0.4911833449
O   O14       1.0  0.67580  0.60500  0.87860  1.0000 -0.4911833449
O   O15       1.0  0.77420  0.70370  0.02690  1.0000 -0.4911833449
O   O16       1.0  0.82420  0.70280  0.92920  1.0000 -0.4911833449
O   O17       1.0  0.79630  0.57050  0.32320  1.0000 -0.4911833449
O   O18       1.0  0.79720  0.62140  0.22640  1.0000 -0.4911833449
O   O19       1.0  0.74730  0.47310  0.17680  1.0000 -0.4911833449
O   O20       1.0  0.89500  0.57080  0.27360  1.0000 -0.4911833449
O   O21       1.0  0.75270  0.92950  0.72580  1.0000 -0.4911833449
O   O22       1.0  0.60500  0.87860  0.67580  1.0000 -0.4911833449
O   O23       1.0  0.70370  0.02690  0.77420  1.0000 -0.4911833449
O   O24       1.0  0.70280  0.92920  0.82420  1.0000 -0.4911833449
