# DDEC6 charges by PACMAN v1.1 (https://github.com/mtap-research/PACMAN-charge/)
data_2017[Ag][srs]3[ION]36
_chemical_formula_sum              "Ag6 H120 C144 N40 Cl6 O24"
_cell_length_a       18.4654
_cell_length_b       18.4654
_cell_length_c       18.4654
_cell_angle_alpha    109.471
_cell_angle_beta     109.471
_cell_angle_gamma    109.471

_symmetry_space_group_name_H-M    "P 1"
_symmetry_Int_Tables_number       1

loop_
  _symmetry_equiv_pos_as_xyz
  'x, y, z'

loop_
  _atom_site_type_symbol
  _atom_site_label
  _atom_site_symmetry_multiplicity
  _atom_site_fract_x
  _atom_site_fract_y
  _atom_site_fract_z
  _atom_site_occupancy
  _atom_site_charge
Ag  Ag1       1.0  0.95724  0.25000  0.20724  1.0000 0.2659433116
Ag  Ag2       1.0  0.54276  0.75000  0.29276  1.0000 0.2659433116
Ag  Ag3       1.0  0.20724  0.95724  0.25000  1.0000 0.2659433116
Ag  Ag4       1.0  0.29276  0.54276  0.75000  1.0000 0.2659433116
Ag  Ag5       1.0  0.25000  0.20724  0.95724  1.0000 0.2659433116
Ag  Ag6       1.0  0.75000  0.29276  0.54276  1.0000 0.2659433116
H   H1        1.0  0.03320  0.45390  0.10230  1.0000 0.1238684422
H   H2        1.0  0.98690  0.31940  0.09790  1.0000 0.1004187667
H   H3        1.0  0.75040  0.21870  0.88830  1.0000 0.1238684422
H   H4        1.0  0.79200  0.35310  0.89530  1.0000 0.1238684422
H   H5        1.0  0.78070  0.11960  0.93330  1.0000 0.1092052116
H   H6        1.0  0.79770  0.91460  0.00930  1.0000 0.1526361683
H   H7        1.0  0.83310  0.87780  0.11830  1.0000 0.1092052116
H   H8        1.0  0.91410  0.99230  0.27060  1.0000 0.1238684422
H   H9        1.0  0.96060  0.13490  0.30090  1.0000 0.1004187667
H   H10       1.0  0.79730  0.02560  0.97530  1.0000 0.2809085329
H   H11       1.0  0.85160  0.93090  0.39770  1.0000 0.1238684422
H   H12       1.0  0.72150  0.88900  0.40210  1.0000 0.1004187667
H   H13       1.0  0.83040  0.86210  0.61170  1.0000 0.1238684422
H   H14       1.0  0.95780  0.89670  0.60470  1.0000 0.1238684422
H   H15       1.0  0.68630  0.84740  0.56670  1.0000 0.1092052116
H   H16       1.0  0.40530  0.78840  0.49070  1.0000 0.1526361683
H   H17       1.0  0.25950  0.71480  0.38170  1.0000 0.1092052116
H   H18       1.0  0.22170  0.64350  0.22940  1.0000 0.1238684422
H   H19       1.0  0.33400  0.65970  0.19910  1.0000 0.1004187667
H   H20       1.0  0.55030  0.82200  0.52470  1.0000 0.2809085329
H   H21       1.0  0.64840  0.04610  0.07930  1.0000 0.1238684422
H   H22       1.0  0.77850  0.18060  0.16750  1.0000 0.1004187667
H   H23       1.0  0.66960  0.28130  0.03170  1.0000 0.1238684422
H   H24       1.0  0.54220  0.14690  0.93890  1.0000 0.1238684422
H   H25       1.0  0.81370  0.38040  0.16110  1.0000 0.1092052116
H   H26       1.0  0.09470  0.58540  0.38310  1.0000 0.1526361683
H   H27       1.0  0.24050  0.62220  0.45530  1.0000 0.1092052116
H   H28       1.0  0.27830  0.50770  0.42180  1.0000 0.1238684422
H   H29       1.0  0.16600  0.36510  0.32570  1.0000 0.1004187667
H   H30       1.0  0.94970  0.47440  0.27170  1.0000 0.2809085329
H   H31       1.0  0.46680  0.56910  0.42070  1.0000 0.1238684422
H   H32       1.0  0.51310  0.61100  0.33250  1.0000 0.1004187667
H   H33       1.0  0.74960  0.63790  0.46830  1.0000 0.1238684422
H   H34       1.0  0.70800  0.60330  0.56110  1.0000 0.1238684422
H   H35       1.0  0.71930  0.65260  0.33890  1.0000 0.1092052116
H   H36       1.0  0.70230  0.71160  0.11690  1.0000 0.1526361683
H   H37       1.0  0.66690  0.78520  0.04470  1.0000 0.1092052116
H   H38       1.0  0.58590  0.85650  0.07820  1.0000 0.1238684422
H   H39       1.0  0.53940  0.84030  0.17430  1.0000 0.1004187667
H   H40       1.0  0.70270  0.67800  0.22830  1.0000 0.2809085329
H   H41       1.0  0.10230  0.03320  0.45390  1.0000 0.1238684422
H   H42       1.0  0.09790  0.98690  0.31940  1.0000 0.1004187667
H   H43       1.0  0.88830  0.75040  0.21870  1.0000 0.1238684422
H   H44       1.0  0.89530  0.79200  0.35310  1.0000 0.1238684422
H   H45       1.0  0.93330  0.78070  0.11960  1.0000 0.1092052116
H   H46       1.0  0.00930  0.79770  0.91460  1.0000 0.1526361683
H   H47       1.0  0.11830  0.83310  0.87780  1.0000 0.1092052116
H   H48       1.0  0.27060  0.91410  0.99230  1.0000 0.1238684422
H   H49       1.0  0.30090  0.96060  0.13490  1.0000 0.1004187667
H   H50       1.0  0.97530  0.79730  0.02560  1.0000 0.2809085329
H   H51       1.0  0.39770  0.85160  0.93090  1.0000 0.1238684422
H   H52       1.0  0.40210  0.72150  0.88900  1.0000 0.1004187667
H   H53       1.0  0.61170  0.83040  0.86210  1.0000 0.1238684422
H   H54       1.0  0.60470  0.95780  0.89670  1.0000 0.1238684422
H   H55       1.0  0.56670  0.68630  0.84740  1.0000 0.1092052116
H   H56       1.0  0.49070  0.40530  0.78840  1.0000 0.1526361683
H   H57       1.0  0.38170  0.25950  0.71480  1.0000 0.1092052116
H   H58       1.0  0.22940  0.22170  0.64350  1.0000 0.1238684422
H   H59       1.0  0.19910  0.33400  0.65970  1.0000 0.1004187667
H   H60       1.0  0.52470  0.55030  0.82200  1.0000 0.2809085329
H   H61       1.0  0.07930  0.64840  0.04610  1.0000 0.1238684422
H   H62       1.0  0.16750  0.77850  0.18060  1.0000 0.1004187667
H   H63       1.0  0.03170  0.66960  0.28130  1.0000 0.1238684422
H   H64       1.0  0.93890  0.54220  0.14690  1.0000 0.1238684422
H   H65       1.0  0.16110  0.81370  0.38040  1.0000 0.1092052116
H   H66       1.0  0.38310  0.09470  0.58540  1.0000 0.1526361683
H   H67       1.0  0.45530  0.24050  0.62220  1.0000 0.1092052116
H   H68       1.0  0.42180  0.27830  0.50770  1.0000 0.1238684422
H   H69       1.0  0.32570  0.16600  0.36510  1.0000 0.1004187667
H   H70       1.0  0.27170  0.94970  0.47440  1.0000 0.2809085329
H   H71       1.0  0.42070  0.46680  0.56910  1.0000 0.1238684422
H   H72       1.0  0.33250  0.51310  0.61100  1.0000 0.1004187667
H   H73       1.0  0.46830  0.74960  0.63790  1.0000 0.1238684422
H   H74       1.0  0.56110  0.70800  0.60330  1.0000 0.1238684422
H   H75       1.0  0.33890  0.71930  0.65260  1.0000 0.1092052116
H   H76       1.0  0.11690  0.70230  0.71160  1.0000 0.1526361683
H   H77       1.0  0.04470  0.66690  0.78520  1.0000 0.1092052116
H   H78       1.0  0.07820  0.58590  0.85650  1.0000 0.1238684422
H   H79       1.0  0.17430  0.53940  0.84030  1.0000 0.1004187667
H   H80       1.0  0.22830  0.70270  0.67800  1.0000 0.2809085329
H   H81       1.0  0.45390  0.10230  0.03320  1.0000 0.1238684422
H   H82       1.0  0.31940  0.09790  0.98690  1.0000 0.1004187667
H   H83       1.0  0.21870  0.88830  0.75040  1.0000 0.1238684422
H   H84       1.0  0.35310  0.89530  0.79200  1.0000 0.1238684422
H   H85       1.0  0.11960  0.93330  0.78070  1.0000 0.1092052116
H   H86       1.0  0.91460  0.00930  0.79770  1.0000 0.1526361683
H   H87       1.0  0.87780  0.11830  0.83310  1.0000 0.1092052116
H   H88       1.0  0.99230  0.27060  0.91410  1.0000 0.1238684422
H   H89       1.0  0.13490  0.30090  0.96060  1.0000 0.1004187667
H   H90       1.0  0.02560  0.97530  0.79730  1.0000 0.2809085329
H   H91       1.0  0.93090  0.39770  0.85160  1.0000 0.1238684422
H   H92       1.0  0.88900  0.40210  0.72150  1.0000 0.1004187667
H   H93       1.0  0.86210  0.61170  0.83040  1.0000 0.1238684422
H   H94       1.0  0.89670  0.60470  0.95780  1.0000 0.1238684422
H   H95       1.0  0.84740  0.56670  0.68630  1.0000 0.1092052116
H   H96       1.0  0.78840  0.49070  0.40530  1.0000 0.1526361683
H   H97       1.0  0.71480  0.38170  0.25950  1.0000 0.1092052116
H   H98       1.0  0.64350  0.22940  0.22170  1.0000 0.1238684422
H   H99       1.0  0.65970  0.19910  0.33400  1.0000 0.1004187667
H   H100      1.0  0.82200  0.52470  0.55030  1.0000 0.2809085329
H   H101      1.0  0.04610  0.07930  0.64840  1.0000 0.1238684422
H   H102      1.0  0.18060  0.16750  0.77850  1.0000 0.1004187667
H   H103      1.0  0.28130  0.03170  0.66960  1.0000 0.1238684422
H   H104      1.0  0.14690  0.93890  0.54220  1.0000 0.1238684422
H   H105      1.0  0.38040  0.16110  0.81370  1.0000 0.1092052116
H   H106      1.0  0.58540  0.38310  0.09470  1.0000 0.1526361683
H   H107      1.0  0.62220  0.45530  0.24050  1.0000 0.1092052116
H   H108      1.0  0.50770  0.42180  0.27830  1.0000 0.1238684422
H   H109      1.0  0.36510  0.32570  0.16600  1.0000 0.1004187667
H   H110      1.0  0.47440  0.27170  0.94970  1.0000 0.2809085329
H   H111      1.0  0.56910  0.42070  0.46680  1.0000 0.1238684422
H   H112      1.0  0.61100  0.33250  0.51310  1.0000 0.1004187667
H   H113      1.0  0.63790  0.46830  0.74960  1.0000 0.1238684422
H   H114      1.0  0.60330  0.56110  0.70800  1.0000 0.1238684422
H   H115      1.0  0.65260  0.33890  0.71930  1.0000 0.1092052116
H   H116      1.0  0.71160  0.11690  0.70230  1.0000 0.1526361683
H   H117      1.0  0.78520  0.04470  0.66690  1.0000 0.1092052116
H   H118      1.0  0.85650  0.07820  0.58590  1.0000 0.1238684422
H   H119      1.0  0.84030  0.17430  0.53940  1.0000 0.1004187667
H   H120      1.0  0.67800  0.22830  0.70270  1.0000 0.2809085329
C   C1        1.0  0.91740  0.41830  0.99730  1.0000 0.1792172521
C   C2        1.0  0.97550  0.40650  0.05900  1.0000 -0.2043005392
C   C3        1.0  0.94790  0.32610  0.05600  1.0000 -0.1393311219
C   C4        1.0  0.86430  0.25500  0.99270  1.0000 0.0590039806
C   C5        1.0  0.80760  0.26680  0.93240  1.0000 -0.1227203355
C   C6        1.0  0.83270  0.34650  0.93560  1.0000 -0.1844954313
C   C7        1.0  0.83200  0.16800  0.98580  1.0000 -0.0176947623
C   C8        1.0  0.85850  0.04800  0.09330  1.0000 0.3328349396
C   C9        1.0  0.83040  0.95880  0.06940  1.0000 -0.225753826
C   C10       1.0  0.85100  0.93720  0.13340  1.0000 -0.0176947623
C   C11       1.0  0.90040  0.00550  0.22450  1.0000 -0.1927962684
C   C12       1.0  0.92620  0.08930  0.24130  1.0000 0.0590039806
C   C13       1.0  0.92100  0.92010  0.50270  1.0000 0.1792172521
C   C14       1.0  0.84750  0.91650  0.44100  1.0000 -0.2043005392
C   C15       1.0  0.77010  0.89190  0.44400  1.0000 -0.1393311219
C   C16       1.0  0.76230  0.87160  0.50730  1.0000 0.0590039806
C   C17       1.0  0.83440  0.87520  0.56760  1.0000 -0.1227203355
C   C18       1.0  0.91090  0.89710  0.56440  1.0000 -0.1844954313
C   C19       1.0  0.68220  0.84620  0.51420  1.0000 -0.0176947623
C   C20       1.0  0.45470  0.76520  0.40670  1.0000 0.3328349396
C   C21       1.0  0.38940  0.76100  0.43060  1.0000 -0.225753826
C   C22       1.0  0.30380  0.71760  0.36660  1.0000 -0.0176947623
C   C23       1.0  0.28100  0.67590  0.27550  1.0000 -0.1927962684
C   C24       1.0  0.34800  0.68490  0.25870  1.0000 0.0590039806
C   C25       1.0  0.57900  0.08170  0.99910  1.0000 0.1792172521
C   C26       1.0  0.65250  0.09350  0.06900  1.0000 -0.2043005392
C   C27       1.0  0.72990  0.17390  0.12180  1.0000 -0.1393311219
C   C28       1.0  0.73770  0.24500  0.10930  1.0000 0.0590039806
C   C29       1.0  0.66560  0.23320  0.04080  1.0000 -0.1227203355
C   C30       1.0  0.58910  0.15350  0.98620  1.0000 -0.1844954313
C   C31       1.0  0.81780  0.33200  0.16400  1.0000 -0.0176947623
C   C32       1.0  0.04530  0.45200  0.31050  1.0000 0.3328349396
C   C33       1.0  0.11060  0.54120  0.37160  1.0000 -0.225753826
C   C34       1.0  0.19620  0.56280  0.41380  1.0000 -0.0176947623
C   C35       1.0  0.21900  0.49450  0.39490  1.0000 -0.1927962684
C   C36       1.0  0.15200  0.41070  0.33690  1.0000 0.0590039806
C   C37       1.0  0.58260  0.57990  0.50090  1.0000 0.1792172521
C   C38       1.0  0.52450  0.58350  0.43100  1.0000 -0.2043005392
C   C39       1.0  0.55210  0.60810  0.37820  1.0000 -0.1393311219
C   C40       1.0  0.63570  0.62840  0.39070  1.0000 0.0590039806
C   C41       1.0  0.69240  0.62480  0.45920  1.0000 -0.1227203355
C   C42       1.0  0.66730  0.60290  0.51380  1.0000 -0.1844954313
C   C43       1.0  0.66800  0.65380  0.33600  1.0000 -0.0176947623
C   C44       1.0  0.64150  0.73480  0.18950  1.0000 0.3328349396
C   C45       1.0  0.66960  0.73900  0.12840  1.0000 -0.225753826
C   C46       1.0  0.64900  0.78240  0.08620  1.0000 -0.0176947623
C   C47       1.0  0.59960  0.82410  0.10510  1.0000 -0.1927962684
C   C48       1.0  0.57380  0.81510  0.16310  1.0000 0.0590039806
C   C49       1.0  0.99730  0.91740  0.41830  1.0000 0.1792172521
C   C50       1.0  0.05900  0.97550  0.40650  1.0000 -0.2043005392
C   C51       1.0  0.05600  0.94790  0.32610  1.0000 -0.1393311219
C   C52       1.0  0.99270  0.86430  0.25500  1.0000 0.0590039806
C   C53       1.0  0.93240  0.80760  0.26680  1.0000 -0.1227203355
C   C54       1.0  0.93560  0.83270  0.34650  1.0000 -0.1844954313
C   C55       1.0  0.98580  0.83200  0.16800  1.0000 -0.0176947623
C   C56       1.0  0.09330  0.85850  0.04800  1.0000 0.3328349396
C   C57       1.0  0.06940  0.83040  0.95880  1.0000 -0.225753826
C   C58       1.0  0.13340  0.85100  0.93720  1.0000 -0.0176947623
C   C59       1.0  0.22450  0.90040  0.00550  1.0000 -0.1927962684
C   C60       1.0  0.24130  0.92620  0.08930  1.0000 0.0590039806
C   C61       1.0  0.50270  0.92100  0.92010  1.0000 0.1792172521
C   C62       1.0  0.44100  0.84750  0.91650  1.0000 -0.2043005392
C   C63       1.0  0.44400  0.77010  0.89190  1.0000 -0.1393311219
C   C64       1.0  0.50730  0.76230  0.87160  1.0000 0.0590039806
C   C65       1.0  0.56760  0.83440  0.87520  1.0000 -0.1227203355
C   C66       1.0  0.56440  0.91090  0.89710  1.0000 -0.1844954313
C   C67       1.0  0.51420  0.68220  0.84620  1.0000 -0.0176947623
C   C68       1.0  0.40670  0.45470  0.76520  1.0000 0.3328349396
C   C69       1.0  0.43060  0.38940  0.76100  1.0000 -0.225753826
C   C70       1.0  0.36660  0.30380  0.71760  1.0000 -0.0176947623
C   C71       1.0  0.27550  0.28100  0.67590  1.0000 -0.1927962684
C   C72       1.0  0.25870  0.34800  0.68490  1.0000 0.0590039806
C   C73       1.0  0.99910  0.57900  0.08170  1.0000 0.1792172521
C   C74       1.0  0.06900  0.65250  0.09350  1.0000 -0.2043005392
C   C75       1.0  0.12180  0.72990  0.17390  1.0000 -0.1393311219
C   C76       1.0  0.10930  0.73770  0.24500  1.0000 0.0590039806
C   C77       1.0  0.04080  0.66560  0.23320  1.0000 -0.1227203355
C   C78       1.0  0.98620  0.58910  0.15350  1.0000 -0.1844954313
C   C79       1.0  0.16400  0.81780  0.33200  1.0000 -0.0176947623
C   C80       1.0  0.31050  0.04530  0.45200  1.0000 0.3328349396
C   C81       1.0  0.37160  0.11060  0.54120  1.0000 -0.225753826
C   C82       1.0  0.41380  0.19620  0.56280  1.0000 -0.0176947623
C   C83       1.0  0.39490  0.21900  0.49450  1.0000 -0.1927962684
C   C84       1.0  0.33690  0.15200  0.41070  1.0000 0.0590039806
C   C85       1.0  0.50090  0.58260  0.57990  1.0000 0.1792172521
C   C86       1.0  0.43100  0.52450  0.58350  1.0000 -0.2043005392
C   C87       1.0  0.37820  0.55210  0.60810  1.0000 -0.1393311219
C   C88       1.0  0.39070  0.63570  0.62840  1.0000 0.0590039806
C   C89       1.0  0.45920  0.69240  0.62480  1.0000 -0.1227203355
C   C90       1.0  0.51380  0.66730  0.60290  1.0000 -0.1844954313
C   C91       1.0  0.33600  0.66800  0.65380  1.0000 -0.0176947623
C   C92       1.0  0.18950  0.64150  0.73480  1.0000 0.3328349396
C   C93       1.0  0.12840  0.66960  0.73900  1.0000 -0.225753826
C   C94       1.0  0.08620  0.64900  0.78240  1.0000 -0.0176947623
C   C95       1.0  0.10510  0.59960  0.82410  1.0000 -0.1927962684
C   C96       1.0  0.16310  0.57380  0.81510  1.0000 0.0590039806
C   C97       1.0  0.41830  0.99730  0.91740  1.0000 0.1792172521
C   C98       1.0  0.40650  0.05900  0.97550  1.0000 -0.2043005392
C   C99       1.0  0.32610  0.05600  0.94790  1.0000 -0.1393311219
C   C100      1.0  0.25500  0.99270  0.86430  1.0000 0.0590039806
C   C101      1.0  0.26680  0.93240  0.80760  1.0000 -0.1227203355
C   C102      1.0  0.34650  0.93560  0.83270  1.0000 -0.1844954313
C   C103      1.0  0.16800  0.98580  0.83200  1.0000 -0.0176947623
C   C104      1.0  0.04800  0.09330  0.85850  1.0000 0.3328349396
C   C105      1.0  0.95880  0.06940  0.83040  1.0000 -0.225753826
C   C106      1.0  0.93720  0.13340  0.85100  1.0000 -0.0176947623
C   C107      1.0  0.00550  0.22450  0.90040  1.0000 -0.1927962684
C   C108      1.0  0.08930  0.24130  0.92620  1.0000 0.0590039806
C   C109      1.0  0.92010  0.50270  0.92100  1.0000 0.1792172521
C   C110      1.0  0.91650  0.44100  0.84750  1.0000 -0.2043005392
C   C111      1.0  0.89190  0.44400  0.77010  1.0000 -0.1393311219
C   C112      1.0  0.87160  0.50730  0.76230  1.0000 0.0590039806
C   C113      1.0  0.87520  0.56760  0.83440  1.0000 -0.1227203355
C   C114      1.0  0.89710  0.56440  0.91090  1.0000 -0.1844954313
C   C115      1.0  0.84620  0.51420  0.68220  1.0000 -0.0176947623
C   C116      1.0  0.76520  0.40670  0.45470  1.0000 0.3328349396
C   C117      1.0  0.76100  0.43060  0.38940  1.0000 -0.225753826
C   C118      1.0  0.71760  0.36660  0.30380  1.0000 -0.0176947623
C   C119      1.0  0.67590  0.27550  0.28100  1.0000 -0.1927962684
C   C120      1.0  0.68490  0.25870  0.34800  1.0000 0.0590039806
C   C121      1.0  0.08170  0.99910  0.57900  1.0000 0.1792172521
C   C122      1.0  0.09350  0.06900  0.65250  1.0000 -0.2043005392
C   C123      1.0  0.17390  0.12180  0.72990  1.0000 -0.1393311219
C   C124      1.0  0.24500  0.10930  0.73770  1.0000 0.0590039806
C   C125      1.0  0.23320  0.04080  0.66560  1.0000 -0.1227203355
C   C126      1.0  0.15350  0.98620  0.58910  1.0000 -0.1844954313
C   C127      1.0  0.33200  0.16400  0.81780  1.0000 -0.0176947623
C   C128      1.0  0.45200  0.31050  0.04530  1.0000 0.3328349396
C   C129      1.0  0.54120  0.37160  0.11060  1.0000 -0.225753826
C   C130      1.0  0.56280  0.41380  0.19620  1.0000 -0.0176947623
C   C131      1.0  0.49450  0.39490  0.21900  1.0000 -0.1927962684
C   C132      1.0  0.41070  0.33690  0.15200  1.0000 0.0590039806
C   C133      1.0  0.57990  0.50090  0.58260  1.0000 0.1792172521
C   C134      1.0  0.58350  0.43100  0.52450  1.0000 -0.2043005392
C   C135      1.0  0.60810  0.37820  0.55210  1.0000 -0.1393311219
C   C136      1.0  0.62840  0.39070  0.63570  1.0000 0.0590039806
C   C137      1.0  0.62480  0.45920  0.69240  1.0000 -0.1227203355
C   C138      1.0  0.60290  0.51380  0.66730  1.0000 -0.1844954313
C   C139      1.0  0.65380  0.33600  0.66800  1.0000 -0.0176947623
C   C140      1.0  0.73480  0.18950  0.64150  1.0000 0.3328349396
C   C141      1.0  0.73900  0.12840  0.66960  1.0000 -0.225753826
C   C142      1.0  0.78240  0.08620  0.64900  1.0000 -0.0176947623
C   C143      1.0  0.82410  0.10510  0.59960  1.0000 -0.1927962684
C   C144      1.0  0.81510  0.16310  0.57380  1.0000 0.0590039806
N   N1        1.0  0.86960  0.15420  0.04720  1.0000 -0.1266312595
N   N2        1.0  0.83530  0.06820  0.02970  1.0000 -0.2043005392
N   N3        1.0  0.90610  0.11220  0.17870  1.0000 -0.2720891953
N   N4        1.0  0.60700  0.82240  0.45280  1.0000 -0.1266312595
N   N5        1.0  0.53850  0.80560  0.47030  1.0000 -0.2055090637
N   N6        1.0  0.43350  0.72740  0.32130  1.0000 -0.2720891953
N   N7        1.0  0.89300  0.34580  0.21540  1.0000 -0.1266312595
N   N8        1.0  0.96150  0.43180  0.26710  1.0000 -0.2055090637
N   N9        1.0  0.06650  0.38780  0.29390  1.0000 -0.2720891953
N   N10       1.0  0.63040  0.67760  0.28460  1.0000 -0.1266312595
N   N11       1.0  0.66470  0.69440  0.23290  1.0000 -0.2055090637
N   N12       1.0  0.59390  0.77260  0.20610  1.0000 -0.2720891953
N   N13       1.0  0.04720  0.86960  0.15420  1.0000 -0.1266312595
N   N14       1.0  0.02970  0.83530  0.06820  1.0000 -0.2055090637
N   N15       1.0  0.17870  0.90610  0.11220  1.0000 -0.2720891953
N   N16       1.0  0.45280  0.60700  0.82240  1.0000 -0.1266312595
N   N17       1.0  0.47030  0.53850  0.80560  1.0000 -0.2043005392
N   N18       1.0  0.32130  0.43350  0.72740  1.0000 -0.2720891953
N   N19       1.0  0.21540  0.89300  0.34580  1.0000 -0.1266312595
N   N20       1.0  0.26710  0.96150  0.43180  1.0000 -0.2055090637
N   N21       1.0  0.29390  0.06650  0.38780  1.0000 -0.2720891953
N   N22       1.0  0.28460  0.63040  0.67760  1.0000 -0.1266312595
N   N23       1.0  0.23290  0.66470  0.69440  1.0000 -0.2055090637
N   N24       1.0  0.20610  0.59390  0.77260  1.0000 -0.2720891953
N   N25       1.0  0.15420  0.04720  0.86960  1.0000 -0.1266312595
N   N26       1.0  0.06820  0.02970  0.83530  1.0000 -0.2043005392
N   N27       1.0  0.11220  0.17870  0.90610  1.0000 -0.2720891953
N   N28       1.0  0.82240  0.45280  0.60700  1.0000 -0.1266312595
N   N29       1.0  0.80560  0.47030  0.53850  1.0000 -0.2055090637
N   N30       1.0  0.72740  0.32130  0.43350  1.0000 -0.2720891953
N   N31       1.0  0.34580  0.21540  0.89300  1.0000 -0.1266312595
N   N32       1.0  0.43180  0.26710  0.96150  1.0000 -0.2043005392
N   N33       1.0  0.38780  0.29390  0.06650  1.0000 -0.2720891953
N   N34       1.0  0.67760  0.28460  0.63040  1.0000 -0.1266312595
N   N35       1.0  0.69440  0.23290  0.66470  1.0000 -0.2043005392
N   N36       1.0  0.77260  0.20610  0.59390  1.0000 -0.2720891953
N   N37       1.0  0.94460  0.50000  0.00000  1.0000 -0.1583872446
N   N38       1.0  1.00000  0.94460  0.50000  1.0000 -0.1583872446
N   N39       1.0  0.50000  0.00000  0.94460  1.0000 -0.1583872446
N   N40       1.0  0.55540  0.55540  0.55540  1.0000 -0.1583872446
Cl  Cl1       1.0  0.55913  0.25000  0.80913  1.0000 1.2550109207
Cl  Cl2       1.0  0.94087  0.75000  0.69087  1.0000 1.2541731178
Cl  Cl3       1.0  0.25000  0.80913  0.55913  1.0000 1.2550109207
Cl  Cl4       1.0  0.75000  0.69087  0.94087  1.0000 1.2550109207
Cl  Cl5       1.0  0.80913  0.55913  0.25000  1.0000 1.2541731178
Cl  Cl6       1.0  0.69087  0.94087  0.75000  1.0000 1.2550109207
O   O1        1.0  0.57100  0.32350  0.79690  1.0000 -0.4886776503
O   O2        1.0  0.62070  0.22650  0.79680  1.0000 -0.4886776503
O   O3        1.0  0.47340  0.17650  0.74750  1.0000 -0.4886776503
O   O4        1.0  0.57030  0.27350  0.89420  1.0000 -0.4886776503
O   O5        1.0  0.92900  0.72590  0.75250  1.0000 -0.4886776503
O   O6        1.0  0.87930  0.67610  0.60580  1.0000 -0.4886776503
O   O7        1.0  0.02660  0.77410  0.70310  1.0000 -0.4886776503
O   O8        1.0  0.92970  0.82390  0.70320  1.0000 -0.4886776503
O   O9        1.0  0.32350  0.79690  0.57100  1.0000 -0.4886776503
O   O10       1.0  0.22650  0.79680  0.62070  1.0000 -0.4886776503
O   O11       1.0  0.17650  0.74750  0.47340  1.0000 -0.4886776503
O   O12       1.0  0.27350  0.89420  0.57030  1.0000 -0.4886776503
O   O13       1.0  0.72590  0.75250  0.92900  1.0000 -0.4886776503
O   O14       1.0  0.67610  0.60580  0.87930  1.0000 -0.4886776503
O   O15       1.0  0.77410  0.70310  0.02660  1.0000 -0.4886776503
O   O16       1.0  0.82390  0.70320  0.92970  1.0000 -0.4886776503
O   O17       1.0  0.79690  0.57100  0.32350  1.0000 -0.4886776503
O   O18       1.0  0.79680  0.62070  0.22650  1.0000 -0.4886776503
O   O19       1.0  0.74750  0.47340  0.17650  1.0000 -0.4886776503
O   O20       1.0  0.89420  0.57030  0.27350  1.0000 -0.4886776503
O   O21       1.0  0.75250  0.92900  0.72590  1.0000 -0.4886776503
O   O22       1.0  0.60580  0.87930  0.67610  1.0000 -0.4886776503
O   O23       1.0  0.70310  0.02660  0.77410  1.0000 -0.4886776503
O   O24       1.0  0.70320  0.92970  0.82390  1.0000 -0.4886776503
