# DDEC6 charges by PACMAN v1.1 (https://github.com/mtap-research/PACMAN-charge/)
data_2017[Ag][hcb]2[ION]2
_chemical_formula_sum              "Ag4 H84 C112 S4 N12 O36 F12"
_cell_length_a       14.0251
_cell_length_b       17.0367
_cell_length_c       17.6156
_cell_angle_alpha    61.418
_cell_angle_beta     70.12
_cell_angle_gamma    75.777

_symmetry_space_group_name_H-M    "P 1"
_symmetry_Int_Tables_number       1

loop_
  _symmetry_equiv_pos_as_xyz
  'x, y, z'

loop_
  _atom_site_type_symbol
  _atom_site_label
  _atom_site_symmetry_multiplicity
  _atom_site_fract_x
  _atom_site_fract_y
  _atom_site_fract_z
  _atom_site_occupancy
  _atom_site_charge
Ag  Ag1       1.0  0.59108  0.18834  0.80713  1.0000 0.3026634118
Ag  Ag2       1.0  0.40892  0.81166  0.19287  1.0000 0.3026634118
Ag  Ag3       1.0  0.04894  0.21801  0.29735  1.0000 0.290867593
Ag  Ag4       1.0  0.95106  0.78199  0.70265  1.0000 0.290867593
H   H1        1.0  0.58870  0.30360  0.91000  1.0000 0.1097158537
H   H2        1.0  0.59730  0.28580  0.04530  1.0000 0.1387668462
H   H3        1.0  0.61780  0.01790  0.13260  1.0000 0.1323022242
H   H4        1.0  0.61230  0.04380  0.99290  1.0000 0.1097158537
H   H5        1.0  0.67720  0.05740  0.33790  1.0000 0.1097158537
H   H6        1.0  0.55510  0.06450  0.36710  1.0000 0.1020404665
H   H7        1.0  0.64520  0.97130  0.89680  1.0000 0.1097158537
H   H8        1.0  0.67130  0.84700  0.87160  1.0000 0.1387668462
H   H9        1.0  0.60720  0.00970  0.63220  1.0000 0.1323022242
H   H10       1.0  0.58830  0.12960  0.66530  1.0000 0.1020404665
H   H11       1.0  0.69850  0.73800  0.64870  1.0000 0.1097158537
H   H12       1.0  0.57640  0.74400  0.68130  1.0000 0.1189868409
H   H13       1.0  0.49430  0.38300  0.71450  1.0000 0.1189868409
H   H14       1.0  0.52450  0.51940  0.59430  1.0000 0.1387668462
H   H15       1.0  0.75930  0.39390  0.47110  1.0000 0.1387668462
H   H16       1.0  0.73240  0.26300  0.60080  1.0000 0.1097158537
H   H17       1.0  0.71330  0.71500  0.34560  1.0000 0.1189868409
H   H18       1.0  0.59490  0.73860  0.34690  1.0000 0.1097158537
H   H19       1.0  0.64010  0.68950  0.54980  1.0000 0.1189868409
H   H20       1.0  0.61880  0.94840  0.50800  1.0000 0.1189868409
H   H21       1.0  0.62630  0.89440  0.30740  1.0000 0.1323022242
H   H22       1.0  0.41130  0.69640  0.09000  1.0000 0.1097158537
H   H23       1.0  0.40270  0.71420  0.95470  1.0000 0.1323022242
H   H24       1.0  0.38220  0.98210  0.86740  1.0000 0.1323022242
H   H25       1.0  0.38770  0.95620  0.00710  1.0000 0.1097158537
H   H26       1.0  0.32280  0.94260  0.66210  1.0000 0.1097158537
H   H27       1.0  0.44490  0.93550  0.63290  1.0000 0.1020404665
H   H28       1.0  0.35480  0.02870  0.10320  1.0000 0.1097158537
H   H29       1.0  0.32870  0.15300  0.12840  1.0000 0.1387668462
H   H30       1.0  0.39280  0.99030  0.36780  1.0000 0.1323022242
H   H31       1.0  0.41170  0.87040  0.33470  1.0000 0.1020404665
H   H32       1.0  0.30150  0.26200  0.35130  1.0000 0.1097158537
H   H33       1.0  0.42360  0.25600  0.31870  1.0000 0.1189868409
H   H34       1.0  0.50570  0.61700  0.28550  1.0000 0.1189868409
H   H35       1.0  0.47550  0.48060  0.40570  1.0000 0.1387668462
H   H36       1.0  0.24070  0.60610  0.52890  1.0000 0.1387668462
H   H37       1.0  0.26760  0.73700  0.39920  1.0000 0.1097158537
H   H38       1.0  0.28670  0.28500  0.65440  1.0000 0.1189868409
H   H39       1.0  0.40510  0.26140  0.65310  1.0000 0.1097158537
H   H40       1.0  0.35990  0.31050  0.45020  1.0000 0.1189868409
H   H41       1.0  0.38120  0.05160  0.49200  1.0000 0.1189868409
H   H42       1.0  0.37370  0.10560  0.69260  1.0000 0.1323022242
H   H43       1.0  0.04610  0.32570  0.40960  1.0000 0.1189868409
H   H44       1.0  0.06200  0.30530  0.53740  1.0000 0.1387668462
H   H45       1.0  0.14080  0.04060  0.60550  1.0000 0.1323022242
H   H46       1.0  0.12680  0.06560  0.47150  1.0000 0.1097158537
H   H47       1.0  0.19920  0.07710  0.80860  1.0000 0.1189868409
H   H48       1.0  0.07750  0.09070  0.84400  1.0000 0.1020404665
H   H49       1.0  0.07870  0.16710  0.13710  1.0000 0.1020404665
H   H50       1.0  0.11190  0.04450  0.10190  1.0000 0.1323022242
H   H51       1.0  0.13270  0.88570  0.35560  1.0000 0.1387668462
H   H52       1.0  0.09950  0.01090  0.38140  1.0000 0.1097158537
H   H53       1.0  0.19360  0.77120  0.13540  1.0000 0.1097158537
H   H54       1.0  0.07170  0.77260  0.16450  1.0000 0.1189868409
H   H55       1.0  0.19090  0.34910  0.13940  1.0000 0.1097158537
H   H56       1.0  0.19950  0.49540  0.02560  1.0000 0.1387668462
H   H57       1.0  0.89380  0.53950  0.11280  1.0000 0.1323022242
H   H58       1.0  0.89470  0.39520  0.23130  1.0000 0.1189868409
H   H59       1.0  0.22280  0.74020  0.82640  1.0000 0.1189868409
H   H60       1.0  0.10300  0.75610  0.83600  1.0000 0.1097158537
H   H61       1.0  0.14510  0.91130  0.78650  1.0000 0.1387668462
H   H62       1.0  0.12570  0.97600  0.98590  1.0000 0.1189868409
H   H63       1.0  0.14130  0.71690  0.03530  1.0000 0.1189868409
H   H64       1.0  0.95390  0.67430  0.59040  1.0000 0.1189868409
H   H65       1.0  0.93800  0.69470  0.46260  1.0000 0.1387668462
H   H66       1.0  0.85920  0.95940  0.39450  1.0000 0.1323022242
H   H67       1.0  0.87320  0.93440  0.52850  1.0000 0.1097158537
H   H68       1.0  0.80080  0.92290  0.19140  1.0000 0.1189868409
H   H69       1.0  0.92250  0.90930  0.15600  1.0000 0.1020404665
H   H70       1.0  0.92130  0.83290  0.86290  1.0000 0.1020404665
H   H71       1.0  0.88810  0.95550  0.89810  1.0000 0.1323022242
H   H72       1.0  0.86730  0.11430  0.64440  1.0000 0.1387668462
H   H73       1.0  0.90050  0.98910  0.61860  1.0000 0.1097158537
H   H74       1.0  0.80640  0.22880  0.86460  1.0000 0.1097158537
H   H75       1.0  0.92830  0.22740  0.83550  1.0000 0.1189868409
H   H76       1.0  0.80910  0.65090  0.86060  1.0000 0.1097158537
H   H77       1.0  0.80050  0.50460  0.97440  1.0000 0.1387668462
H   H78       1.0  0.10620  0.46050  0.88720  1.0000 0.1323022242
H   H79       1.0  0.10530  0.60480  0.76870  1.0000 0.1189868409
H   H80       1.0  0.77720  0.25980  0.17360  1.0000 0.1189868409
H   H81       1.0  0.89700  0.24390  0.16400  1.0000 0.1097158537
H   H82       1.0  0.85490  0.08870  0.21350  1.0000 0.1387668462
H   H83       1.0  0.87430  0.02400  0.01410  1.0000 0.1189868409
H   H84       1.0  0.85870  0.28310  0.96470  1.0000 0.1189868409
C   C1        1.0  0.59630  0.24440  0.95540  1.0000 0.0605243182
C   C2        1.0  0.59950  0.23450  0.03650  1.0000 -0.1487409541
C   C3        1.0  0.60580  0.14980  0.10490  1.0000 -0.0120866877
C   C4        1.0  0.61200  0.07760  0.08760  1.0000 -0.1418807769
C   C5        1.0  0.60940  0.09400  0.00370  1.0000 0.0705575346
C   C6        1.0  0.60620  0.13890  0.19350  1.0000 0.4973909618
C   C7        1.0  0.61740  0.03400  0.34080  1.0000 -0.0711941758
C   C8        1.0  0.63820  0.97870  0.84190  1.0000 0.0525497989
C   C9        1.0  0.65330  0.90460  0.82810  1.0000 -0.1487409541
C   C10       1.0  0.64160  0.91520  0.74720  1.0000 0.0072987238
C   C11       1.0  0.61640  0.99980  0.68730  1.0000 -0.1569442862
C   C12       1.0  0.60440  0.07090  0.70810  1.0000 0.0878264704
C   C13       1.0  0.65460  0.83200  0.73440  1.0000 0.4890553863
C   C14       1.0  0.63530  0.77850  0.63970  1.0000 -0.0711941758
C   C15       1.0  0.55130  0.38570  0.66520  1.0000 0.0878264704
C   C16       1.0  0.56790  0.46700  0.59390  1.0000 -0.1569442862
C   C17       1.0  0.64810  0.47200  0.52170  1.0000 0.0072987238
C   C18       1.0  0.70690  0.39340  0.52250  1.0000 -0.1487409541
C   C19       1.0  0.68820  0.31590  0.59820  1.0000 0.0525497989
C   C20       1.0  0.67790  0.55940  0.44110  1.0000 0.4973909618
C   C21       1.0  0.64330  0.71740  0.38430  1.0000 -0.0711941758
C   C22       1.0  0.63240  0.78170  0.42420  1.0000 0.1189868409
C   C23       1.0  0.63520  0.75200  0.51160  1.0000 -0.2215473989
C   C24       1.0  0.63070  0.81420  0.54370  1.0000 0.1097158537
C   C25       1.0  0.62300  0.90590  0.48630  1.0000 -0.2288068274
C   C26       1.0  0.62120  0.93620  0.39810  1.0000 0.1020404665
C   C27       1.0  0.62660  0.87430  0.36780  1.0000 -0.2088242278
C   C28       1.0  0.20900  0.23400  0.89700  1.0000 0.4796264655
C   C29       1.0  0.40370  0.75560  0.04460  1.0000 0.0605243182
C   C30       1.0  0.40050  0.76550  0.96350  1.0000 -0.1487409541
C   C31       1.0  0.39420  0.85020  0.89510  1.0000 -0.0120866877
C   C32       1.0  0.38800  0.92240  0.91240  1.0000 -0.1418807769
C   C33       1.0  0.39060  0.90600  0.99630  1.0000 0.0705575346
C   C34       1.0  0.39380  0.86110  0.80650  1.0000 0.4973909618
C   C35       1.0  0.38260  0.96600  0.65920  1.0000 -0.0711941758
C   C36       1.0  0.36180  0.02130  0.15810  1.0000 0.0525497989
C   C37       1.0  0.34670  0.09540  0.17190  1.0000 -0.1487409541
C   C38       1.0  0.35840  0.08480  0.25280  1.0000 0.0072987238
C   C39       1.0  0.38360  0.00020  0.31270  1.0000 -0.1569442862
C   C40       1.0  0.39560  0.92910  0.29190  1.0000 0.0878264704
C   C41       1.0  0.34540  0.16800  0.26560  1.0000 0.4890553863
C   C42       1.0  0.36470  0.22150  0.36030  1.0000 -0.0711941758
C   C43       1.0  0.44870  0.61430  0.33480  1.0000 0.0878264704
C   C44       1.0  0.43210  0.53300  0.40610  1.0000 -0.1569442862
C   C45       1.0  0.35190  0.52800  0.47830  1.0000 0.0072987238
C   C46       1.0  0.29310  0.60660  0.47750  1.0000 -0.1487409541
C   C47       1.0  0.31180  0.68410  0.40180  1.0000 0.0525497989
C   C48       1.0  0.32210  0.44060  0.55890  1.0000 0.4973909618
C   C49       1.0  0.35670  0.28260  0.61570  1.0000 -0.0711941758
C   C50       1.0  0.36760  0.21830  0.57580  1.0000 0.1189868409
C   C51       1.0  0.36480  0.24800  0.48840  1.0000 -0.2215473989
C   C52       1.0  0.36930  0.18580  0.45630  1.0000 0.1097158537
C   C53       1.0  0.37700  0.09410  0.51370  1.0000 -0.2288068274
C   C54       1.0  0.37880  0.06380  0.60190  1.0000 0.1020404665
C   C55       1.0  0.37340  0.12570  0.63220  1.0000 -0.2088242278
C   C56       1.0  0.79100  0.76600  0.10300  1.0000 0.4796264655
C   C57       1.0  0.06610  0.26680  0.44970  1.0000 0.0270097496
C   C58       1.0  0.07530  0.25470  0.52480  1.0000 -0.1314947644
C   C59       1.0  0.10310  0.17320  0.58740  1.0000 -0.0022587938
C   C60       1.0  0.12190  0.09960  0.56480  1.0000 -0.1487409541
C   C61       1.0  0.11260  0.11520  0.48570  1.0000 0.0605243182
C   C62       1.0  0.11040  0.16180  0.67520  1.0000 0.4890553863
C   C63       1.0  0.13450  0.05730  0.81600  1.0000 -0.0711941758
C   C64       1.0  0.09040  0.10850  0.18210  1.0000 0.0804897173
C   C65       1.0  0.10900  0.03580  0.16000  1.0000 -0.169020083
C   C66       1.0  0.12280  0.95170  0.22710  1.0000 0.0072987238
C   C67       1.0  0.12100  0.94330  0.30920  1.0000 -0.1418807769
C   C68       1.0  0.10240  0.01810  0.32370  1.0000 0.0705575346
C   C69       1.0  0.13970  0.86750  0.21450  1.0000 0.4890553863
C   C70       1.0  0.12940  0.80900  0.12370  1.0000 -0.0711941758
C   C71       1.0  0.13010  0.38880  0.13480  1.0000 0.0878264704
C   C72       1.0  0.13570  0.47600  0.06590  1.0000 -0.1487409541
C   C73       1.0  0.05000  0.53210  0.05740  1.0000 0.0002161014
C   C74       1.0  0.95580  0.50180  0.11870  1.0000 -0.169020083
C   C75       1.0  0.95660  0.41530  0.18770  1.0000 0.0804897173
C   C76       1.0  0.04860  0.62510  0.98150  1.0000 0.4973909618
C   C77       1.0  0.15500  0.73810  0.86930  1.0000 -0.0758617634
C   C78       1.0  0.14400  0.80500  0.90520  1.0000 0.1097158537
C   C79       1.0  0.14130  0.89360  0.84740  1.0000 -0.2026768541
C   C80       1.0  0.13320  0.95790  0.87550  1.0000 0.1097158537
C   C81       1.0  0.12910  0.93210  0.96630  1.0000 -0.2215473989
C   C82       1.0  0.13010  0.84140  0.02550  1.0000 0.1097158537
C   C83       1.0  0.13880  0.77890  0.99500  1.0000 -0.2215473989
C   C84       1.0  0.93390  0.73320  0.55030  1.0000 0.0270097496
C   C85       1.0  0.92470  0.74530  0.47520  1.0000 -0.1314947644
C   C86       1.0  0.89690  0.82680  0.41260  1.0000 -0.0022587938
C   C87       1.0  0.87810  0.90040  0.43520  1.0000 -0.1487409541
C   C88       1.0  0.88740  0.88480  0.51430  1.0000 0.0605243182
C   C89       1.0  0.88960  0.83820  0.32480  1.0000 0.4890553863
C   C90       1.0  0.86550  0.94270  0.18400  1.0000 -0.0711941758
C   C91       1.0  0.90960  0.89150  0.81790  1.0000 0.0804897173
C   C92       1.0  0.89100  0.96420  0.84000  1.0000 -0.169020083
C   C93       1.0  0.87720  0.04830  0.77290  1.0000 0.0072987238
C   C94       1.0  0.87900  0.05670  0.69080  1.0000 -0.1418807769
C   C95       1.0  0.89760  0.98190  0.67630  1.0000 0.0705575346
C   C96       1.0  0.86030  0.13250  0.78550  1.0000 0.4890553863
C   C97       1.0  0.87060  0.19100  0.87630  1.0000 -0.0711941758
C   C98       1.0  0.86990  0.61120  0.86520  1.0000 0.0878264704
C   C99       1.0  0.86430  0.52400  0.93410  1.0000 -0.1487409541
C   C100      1.0  0.95000  0.46790  0.94260  1.0000 -0.0022587938
C   C101      1.0  0.04420  0.49820  0.88130  1.0000 -0.169020083
C   C102      1.0  0.04340  0.58470  0.81230  1.0000 0.0804897173
C   C103      1.0  0.95140  0.37490  0.01850  1.0000 0.4973909618
C   C104      1.0  0.84500  0.26190  0.13070  1.0000 -0.0758617634
C   C105      1.0  0.85600  0.19500  0.09480  1.0000 0.1097158537
C   C106      1.0  0.85870  0.10640  0.15260  1.0000 -0.2026768541
C   C107      1.0  0.86680  0.04210  0.12450  1.0000 0.1097158537
C   C108      1.0  0.87090  0.06790  0.03370  1.0000 -0.2215473989
C   C109      1.0  0.86990  0.15860  0.97450  1.0000 0.1097158537
C   C110      1.0  0.86120  0.22110  0.00500  1.0000 -0.2215473989
C   C111      1.0  0.67770  0.19160  0.42950  1.0000 0.4796264655
C   C112      1.0  0.32230  0.80840  0.57050  1.0000 0.4796264655
S   S1        1.0  0.33790  0.17610  0.87690  1.0000 0.9665455481
S   S2        1.0  0.66210  0.82390  0.12310  1.0000 0.9665455481
S   S3        1.0  0.81270  0.16650  0.41480  1.0000 0.9665455481
S   S4        1.0  0.18730  0.83350  0.58520  1.0000 0.9665455481
N   N1        1.0  0.60320  0.17590  0.93640  1.0000 -0.1815006622
N   N2        1.0  0.61390  0.06220  0.78280  1.0000 -0.2026768541
N   N3        1.0  0.60860  0.31070  0.67070  1.0000 -0.1815006622
N   N4        1.0  0.39680  0.82410  0.06360  1.0000 -0.1815006622
N   N5        1.0  0.38610  0.93780  0.21720  1.0000 -0.2026768541
N   N6        1.0  0.39140  0.68930  0.32930  1.0000 -0.1815006622
N   N7        1.0  0.08440  0.19670  0.42420  1.0000 -0.2026768541
N   N8        1.0  0.08820  0.10100  0.26060  1.0000 -0.1897176692
N   N9        1.0  0.04300  0.35940  0.19420  1.0000 -0.169020083
N   N10       1.0  0.91560  0.80330  0.57580  1.0000 -0.2088242278
N   N11       1.0  0.91180  0.89900  0.73940  1.0000 -0.1897176692
N   N12       1.0  0.95700  0.64060  0.80580  1.0000 -0.169020083
O   O1        1.0  0.59760  0.20110  0.21260  1.0000 -0.4707473853
O   O2        1.0  0.61740  0.05310  0.25140  1.0000 -0.2088242278
O   O3        1.0  0.67840  0.75840  0.78350  1.0000 -0.4587453344
O   O4        1.0  0.63320  0.85190  0.65730  1.0000 -0.2088242278
O   O5        1.0  0.74250  0.56410  0.37510  1.0000 -0.4488135565
O   O6        1.0  0.62300  0.62990  0.45470  1.0000 -0.2288068274
O   O7        1.0  0.40040  0.24950  0.82890  1.0000 -0.5414200046
O   O8        1.0  0.35630  0.11330  0.96060  1.0000 -0.5414200046
O   O9        1.0  0.33650  0.13820  0.82080  1.0000 -0.5414200046
O   O10       1.0  0.40240  0.79890  0.78740  1.0000 -0.4707473853
O   O11       1.0  0.38260  0.94690  0.74860  1.0000 -0.2088242278
O   O12       1.0  0.32160  0.24160  0.21650  1.0000 -0.4587453344
O   O13       1.0  0.36680  0.14810  0.34270  1.0000 -0.2088242278
O   O14       1.0  0.25750  0.43590  0.62490  1.0000 -0.4488135565
O   O15       1.0  0.37700  0.37010  0.54530  1.0000 -0.2288068274
O   O16       1.0  0.59960  0.75050  0.17110  1.0000 -0.5414200046
O   O17       1.0  0.64370  0.88670  0.03940  1.0000 -0.5414200046
O   O18       1.0  0.66350  0.86180  0.17920  1.0000 -0.5414200046
O   O19       1.0  0.10370  0.22360  0.69190  1.0000 -0.440997962
O   O20       1.0  0.12470  0.07600  0.73080  1.0000 -0.2026768541
O   O21       1.0  0.16380  0.79530  0.26590  1.0000 -0.4488135565
O   O22       1.0  0.11950  0.88560  0.13860  1.0000 -0.2026768541
O   O23       1.0  0.97380  0.67470  0.96530  1.0000 -0.4488135565
O   O24       1.0  0.14440  0.64730  0.93720  1.0000 -0.2088242278
O   O25       1.0  0.89630  0.77640  0.30810  1.0000 -0.440997962
O   O26       1.0  0.87530  0.92400  0.26920  1.0000 -0.2026768541
O   O27       1.0  0.83620  0.20470  0.73410  1.0000 -0.4488135565
O   O28       1.0  0.88050  0.11440  0.86140  1.0000 -0.2026768541
O   O29       1.0  0.02620  0.32530  0.03470  1.0000 -0.4488135565
O   O30       1.0  0.85560  0.35270  0.06280  1.0000 -0.2088242278
O   O31       1.0  0.85090  0.25080  0.36550  1.0000 -0.5414200046
O   O32       1.0  0.82350  0.11900  0.50240  1.0000 -0.5414200046
O   O33       1.0  0.83700  0.11580  0.36030  1.0000 -0.5902228692
O   O34       1.0  0.14910  0.74920  0.63450  1.0000 -0.5414200046
O   O35       1.0  0.17650  0.88100  0.49760  1.0000 -0.5414200046
O   O36       1.0  0.16300  0.88420  0.63970  1.0000 -0.5902228692
F   F1        1.0  0.14490  0.17010  0.94500  1.0000 -0.1897176692
F   F2        1.0  0.18830  0.29300  0.83440  1.0000 -0.1314947644
F   F3        1.0  0.21320  0.25370  0.96600  1.0000 -0.2026768541
F   F4        1.0  0.85510  0.82990  0.05500  1.0000 -0.1897176692
F   F5        1.0  0.81170  0.70700  0.16560  1.0000 -0.1314947644
F   F6        1.0  0.78680  0.74630  0.03400  1.0000 -0.2026768541
F   F7        1.0  0.62980  0.11980  0.47620  1.0000 -0.169020083
F   F8        1.0  0.64030  0.23660  0.47690  1.0000 -0.169020083
F   F9        1.0  0.65340  0.23610  0.35360  1.0000 -0.169020083
F   F10       1.0  0.37020  0.88020  0.52380  1.0000 -0.169020083
F   F11       1.0  0.35970  0.76340  0.52310  1.0000 -0.169020083
F   F12       1.0  0.34660  0.76390  0.64640  1.0000 -0.169020083
