# DDEC6 charges by PACMAN v1.1 (https://github.com/mtap-research/PACMAN-charge/)
data_2017[Ag][fsc]2[ION]1
_chemical_formula_sum              "Ag8 H80 C88 S12 N16 O16"
_cell_length_a       9.3395
_cell_length_b       17.348
_cell_length_c       19.9539
_cell_angle_alpha    96.923
_cell_angle_beta     95.561
_cell_angle_gamma    98.648

_symmetry_space_group_name_H-M    "P 1"
_symmetry_Int_Tables_number       1

loop_
  _symmetry_equiv_pos_as_xyz
  'x, y, z'

loop_
  _atom_site_type_symbol
  _atom_site_label
  _atom_site_symmetry_multiplicity
  _atom_site_fract_x
  _atom_site_fract_y
  _atom_site_fract_z
  _atom_site_occupancy
  _atom_site_charge
Ag  Ag1       1.0  0.38659  0.29393  0.20237  1.0000 0.2671011081
Ag  Ag2       1.0  0.32736  0.19901  0.68682  1.0000 0.2671011081
Ag  Ag3       1.0  0.85587  0.78119  0.70542  1.0000 0.2950336029
Ag  Ag4       1.0  0.17604  0.26827  0.81421  1.0000 0.2671011081
Ag  Ag5       1.0  0.61341  0.70607  0.79763  1.0000 0.2671011081
Ag  Ag6       1.0  0.67264  0.80099  0.31318  1.0000 0.2671011081
Ag  Ag7       1.0  0.14413  0.21881  0.29458  1.0000 0.2950336029
Ag  Ag8       1.0  0.82396  0.73173  0.18579  1.0000 0.2671011081
H   H1        1.0  0.56920  0.15720  0.19340  1.0000 0.1115681104
H   H2        1.0  0.74140  0.10700  0.25750  1.0000 0.1403509232
H   H3        1.0  0.71410  0.27220  0.41230  1.0000 0.1309092035
H   H4        1.0  0.54180  0.31680  0.34560  1.0000 0.1195649552
H   H5        1.0  0.94510  0.24210  0.47870  1.0000 0.1468853047
H   H6        1.0  0.78940  0.19700  0.48550  1.0000 0.1309092035
H   H7        1.0  0.80230  0.04550  0.50780  1.0000 0.1195649552
H   H8        1.0  0.90490  0.98340  0.59240  1.0000 0.1195649552
H   H9        1.0  0.11230  0.04420  0.65830  1.0000 0.1115681104
H   H10       1.0  0.12570  0.22760  0.55940  1.0000 0.1115681104
H   H11       1.0  0.19870  0.42350  0.21400  1.0000 0.1195649552
H   H12       1.0  0.99640  0.44380  0.03320  1.0000 0.1195649552
H   H13       1.0  0.10670  0.34560  0.98540  1.0000 0.1195649552
H   H14       1.0  0.26140  0.28930  0.05230  1.0000 0.0993859336
H   H15       1.0  0.03230  0.51010  0.21290  1.0000 0.1468853047
H   H16       1.0  0.90310  0.48840  0.15420  1.0000 0.1309092035
H   H17       1.0  0.25280  0.56570  0.24800  1.0000 0.1403509232
H   H18       1.0  0.47290  0.63550  0.30280  1.0000 0.1115681104
H   H19       1.0  0.45210  0.80180  0.19250  1.0000 0.1115681104
H   H20       1.0  0.23590  0.73880  0.13330  1.0000 0.1309092035
H   H21       1.0  0.67030  0.91590  0.71400  1.0000 0.1195649552
H   H22       1.0  0.48380  0.93300  0.52930  1.0000 0.1195649552
H   H23       1.0  0.58990  0.83000  0.48640  1.0000 0.1195649552
H   H24       1.0  0.73070  0.77080  0.55690  1.0000 0.1195649552
H   H25       1.0  0.38830  0.98660  0.64630  1.0000 0.1403509232
H   H26       1.0  0.51280  0.00740  0.70720  1.0000 0.1468853047
H   H27       1.0  0.74010  0.05430  0.74130  1.0000 0.1309092035
H   H28       1.0  0.95930  0.11580  0.79700  1.0000 0.1195649552
H   H29       1.0  0.96030  0.28780  0.69040  1.0000 0.0993859336
H   H30       1.0  0.74420  0.22990  0.62920  1.0000 0.1309092035
H   H31       1.0  0.04980  0.65710  0.70250  1.0000 0.1195649552
H   H32       1.0  0.23050  0.61340  0.76710  1.0000 0.1403509232
H   H33       1.0  0.18430  0.77160  0.92290  1.0000 0.1309092035
H   H34       1.0  0.01310  0.81520  0.85310  1.0000 0.1115681104
H   H35       1.0  0.25740  0.68680  0.99700  1.0000 0.1403509232
H   H36       1.0  0.39860  0.74560  0.98950  1.0000 0.1403509232
H   H37       1.0  0.31330  0.54450  0.01740  1.0000 0.1195649552
H   H38       1.0  0.44600  0.48840  0.09800  1.0000 0.1195649552
H   H39       1.0  0.64670  0.56190  0.16050  1.0000 0.0993859336
H   H40       1.0  0.60150  0.74230  0.06530  1.0000 0.1195649552
H   H41       1.0  0.43080  0.84280  0.80660  1.0000 0.1115681104
H   H42       1.0  0.25860  0.89300  0.74250  1.0000 0.1403509232
H   H43       1.0  0.28590  0.72780  0.58770  1.0000 0.1309092035
H   H44       1.0  0.45820  0.68320  0.65440  1.0000 0.1195649552
H   H45       1.0  0.05490  0.75790  0.52130  1.0000 0.1468853047
H   H46       1.0  0.21060  0.80300  0.51450  1.0000 0.1309092035
H   H47       1.0  0.19770  0.95450  0.49220  1.0000 0.1195649552
H   H48       1.0  0.09510  0.01660  0.40760  1.0000 0.1195649552
H   H49       1.0  0.88770  0.95580  0.34170  1.0000 0.1115681104
H   H50       1.0  0.87430  0.77240  0.44060  1.0000 0.1115681104
H   H51       1.0  0.80130  0.57650  0.78600  1.0000 0.1195649552
H   H52       1.0  0.00360  0.55620  0.96680  1.0000 0.1195649552
H   H53       1.0  0.89330  0.65440  0.01460  1.0000 0.1195649552
H   H54       1.0  0.73860  0.71070  0.94770  1.0000 0.0993859336
H   H55       1.0  0.96770  0.48990  0.78710  1.0000 0.1468853047
H   H56       1.0  0.09690  0.51160  0.84580  1.0000 0.1309092035
H   H57       1.0  0.74720  0.43430  0.75200  1.0000 0.1403509232
H   H58       1.0  0.52710  0.36450  0.69720  1.0000 0.1115681104
H   H59       1.0  0.54790  0.19820  0.80750  1.0000 0.1115681104
H   H60       1.0  0.76410  0.26120  0.86670  1.0000 0.1309092035
H   H61       1.0  0.32970  0.08410  0.28600  1.0000 0.1195649552
H   H62       1.0  0.51620  0.06700  0.47070  1.0000 0.1195649552
H   H63       1.0  0.41010  0.17000  0.51360  1.0000 0.1195649552
H   H64       1.0  0.26930  0.22920  0.44310  1.0000 0.1195649552
H   H65       1.0  0.61170  0.01340  0.35370  1.0000 0.1403509232
H   H66       1.0  0.48720  0.99260  0.29280  1.0000 0.1468853047
H   H67       1.0  0.25990  0.94570  0.25870  1.0000 0.1309092035
H   H68       1.0  0.04070  0.88420  0.20300  1.0000 0.1195649552
H   H69       1.0  0.03970  0.71220  0.30960  1.0000 0.0993859336
H   H70       1.0  0.25580  0.77010  0.37080  1.0000 0.1309092035
H   H71       1.0  0.95020  0.34290  0.29750  1.0000 0.1195649552
H   H72       1.0  0.76950  0.38660  0.23290  1.0000 0.1403509232
H   H73       1.0  0.81570  0.22840  0.07710  1.0000 0.1309092035
H   H74       1.0  0.98690  0.18480  0.14690  1.0000 0.1115681104
H   H75       1.0  0.74260  0.31320  0.00300  1.0000 0.1403509232
H   H76       1.0  0.60140  0.25440  0.01050  1.0000 0.1403509232
H   H77       1.0  0.68670  0.45550  0.98260  1.0000 0.1195649552
H   H78       1.0  0.55400  0.51160  0.90200  1.0000 0.1195649552
H   H79       1.0  0.35330  0.43810  0.83950  1.0000 0.0993859336
H   H80       1.0  0.39850  0.25770  0.93470  1.0000 0.1195649552
C   C1        1.0  0.59820  0.18000  0.23820  1.0000 0.0567162027
C   C2        1.0  0.70200  0.14960  0.27630  1.0000 -0.1992018318
C   C3        1.0  0.74590  0.18290  0.34220  1.0000 0.0993859336
C   C4        1.0  0.68480  0.24760  0.36800  1.0000 -0.1992018318
C   C5        1.0  0.58230  0.27420  0.32770  1.0000 0.0800780601
C   C6        1.0  0.88640  0.19030  0.47490  1.0000 -0.2991996417
C   C7        1.0  0.95230  0.14370  0.52380  1.0000 0.0800780601
C   C8        1.0  0.88760  0.07030  0.53460  1.0000 -0.1235126825
C   C9        1.0  0.94880  0.03310  0.58520  1.0000 -0.1359667192
C   C10       1.0  0.07260  0.06930  0.62400  1.0000 0.0524794276
C   C11       1.0  0.08010  0.17790  0.56540  1.0000 -0.0254404201
C   C12       1.0  0.17930  0.40770  0.16730  1.0000 0.0099134839
C   C13       1.0  0.08430  0.44470  0.12990  1.0000 0.0887994769
C   C14       1.0  0.05880  0.42010  0.06030  1.0000 -0.1295071952
C   C15       1.0  0.12410  0.36240  0.03190  1.0000 -0.1295071952
C   C16       1.0  0.21630  0.32890  0.07240  1.0000 0.0210121376
C   C17       1.0  0.00750  0.50590  0.16410  1.0000 -0.2906109998
C   C18       1.0  0.21970  0.64460  0.18510  1.0000 0.0993859336
C   C19       1.0  0.29100  0.61390  0.23560  1.0000 -0.1911073225
C   C20       1.0  0.42390  0.65690  0.26860  1.0000 0.0653245141
C   C21       1.0  0.41160  0.75360  0.20420  1.0000 0.0800780601
C   C22       1.0  0.28110  0.71650  0.16800  1.0000 -0.2093956033
C   C23       1.0  0.65360  0.89910  0.66750  1.0000 -0.0216343869
C   C24       1.0  0.56710  0.93670  0.62750  1.0000 0.0993859336
C   C25       1.0  0.54270  0.90940  0.55810  1.0000 -0.1295071952
C   C26       1.0  0.60510  0.84800  0.53270  1.0000 -0.1359667192
C   C27       1.0  0.68970  0.81320  0.57490  1.0000 0.0524794276
C   C28       1.0  0.49280  0.00180  0.65810  1.0000 -0.2808252582
C   C29       1.0  0.71750  0.13540  0.67810  1.0000 0.1115681104
C   C30       1.0  0.78380  0.10190  0.72970  1.0000 -0.1992018318
C   C31       1.0  0.91470  0.13980  0.76330  1.0000 0.0800780601
C   C32       1.0  0.91550  0.23980  0.70080  1.0000 0.0524794276
C   C33       1.0  0.78530  0.20560  0.66360  1.0000 -0.1992018318
C   C34       1.0  0.07800  0.68080  0.74710  1.0000 0.0887994769
C   C35       1.0  0.18500  0.65340  0.78610  1.0000 -0.1992018318
C   C36       1.0  0.22420  0.68540  0.85290  1.0000 0.0887994769
C   C37       1.0  0.15900  0.74750  0.87820  1.0000 -0.2093956033
C   C38       1.0  0.05560  0.77300  0.83580  1.0000 0.0800780601
C   C39       1.0  0.35650  0.69030  0.98550  1.0000 -0.2991996417
C   C40       1.0  0.44410  0.65020  0.03310  1.0000 0.0800780601
C   C41       1.0  0.39700  0.57350  0.04290  1.0000 -0.1235126825
C   C42       1.0  0.47560  0.54020  0.09100  1.0000 -0.1295071952
C   C43       1.0  0.59560  0.58400  0.12750  1.0000 0.0099134839
C   C44       1.0  0.56910  0.69070  0.07180  1.0000 0.0099134839
C   C45       1.0  0.40180  0.82000  0.76180  1.0000 0.0567162027
C   C46       1.0  0.29800  0.85040  0.72370  1.0000 -0.1992018318
C   C47       1.0  0.25410  0.81710  0.65780  1.0000 0.0993859336
C   C48       1.0  0.31520  0.75240  0.63200  1.0000 -0.1992018318
C   C49       1.0  0.41770  0.72580  0.67230  1.0000 0.0800780601
C   C50       1.0  0.11360  0.80970  0.52510  1.0000 -0.2991996417
C   C51       1.0  0.04770  0.85630  0.47620  1.0000 0.0800780601
C   C52       1.0  0.11240  0.92970  0.46540  1.0000 -0.1235126825
C   C53       1.0  0.05120  0.96690  0.41480  1.0000 -0.1359667192
C   C54       1.0  0.92740  0.93070  0.37600  1.0000 0.0524794276
C   C55       1.0  0.91990  0.82210  0.43460  1.0000 -0.0254404201
C   C56       1.0  0.82070  0.59230  0.83270  1.0000 0.0099134839
C   C57       1.0  0.91570  0.55530  0.87010  1.0000 0.0887994769
C   C58       1.0  0.94120  0.57990  0.93970  1.0000 -0.1295071952
C   C59       1.0  0.87590  0.63760  0.96810  1.0000 -0.1295071952
C   C60       1.0  0.78370  0.67110  0.92760  1.0000 0.0210121376
C   C61       1.0  0.99250  0.49410  0.83590  1.0000 -0.2906109998
C   C62       1.0  0.78030  0.35540  0.81490  1.0000 0.0993859336
C   C63       1.0  0.70900  0.38610  0.76440  1.0000 -0.1911073225
C   C64       1.0  0.57610  0.34310  0.73140  1.0000 0.0653245141
C   C65       1.0  0.58840  0.24640  0.79580  1.0000 0.0800780601
C   C66       1.0  0.71890  0.28350  0.83200  1.0000 -0.2093956033
C   C67       1.0  0.34640  0.10090  0.33250  1.0000 -0.0216343869
C   C68       1.0  0.43290  0.06330  0.37250  1.0000 0.0993859336
C   C69       1.0  0.45730  0.09060  0.44190  1.0000 -0.1295071952
C   C70       1.0  0.39490  0.15200  0.46730  1.0000 -0.1359667192
C   C71       1.0  0.31030  0.18680  0.42510  1.0000 0.0524794276
C   C72       1.0  0.50720  0.99820  0.34190  1.0000 -0.2808252582
C   C73       1.0  0.28250  0.86460  0.32190  1.0000 0.1115681104
C   C74       1.0  0.21620  0.89810  0.27030  1.0000 -0.1992018318
C   C75       1.0  0.08530  0.86020  0.23670  1.0000 0.0800780601
C   C76       1.0  0.08450  0.76020  0.29920  1.0000 0.0524794276
C   C77       1.0  0.21470  0.79440  0.33640  1.0000 -0.1992018318
C   C78       1.0  0.92200  0.31920  0.25290  1.0000 0.0887994769
C   C79       1.0  0.81500  0.34660  0.21390  1.0000 -0.1992018318
C   C80       1.0  0.77580  0.31460  0.14710  1.0000 0.0887994769
C   C81       1.0  0.84100  0.25250  0.12180  1.0000 -0.2093956033
C   C82       1.0  0.94440  0.22700  0.16420  1.0000 0.0800780601
C   C83       1.0  0.64350  0.30970  0.01450  1.0000 -0.2991996417
C   C84       1.0  0.55590  0.34980  0.96690  1.0000 0.0800780601
C   C85       1.0  0.60300  0.42650  0.95710  1.0000 -0.1235126825
C   C86       1.0  0.52440  0.45980  0.90900  1.0000 -0.1295071952
C   C87       1.0  0.40440  0.41600  0.87250  1.0000 0.0099134839
C   C88       1.0  0.43090  0.30930  0.92820  1.0000 0.0099134839
S   S1        1.0  0.87550  0.14076  0.38875  1.0000 0.0210121376
S   S2        1.0  0.05150  0.60260  0.13851  1.0000 -0.0216343869
S   S3        1.0  0.28820  0.06889  0.82612  1.0000 1.3176008751
S   S4        1.0  0.54900  0.09606  0.63045  1.0000 -0.0087701781
S   S5        1.0  0.35530  0.64410  0.89933  1.0000 0.0041177738
S   S6        1.0  0.12450  0.85924  0.61125  1.0000 0.0210121376
S   S7        1.0  0.94850  0.39740  0.86149  1.0000 -0.0216343869
S   S8        1.0  0.71180  0.93111  0.17388  1.0000 1.3176008751
S   S9        1.0  0.45100  0.90394  0.36955  1.0000 -0.0087701781
S   S10       1.0  0.64470  0.35590  0.10067  1.0000 0.0099134839
S   S11       1.0  0.73270  0.58200  0.63074  1.0000 1.338239639
S   S12       1.0  0.26730  0.41800  0.36926  1.0000 1.338239639
N   N1        1.0  0.53710  0.24160  0.26320  1.0000 -0.1992018318
N   N2        1.0  0.14000  0.14060  0.61460  1.0000 -0.1792913126
N   N3        1.0  0.24470  0.35010  0.13920  1.0000 -0.1792913126
N   N4        1.0  0.48380  0.72650  0.25390  1.0000 -0.2093956033
N   N5        1.0  0.71590  0.83760  0.64130  1.0000 -0.171022025
N   N6        1.0  0.98210  0.20880  0.75070  1.0000 -0.1992018318
N   N7        1.0  0.01350  0.74100  0.77210  1.0000 -0.1911073225
N   N8        1.0  0.64510  0.65930  0.11800  1.0000 -0.171022025
N   N9        1.0  0.46290  0.75840  0.73680  1.0000 -0.1992018318
N   N10       1.0  0.86000  0.85940  0.38540  1.0000 -0.1792913126
N   N11       1.0  0.75530  0.64990  0.86080  1.0000 -0.1792913126
N   N12       1.0  0.51620  0.27350  0.74610  1.0000 -0.2093956033
N   N13       1.0  0.28410  0.16240  0.35870  1.0000 -0.171022025
N   N14       1.0  0.01790  0.79120  0.24930  1.0000 -0.1992018318
N   N15       1.0  0.98650  0.25900  0.22790  1.0000 -0.1911073225
N   N16       1.0  0.35490  0.34070  0.88200  1.0000 -0.171022025
O   O1        1.0  0.28170  0.08830  0.76320  1.0000 -0.5724415788
O   O2        1.0  0.19800  0.00520  0.83770  1.0000 -0.5562709282
O   O3        1.0  0.25050  0.13310  0.86500  1.0000 -0.5724415788
O   O4        1.0  0.43700  0.06260  0.84650  1.0000 -0.5816056738
O   O5        1.0  0.71830  0.91170  0.23680  1.0000 -0.5724415788
O   O6        1.0  0.80200  0.99480  0.16230  1.0000 -0.5562709282
O   O7        1.0  0.74950  0.86690  0.13500  1.0000 -0.5724415788
O   O8        1.0  0.56300  0.93740  0.15350  1.0000 -0.5816056738
O   O9        1.0  0.67750  0.62300  0.68410  1.0000 -0.6697153161
O   O10       1.0  0.82540  0.52740  0.66000  1.0000 -0.6697153161
O   O11       1.0  0.83820  0.64730  0.60710  1.0000 -0.6563381264
O   O12       1.0  0.64800  0.54670  0.57590  1.0000 -0.5562709282
O   O13       1.0  0.32250  0.37700  0.31590  1.0000 -0.6697153161
O   O14       1.0  0.17460  0.47260  0.34000  1.0000 -0.675021858
O   O15       1.0  0.16180  0.35270  0.39290  1.0000 -0.6563381264
O   O16       1.0  0.35200  0.45330  0.42410  1.0000 -0.5562709282
