# DDEC6 charges by PACMAN v1.1 (https://github.com/mtap-research/PACMAN-charge/)
data_2017[Ag][srs]3[ION]17
_chemical_formula_sum              "Ag6 H108 C144 Br12 N40 Cl6 O24"
_cell_length_a       18.4351
_cell_length_b       18.4351
_cell_length_c       18.4351
_cell_angle_alpha    109.471
_cell_angle_beta     109.471
_cell_angle_gamma    109.471

_symmetry_space_group_name_H-M    "P 1"
_symmetry_Int_Tables_number       1

loop_
  _symmetry_equiv_pos_as_xyz
  'x, y, z'

loop_
  _atom_site_type_symbol
  _atom_site_label
  _atom_site_symmetry_multiplicity
  _atom_site_fract_x
  _atom_site_fract_y
  _atom_site_fract_z
  _atom_site_occupancy
  _atom_site_charge
Ag  Ag1       1.0  0.20832  0.75000  0.95832  1.0000 0.3018759691
Ag  Ag2       1.0  0.29168  0.25000  0.54168  1.0000 0.3018759691
Ag  Ag3       1.0  0.75000  0.95832  0.20832  1.0000 0.3018759691
Ag  Ag4       1.0  0.25000  0.54168  0.29168  1.0000 0.3018759691
Ag  Ag5       1.0  0.54168  0.29168  0.25000  1.0000 0.3018759691
Ag  Ag6       1.0  0.95832  0.20832  0.75000  1.0000 0.3018759691
H   H1        1.0  0.94780  0.90660  0.80280  1.0000 0.1284661345
H   H2        1.0  0.03430  0.86390  0.75360  1.0000 0.1358345302
H   H3        1.0  0.17470  0.89250  0.99220  1.0000 0.113660298
H   H4        1.0  0.09180  0.94370  0.04270  1.0000 0.1358345302
H   H5        1.0  0.16380  0.84820  0.78220  1.0000 0.1173502122
H   H6        1.0  0.37990  0.78720  0.79270  1.0000 0.1615697645
H   H7        1.0  0.45770  0.71220  0.83270  1.0000 0.113660298
H   H8        1.0  0.43270  0.65240  0.91390  1.0000 0.1358345302
H   H9        1.0  0.26260  0.81080  0.78740  1.0000 0.2899028264
H   H10       1.0  0.60380  0.14500  0.69720  1.0000 0.1284661345
H   H11       1.0  0.61030  0.28070  0.74640  1.0000 0.1358345302
H   H12       1.0  0.40030  0.18250  0.50780  1.0000 0.113660298
H   H13       1.0  0.40100  0.04910  0.45730  1.0000 0.1358345302
H   H14       1.0  0.56600  0.38160  0.71780  1.0000 0.1173502122
H   H15       1.0  0.49450  0.58720  0.70730  1.0000 0.1615697645
H   H16       1.0  0.37950  0.62500  0.66730  1.0000 0.113660298
H   H17       1.0  0.23850  0.51880  0.58610  1.0000 0.1358345302
H   H18       1.0  0.52340  0.47520  0.71260  1.0000 0.2899028264
H   H19       1.0  0.55220  0.35500  0.95880  1.0000 0.1284661345
H   H20       1.0  0.46570  0.21930  0.82960  1.0000 0.1358345302
H   H21       1.0  0.32530  0.31750  0.71780  1.0000 0.113660298
H   H22       1.0  0.40820  0.45090  0.85190  1.0000 0.1358345302
H   H23       1.0  0.33620  0.11840  0.68440  1.0000 0.1173502122
H   H24       1.0  0.12010  0.91280  0.40730  1.0000 0.1615697645
H   H25       1.0  0.04230  0.87500  0.25450  1.0000 0.113660298
H   H26       1.0  0.06730  0.98120  0.21970  1.0000 0.1358345302
H   H27       1.0  0.23740  0.02480  0.54820  1.0000 0.2899028264
H   H28       1.0  0.89620  0.59340  0.54120  1.0000 0.1284661345
H   H29       1.0  0.88970  0.63610  0.67040  1.0000 0.1358345302
H   H30       1.0  0.09970  0.60750  0.78220  1.0000 0.113660298
H   H31       1.0  0.09900  0.55630  0.64810  1.0000 0.1358345302
H   H32       1.0  0.93400  0.65180  0.81560  1.0000 0.1173502122
H   H33       1.0  0.00550  0.71280  0.09270  1.0000 0.1615697645
H   H34       1.0  0.12050  0.78780  0.24550  1.0000 0.113660298
H   H35       1.0  0.26150  0.84760  0.28030  1.0000 0.1358345302
H   H36       1.0  0.97660  0.68920  0.95180  1.0000 0.2899028264
H   H37       1.0  0.59340  0.54120  0.89620  1.0000 0.1284661345
H   H38       1.0  0.63610  0.67040  0.88970  1.0000 0.1358345302
H   H39       1.0  0.60750  0.78220  0.09970  1.0000 0.113660298
H   H40       1.0  0.55630  0.64810  0.09900  1.0000 0.1358345302
H   H41       1.0  0.65180  0.81560  0.93400  1.0000 0.1173502122
H   H42       1.0  0.71280  0.09270  0.00550  1.0000 0.1615697645
H   H43       1.0  0.78780  0.24550  0.12050  1.0000 0.113660298
H   H44       1.0  0.84760  0.28030  0.26150  1.0000 0.1358345302
H   H45       1.0  0.68920  0.95180  0.97660  1.0000 0.2899028264
H   H46       1.0  0.35500  0.95880  0.55220  1.0000 0.1284661345
H   H47       1.0  0.21930  0.82960  0.46570  1.0000 0.1358345302
H   H48       1.0  0.31750  0.71780  0.32530  1.0000 0.113660298
H   H49       1.0  0.45090  0.85190  0.40820  1.0000 0.1358345302
H   H50       1.0  0.11840  0.68440  0.33620  1.0000 0.1173502122
H   H51       1.0  0.91280  0.40730  0.12010  1.0000 0.1615697645
H   H52       1.0  0.87500  0.25450  0.04230  1.0000 0.113660298
H   H53       1.0  0.98120  0.21970  0.06730  1.0000 0.1358345302
H   H54       1.0  0.02480  0.54820  0.23740  1.0000 0.2899028264
H   H55       1.0  0.14500  0.69720  0.60380  1.0000 0.1284661345
H   H56       1.0  0.28070  0.74640  0.61030  1.0000 0.1358345302
H   H57       1.0  0.18250  0.50780  0.40030  1.0000 0.113660298
H   H58       1.0  0.04910  0.45730  0.40100  1.0000 0.1358345302
H   H59       1.0  0.38160  0.71780  0.56600  1.0000 0.1173502122
H   H60       1.0  0.58720  0.70730  0.49450  1.0000 0.1615697645
H   H61       1.0  0.62500  0.66730  0.37950  1.0000 0.113660298
H   H62       1.0  0.51880  0.58610  0.23850  1.0000 0.1358345302
H   H63       1.0  0.47520  0.71260  0.52340  1.0000 0.2899028264
H   H64       1.0  0.90660  0.80280  0.94780  1.0000 0.1284661345
H   H65       1.0  0.86390  0.75360  0.03430  1.0000 0.1358345302
H   H66       1.0  0.89250  0.99220  0.17470  1.0000 0.113660298
H   H67       1.0  0.94370  0.04270  0.09180  1.0000 0.1358345302
H   H68       1.0  0.84820  0.78220  0.16380  1.0000 0.1173502122
H   H69       1.0  0.78720  0.79270  0.37990  1.0000 0.1615697645
H   H70       1.0  0.71220  0.83270  0.45770  1.0000 0.113660298
H   H71       1.0  0.65240  0.91390  0.43270  1.0000 0.1358345302
H   H72       1.0  0.81080  0.78740  0.26260  1.0000 0.2899028264
H   H73       1.0  0.95880  0.55220  0.35500  1.0000 0.1284661345
H   H74       1.0  0.82960  0.46570  0.21930  1.0000 0.1358345302
H   H75       1.0  0.71780  0.32530  0.31750  1.0000 0.113660298
H   H76       1.0  0.85190  0.40820  0.45090  1.0000 0.1358345302
H   H77       1.0  0.68440  0.33620  0.11840  1.0000 0.1173502122
H   H78       1.0  0.40730  0.12010  0.91280  1.0000 0.1615697645
H   H79       1.0  0.25450  0.04230  0.87500  1.0000 0.113660298
H   H80       1.0  0.21970  0.06730  0.98120  1.0000 0.1358345302
H   H81       1.0  0.54820  0.23740  0.02480  1.0000 0.2899028264
H   H82       1.0  0.54120  0.89620  0.59340  1.0000 0.1284661345
H   H83       1.0  0.67040  0.88970  0.63610  1.0000 0.1358345302
H   H84       1.0  0.78220  0.09970  0.60750  1.0000 0.113660298
H   H85       1.0  0.64810  0.09900  0.55630  1.0000 0.1358345302
H   H86       1.0  0.81560  0.93400  0.65180  1.0000 0.1173502122
H   H87       1.0  0.09270  0.00550  0.71280  1.0000 0.1615697645
H   H88       1.0  0.24550  0.12050  0.78780  1.0000 0.113660298
H   H89       1.0  0.28030  0.26150  0.84760  1.0000 0.1358345302
H   H90       1.0  0.95180  0.97660  0.68920  1.0000 0.2899028264
H   H91       1.0  0.80280  0.94780  0.90660  1.0000 0.1284661345
H   H92       1.0  0.75360  0.03430  0.86390  1.0000 0.1358345302
H   H93       1.0  0.99220  0.17470  0.89250  1.0000 0.113660298
H   H94       1.0  0.04270  0.09180  0.94370  1.0000 0.1358345302
H   H95       1.0  0.78220  0.16380  0.84820  1.0000 0.1173502122
H   H96       1.0  0.79270  0.37990  0.78720  1.0000 0.1615697645
H   H97       1.0  0.83270  0.45770  0.71220  1.0000 0.113660298
H   H98       1.0  0.91390  0.43270  0.65240  1.0000 0.1358345302
H   H99       1.0  0.78740  0.26260  0.81080  1.0000 0.2899028264
H   H100      1.0  0.69720  0.60380  0.14500  1.0000 0.1284661345
H   H101      1.0  0.74640  0.61030  0.28070  1.0000 0.1358345302
H   H102      1.0  0.50780  0.40030  0.18250  1.0000 0.113660298
H   H103      1.0  0.45730  0.40100  0.04910  1.0000 0.1358345302
H   H104      1.0  0.71780  0.56600  0.38160  1.0000 0.1173502122
H   H105      1.0  0.70730  0.49450  0.58720  1.0000 0.1615697645
H   H106      1.0  0.66730  0.37950  0.62500  1.0000 0.113660298
H   H107      1.0  0.58610  0.23850  0.51880  1.0000 0.1358345302
H   H108      1.0  0.71260  0.52340  0.47520  1.0000 0.2899028264
C   C1        1.0  0.00960  0.92940  0.92820  1.0000 0.1801422937
C   C2        1.0  0.99460  0.90490  0.84190  1.0000 -0.1900487027
C   C3        1.0  0.04540  0.87840  0.81160  1.0000 -0.1110590099
C   C4        1.0  0.11120  0.87340  0.86620  1.0000 0.0542768739
C   C5        1.0  0.12930  0.89670  0.95440  1.0000 -0.1321400326
C   C6        1.0  0.07880  0.92590  0.98370  1.0000 -0.1900487027
C   C7        1.0  0.16560  0.84590  0.83290  1.0000 0.0130579021
C   C8        1.0  0.30940  0.76000  0.85320  1.0000 0.3443578956
C   C9        1.0  0.36940  0.75980  0.82580  1.0000 -0.2537145016
C   C10       1.0  0.41590  0.71510  0.85020  1.0000 7.028e-05
C   C11       1.0  0.39950  0.67880  0.89670  1.0000 -0.1900487027
C   C12       1.0  0.33870  0.67640  0.92190  1.0000 0.2035562299
C   C13       1.0  0.50120  0.08140  0.57180  1.0000 0.1801422937
C   C14       1.0  0.56300  0.15270  0.65810  1.0000 -0.1900487027
C   C15       1.0  0.56680  0.23380  0.68840  1.0000 -0.1110590099
C   C16       1.0  0.50720  0.24500  0.63380  1.0000 0.0542768739
C   C17       1.0  0.44230  0.17490  0.54560  1.0000 -0.1321400326
C   C18       1.0  0.44220  0.09510  0.51630  1.0000 -0.1900487027
C   C19       1.0  0.51300  0.33270  0.66710  1.0000 0.0130579021
C   C20       1.0  0.40680  0.45620  0.64680  1.0000 0.3443578956
C   C21       1.0  0.43400  0.54360  0.67420  1.0000 -0.2537145016
C   C22       1.0  0.36490  0.56570  0.64980  1.0000 7.028e-05
C   C23       1.0  0.28210  0.50280  0.60330  1.0000 -0.1900487027
C   C24       1.0  0.25450  0.41680  0.57810  1.0000 0.2035562299
C   C25       1.0  0.49040  0.41860  0.91980  1.0000 0.1801422937
C   C26       1.0  0.50540  0.34730  0.91030  1.0000 -0.1900487027
C   C27       1.0  0.45460  0.26620  0.83300  1.0000 -0.1110590099
C   C28       1.0  0.38880  0.25500  0.76220  1.0000 0.0542768739
C   C29       1.0  0.37070  0.32510  0.76740  1.0000 -0.1321400326
C   C30       1.0  0.42120  0.40490  0.84710  1.0000 -0.1900487027
C   C31       1.0  0.33440  0.16730  0.68030  1.0000 0.0130579021
C   C32       1.0  0.19060  0.04380  0.45060  1.0000 0.3443578956
C   C33       1.0  0.13060  0.95640  0.39040  1.0000 -0.2537145016
C   C34       1.0  0.08410  0.93430  0.29920  1.0000 7.028e-05
C   C35       1.0  0.10050  0.99720  0.27930  1.0000 -0.1900487027
C   C36       1.0  0.16130  0.08320  0.33770  1.0000 0.2035562299
C   C37       1.0  0.99880  0.57060  0.58020  1.0000 0.1801422937
C   C38       1.0  0.93700  0.59510  0.58970  1.0000 -0.1900487027
C   C39       1.0  0.93320  0.62160  0.66700  1.0000 -0.1110590099
C   C40       1.0  0.99280  0.62660  0.73780  1.0000 0.0542768739
C   C41       1.0  0.05770  0.60330  0.73260  1.0000 -0.1321400326
C   C42       1.0  0.05780  0.57410  0.65290  1.0000 -0.1900487027
C   C43       1.0  0.98700  0.65410  0.81970  1.0000 0.0130579021
C   C44       1.0  0.09320  0.74000  0.04940  1.0000 0.3443578956
C   C45       1.0  0.06600  0.74020  0.10960  1.0000 -0.2537145016
C   C46       1.0  0.13510  0.78490  0.20080  1.0000 7.028e-05
C   C47       1.0  0.21790  0.82120  0.22070  1.0000 -0.1900487027
C   C48       1.0  0.24550  0.82360  0.16230  1.0000 0.2035562299
C   C49       1.0  0.57060  0.58020  0.99880  1.0000 0.1801422937
C   C50       1.0  0.59510  0.58970  0.93700  1.0000 -0.1900487027
C   C51       1.0  0.62160  0.66700  0.93320  1.0000 -0.1110590099
C   C52       1.0  0.62660  0.73780  0.99280  1.0000 0.0542768739
C   C53       1.0  0.60330  0.73260  0.05770  1.0000 -0.1321400326
C   C54       1.0  0.57410  0.65290  0.05780  1.0000 -0.1900487027
C   C55       1.0  0.65410  0.81970  0.98700  1.0000 0.0130579021
C   C56       1.0  0.74000  0.04940  0.09320  1.0000 0.3443578956
C   C57       1.0  0.74020  0.10960  0.06600  1.0000 -0.2537145016
C   C58       1.0  0.78490  0.20080  0.13510  1.0000 7.028e-05
C   C59       1.0  0.82120  0.22070  0.21790  1.0000 -0.1900487027
C   C60       1.0  0.82360  0.16230  0.24550  1.0000 0.2035562299
C   C61       1.0  0.41860  0.91980  0.49040  1.0000 0.1801422937
C   C62       1.0  0.34730  0.91030  0.50540  1.0000 -0.1900487027
C   C63       1.0  0.26620  0.83300  0.45460  1.0000 -0.1110590099
C   C64       1.0  0.25500  0.76220  0.38880  1.0000 0.0542768739
C   C65       1.0  0.32510  0.76740  0.37070  1.0000 -0.1321400326
C   C66       1.0  0.40490  0.84710  0.42120  1.0000 -0.1900487027
C   C67       1.0  0.16730  0.68030  0.33440  1.0000 0.0130579021
C   C68       1.0  0.04380  0.45060  0.19060  1.0000 0.3443578956
C   C69       1.0  0.95640  0.39040  0.13060  1.0000 -0.2537145016
C   C70       1.0  0.93430  0.29920  0.08410  1.0000 7.028e-05
C   C71       1.0  0.99720  0.27930  0.10050  1.0000 -0.1900487027
C   C72       1.0  0.08320  0.33770  0.16130  1.0000 0.2035562299
C   C73       1.0  0.08140  0.57180  0.50120  1.0000 0.1801422937
C   C74       1.0  0.15270  0.65810  0.56300  1.0000 -0.1900487027
C   C75       1.0  0.23380  0.68840  0.56680  1.0000 -0.1110590099
C   C76       1.0  0.24500  0.63380  0.50720  1.0000 0.0542768739
C   C77       1.0  0.17490  0.54560  0.44230  1.0000 -0.1321400326
C   C78       1.0  0.09510  0.51630  0.44220  1.0000 -0.1900487027
C   C79       1.0  0.33270  0.66710  0.51300  1.0000 0.0130579021
C   C80       1.0  0.45620  0.64680  0.40680  1.0000 0.3443578956
C   C81       1.0  0.54360  0.67420  0.43400  1.0000 -0.2537145016
C   C82       1.0  0.56570  0.64980  0.36490  1.0000 7.028e-05
C   C83       1.0  0.50280  0.60330  0.28210  1.0000 -0.1900487027
C   C84       1.0  0.41680  0.57810  0.25450  1.0000 0.2035562299
C   C85       1.0  0.92940  0.92820  0.00960  1.0000 0.1801422937
C   C86       1.0  0.90490  0.84190  0.99460  1.0000 -0.1900487027
C   C87       1.0  0.87840  0.81160  0.04540  1.0000 -0.1110590099
C   C88       1.0  0.87340  0.86620  0.11120  1.0000 0.0542768739
C   C89       1.0  0.89670  0.95440  0.12930  1.0000 -0.1321400326
C   C90       1.0  0.92590  0.98370  0.07880  1.0000 -0.1900487027
C   C91       1.0  0.84590  0.83290  0.16560  1.0000 0.0130579021
C   C92       1.0  0.76000  0.85320  0.30940  1.0000 0.3443578956
C   C93       1.0  0.75980  0.82580  0.36940  1.0000 -0.2537145016
C   C94       1.0  0.71510  0.85020  0.41590  1.0000 7.028e-05
C   C95       1.0  0.67880  0.89670  0.39950  1.0000 -0.1900487027
C   C96       1.0  0.67640  0.92190  0.33870  1.0000 0.2035562299
C   C97       1.0  0.91980  0.49040  0.41860  1.0000 0.1801422937
C   C98       1.0  0.91030  0.50540  0.34730  1.0000 -0.1900487027
C   C99       1.0  0.83300  0.45460  0.26620  1.0000 -0.1110590099
C   C100      1.0  0.76220  0.38880  0.25500  1.0000 0.0542768739
C   C101      1.0  0.76740  0.37070  0.32510  1.0000 -0.1321400326
C   C102      1.0  0.84710  0.42120  0.40490  1.0000 -0.1900487027
C   C103      1.0  0.68030  0.33440  0.16730  1.0000 0.0130579021
C   C104      1.0  0.45060  0.19060  0.04380  1.0000 0.3443578956
C   C105      1.0  0.39040  0.13060  0.95640  1.0000 -0.2537145016
C   C106      1.0  0.29920  0.08410  0.93430  1.0000 7.028e-05
C   C107      1.0  0.27930  0.10050  0.99720  1.0000 -0.1900487027
C   C108      1.0  0.33770  0.16130  0.08320  1.0000 0.2035562299
C   C109      1.0  0.58020  0.99880  0.57060  1.0000 0.1801422937
C   C110      1.0  0.58970  0.93700  0.59510  1.0000 -0.1900487027
C   C111      1.0  0.66700  0.93320  0.62160  1.0000 -0.1110590099
C   C112      1.0  0.73780  0.99280  0.62660  1.0000 0.0542768739
C   C113      1.0  0.73260  0.05770  0.60330  1.0000 -0.1321400326
C   C114      1.0  0.65290  0.05780  0.57410  1.0000 -0.1900487027
C   C115      1.0  0.81970  0.98700  0.65410  1.0000 0.0130579021
C   C116      1.0  0.04940  0.09320  0.74000  1.0000 0.3443578956
C   C117      1.0  0.10960  0.06600  0.74020  1.0000 -0.2537145016
C   C118      1.0  0.20080  0.13510  0.78490  1.0000 7.028e-05
C   C119      1.0  0.22070  0.21790  0.82120  1.0000 -0.1900487027
C   C120      1.0  0.16230  0.24550  0.82360  1.0000 0.2035562299
C   C121      1.0  0.92820  0.00960  0.92940  1.0000 0.1801422937
C   C122      1.0  0.84190  0.99460  0.90490  1.0000 -0.1900487027
C   C123      1.0  0.81160  0.04540  0.87840  1.0000 -0.1110590099
C   C124      1.0  0.86620  0.11120  0.87340  1.0000 0.0542768739
C   C125      1.0  0.95440  0.12930  0.89670  1.0000 -0.1321400326
C   C126      1.0  0.98370  0.07880  0.92590  1.0000 -0.1900487027
C   C127      1.0  0.83290  0.16560  0.84590  1.0000 0.0130579021
C   C128      1.0  0.85320  0.30940  0.76000  1.0000 0.3443578956
C   C129      1.0  0.82580  0.36940  0.75980  1.0000 -0.2537145016
C   C130      1.0  0.85020  0.41590  0.71510  1.0000 7.028e-05
C   C131      1.0  0.89670  0.39950  0.67880  1.0000 -0.1900487027
C   C132      1.0  0.92190  0.33870  0.67640  1.0000 0.2035562299
C   C133      1.0  0.57180  0.50120  0.08140  1.0000 0.1801422937
C   C134      1.0  0.65810  0.56300  0.15270  1.0000 -0.1900487027
C   C135      1.0  0.68840  0.56680  0.23380  1.0000 -0.1110590099
C   C136      1.0  0.63380  0.50720  0.24500  1.0000 0.0542768739
C   C137      1.0  0.54560  0.44230  0.17490  1.0000 -0.1321400326
C   C138      1.0  0.51630  0.44220  0.09510  1.0000 -0.1900487027
C   C139      1.0  0.66710  0.51300  0.33270  1.0000 0.0130579021
C   C140      1.0  0.64680  0.40680  0.45620  1.0000 0.3443578956
C   C141      1.0  0.67420  0.43400  0.54360  1.0000 -0.2537145016
C   C142      1.0  0.64980  0.36490  0.56570  1.0000 7.028e-05
C   C143      1.0  0.60330  0.28210  0.50280  1.0000 -0.1900487027
C   C144      1.0  0.57810  0.25450  0.41680  1.0000 0.2035562299
Br  Br1       1.0  0.31533  0.63264  0.99303  1.0000 -0.0817756948
Br  Br2       1.0  0.13961  0.32230  0.50697  1.0000 -0.0817756948
Br  Br3       1.0  0.18467  0.17770  0.31731  1.0000 -0.0817756948
Br  Br4       1.0  0.36039  0.86736  0.18269  1.0000 -0.0817756948
Br  Br5       1.0  0.86736  0.18269  0.36039  1.0000 -0.0817756948
Br  Br6       1.0  0.17770  0.31731  0.18467  1.0000 -0.0817756948
Br  Br7       1.0  0.32230  0.50697  0.13961  1.0000 -0.0817756948
Br  Br8       1.0  0.63264  0.99303  0.31533  1.0000 -0.0817756948
Br  Br9       1.0  0.31731  0.18467  0.17770  1.0000 -0.0817756948
Br  Br10      1.0  0.18269  0.36039  0.86736  1.0000 -0.0817756948
Br  Br11      1.0  0.99303  0.31533  0.63264  1.0000 -0.0817756948
Br  Br12      1.0  0.50697  0.13961  0.32230  1.0000 -0.0817756948
N   N1        1.0  0.21400  0.81930  0.86830  1.0000 -0.1151012726
N   N2        1.0  0.26260  0.79840  0.82900  1.0000 -0.1900487027
N   N3        1.0  0.29380  0.72340  0.90200  1.0000 -0.3539784597
N   N4        1.0  0.45100  0.34570  0.63170  1.0000 -0.1151012726
N   N5        1.0  0.46940  0.43360  0.67100  1.0000 -0.1900487027
N   N6        1.0  0.32140  0.39180  0.59800  1.0000 -0.3539784597
N   N7        1.0  0.28600  0.15430  0.60530  1.0000 -0.1151012726
N   N8        1.0  0.23740  0.06640  0.53580  1.0000 -0.1900487027
N   N9        1.0  0.20620  0.10820  0.42960  1.0000 -0.3539784597
N   N10       1.0  0.04900  0.68070  0.89470  1.0000 -0.1151012726
N   N11       1.0  0.03060  0.70160  0.96420  1.0000 -0.1900487027
N   N12       1.0  0.17860  0.77660  0.07040  1.0000 -0.3539784597
N   N13       1.0  0.68070  0.89470  0.04900  1.0000 -0.1151012726
N   N14       1.0  0.70160  0.96420  0.03060  1.0000 -0.1900487027
N   N15       1.0  0.77660  0.07040  0.17860  1.0000 -0.3539784597
N   N16       1.0  0.15430  0.60530  0.28600  1.0000 -0.1151012726
N   N17       1.0  0.06640  0.53580  0.23740  1.0000 -0.1900487027
N   N18       1.0  0.10820  0.42960  0.20620  1.0000 -0.3539784597
N   N19       1.0  0.34570  0.63170  0.45100  1.0000 -0.1151012726
N   N20       1.0  0.43360  0.67100  0.46940  1.0000 -0.1900487027
N   N21       1.0  0.39180  0.59800  0.32140  1.0000 -0.3539784597
N   N22       1.0  0.81930  0.86830  0.21400  1.0000 -0.1151012726
N   N23       1.0  0.79840  0.82900  0.26260  1.0000 -0.1900487027
N   N24       1.0  0.72340  0.90200  0.29380  1.0000 -0.3539784597
N   N25       1.0  0.60530  0.28600  0.15430  1.0000 -0.1151012726
N   N26       1.0  0.53580  0.23740  0.06640  1.0000 -0.1900487027
N   N27       1.0  0.42960  0.20620  0.10820  1.0000 -0.3539784597
N   N28       1.0  0.89470  0.04900  0.68070  1.0000 -0.1110590099
N   N29       1.0  0.96420  0.03060  0.70160  1.0000 -0.1900487027
N   N30       1.0  0.07040  0.17860  0.77660  1.0000 -0.3539784597
N   N31       1.0  0.86830  0.21400  0.81930  1.0000 -0.1151012726
N   N32       1.0  0.82900  0.26260  0.79840  1.0000 -0.1900487027
N   N33       1.0  0.90200  0.29380  0.72340  1.0000 -0.3539784597
N   N34       1.0  0.63170  0.45100  0.34570  1.0000 -0.1151012726
N   N35       1.0  0.67100  0.46940  0.43360  1.0000 -0.1900487027
N   N36       1.0  0.59800  0.32140  0.39180  1.0000 -0.3539784597
N   N37       1.0  0.95680  0.95680  0.95680  1.0000 -0.1499678738
N   N38       1.0  0.50000  0.00000  0.54320  1.0000 -0.1499678738
N   N39       1.0  0.54320  0.50000  0.00000  1.0000 -0.1499678738
N   N40       1.0  0.00000  0.54320  0.50000  1.0000 -0.1499678738
Cl  Cl1       1.0  0.25000  0.93690  0.68690  1.0000 1.3139791094
Cl  Cl2       1.0  0.75000  0.56310  0.81310  1.0000 1.3139791094
Cl  Cl3       1.0  0.68690  0.25000  0.93690  1.0000 1.3139791094
Cl  Cl4       1.0  0.81310  0.75000  0.56310  1.0000 1.3139791094
Cl  Cl5       1.0  0.56310  0.81310  0.75000  1.0000 1.3139791094
Cl  Cl6       1.0  0.93690  0.68690  0.25000  1.0000 1.3139791094
O   O1        1.0  0.17340  0.92790  0.69730  1.0000 -0.5161292352
O   O2        1.0  0.28430  0.88010  0.71720  1.0000 -0.5617566851
O   O3        1.0  0.32660  0.02390  0.75450  1.0000 -0.5161292352
O   O4        1.0  0.21570  0.93290  0.59580  1.0000 -0.5617566851
O   O5        1.0  0.76940  0.57210  0.74550  1.0000 -0.5161292352
O   O6        1.0  0.83710  0.61990  0.90420  1.0000 -0.5617566851
O   O7        1.0  0.73060  0.47610  0.80270  1.0000 -0.5161292352
O   O8        1.0  0.66290  0.56710  0.78280  1.0000 -0.5617566851
O   O9        1.0  0.75450  0.32660  0.02390  1.0000 -0.5161292352
O   O10       1.0  0.59580  0.21570  0.93290  1.0000 -0.5617566851
O   O11       1.0  0.69730  0.17340  0.92790  1.0000 -0.5161292352
O   O12       1.0  0.71720  0.28430  0.88010  1.0000 -0.5617566851
O   O13       1.0  0.80270  0.73060  0.47610  1.0000 -0.5161292352
O   O14       1.0  0.78280  0.66290  0.56710  1.0000 -0.5617566851
O   O15       1.0  0.74550  0.76940  0.57210  1.0000 -0.5161292352
O   O16       1.0  0.90420  0.83710  0.61990  1.0000 -0.5617566851
O   O17       1.0  0.57210  0.74550  0.76940  1.0000 -0.5161292352
O   O18       1.0  0.61990  0.90420  0.83710  1.0000 -0.5617566851
O   O19       1.0  0.47610  0.80270  0.73060  1.0000 -0.5161292352
O   O20       1.0  0.56710  0.78280  0.66290  1.0000 -0.5617566851
O   O21       1.0  0.92790  0.69730  0.17340  1.0000 -0.5161292352
O   O22       1.0  0.88010  0.71720  0.28430  1.0000 -0.5617566851
O   O23       1.0  0.02390  0.75450  0.32660  1.0000 -0.5161292352
O   O24       1.0  0.93290  0.59580  0.21570  1.0000 -0.5617566851
