# DDEC6 charges by PACMAN v1.1 (https://github.com/mtap-research/PACMAN-charge/)
data_2017[Co][bnn]3[ION]1
_chemical_formula_sum              "Co4 H76 C96 S4 N12 O24 F12"
_cell_length_a       10.2658
_cell_length_b       25.4119
_cell_length_c       11.4166
_cell_angle_alpha    90
_cell_angle_beta     91.5623
_cell_angle_gamma    90

_symmetry_space_group_name_H-M    "P 1"
_symmetry_Int_Tables_number       1

loop_
  _symmetry_equiv_pos_as_xyz
  'x, y, z'

loop_
  _atom_site_type_symbol
  _atom_site_label
  _atom_site_symmetry_multiplicity
  _atom_site_fract_x
  _atom_site_fract_y
  _atom_site_fract_z
  _atom_site_occupancy
  _atom_site_charge
Co  Co1       1.0  0.55556  0.55815  0.99548  1.0000 0.7799886846
Co  Co2       1.0  0.05287  0.64026  0.98704  1.0000 0.7711697601
Co  Co3       1.0  0.44444  0.05815  0.00452  1.0000 0.7799886846
Co  Co4       1.0  0.94713  0.14026  0.01296  1.0000 0.7711697601
H   H1        1.0  0.97400  0.55380  0.90200  1.0000 0.3540225707
H   H2        1.0  0.47000  0.64980  0.05100  1.0000 0.3540225707
H   H3        1.0  0.86270  0.61490  0.39330  1.0000 0.1303787845
H   H4        1.0  0.23990  0.63090  0.77870  1.0000 0.1007873863
H   H5        1.0  0.36010  0.53900  0.77960  1.0000 0.1100878607
H   H6        1.0  0.35780  0.53690  0.57740  1.0000 0.1374235142
H   H7        1.0  0.24370  0.63300  0.57710  1.0000 0.1303787845
H   H8        1.0  0.74880  0.55810  0.59010  1.0000 0.1303787845
H   H9        1.0  0.86590  0.61340  0.19240  1.0000 0.1100878607
H   H10       1.0  0.23090  0.67290  0.39680  1.0000 0.1374235142
H   H11       1.0  0.86460  0.65980  0.77300  1.0000 0.1007873863
H   H12       1.0  0.93550  0.33410  0.90710  1.0000 0.1303787845
H   H13       1.0  0.73510  0.52650  0.20780  1.0000 0.1007873863
H   H14       1.0  0.38020  0.58450  0.20080  1.0000 0.1007873863
H   H15       1.0  0.63680  0.70080  0.04110  1.0000 0.1007873863
H   H16       1.0  0.70830  0.20340  0.09040  1.0000 0.1100878607
H   H17       1.0  0.73740  0.52020  0.40950  1.0000 0.1374235142
H   H18       1.0  0.73910  0.56160  0.79210  1.0000 0.1100878607
H   H19       1.0  0.22450  0.66880  0.19520  1.0000 0.1100878607
H   H20       1.0  0.37170  0.57990  0.40370  1.0000 0.1303787845
H   H21       1.0  0.75050  0.76230  0.90470  1.0000 0.1195739832
H   H22       1.0  0.73900  0.80570  0.72650  1.0000 0.1100878607
H   H23       1.0  0.85440  0.65900  0.57100  1.0000 0.1374235142
H   H24       1.0  0.62310  0.28710  0.08810  1.0000 0.1303787845
H   H25       1.0  0.45460  0.44430  0.99460  1.0000 0.1100878607
H   H26       1.0  0.14800  0.50490  0.89780  1.0000 0.1007873863
H   H27       1.0  0.52600  0.35870  0.99280  1.0000 0.1303787845
H   H28       1.0  0.81490  0.49730  0.99760  1.0000 0.1100878607
H   H29       1.0  0.60990  0.77390  0.57180  1.0000 0.1195739832
H   H30       1.0  0.89480  0.41290  0.99550  1.0000 0.1195739832
H   H31       1.0  0.01220  0.24880  0.91390  1.0000 0.1100878607
H   H32       1.0  0.03900  0.47150  0.34310  1.0000 0.1195739832
H   H33       1.0  0.49340  0.65480  0.77720  1.0000 0.1100878607
H   H34       1.0  0.18210  0.42030  0.97440  1.0000 0.1195739832
H   H35       1.0  0.48650  0.69870  0.59880  1.0000 0.1303787845
H   H36       1.0  0.06720  0.53410  0.19570  1.0000 0.1100878607
H   H37       1.0  0.15080  0.35750  0.12190  1.0000 0.1100878607
H   H38       1.0  0.08200  0.38300  0.30340  1.0000 0.1195739832
H   H39       1.0  0.02600  0.05380  0.09800  1.0000 0.3540225707
H   H40       1.0  0.53000  0.14980  0.94900  1.0000 0.3540225707
H   H41       1.0  0.13730  0.11490  0.60670  1.0000 0.1303787845
H   H42       1.0  0.76010  0.13090  0.22130  1.0000 0.1007873863
H   H43       1.0  0.63990  0.03900  0.22040  1.0000 0.1100878607
H   H44       1.0  0.64220  0.03690  0.42260  1.0000 0.1374235142
H   H45       1.0  0.75630  0.13300  0.42290  1.0000 0.1303787845
H   H46       1.0  0.25120  0.05810  0.40990  1.0000 0.1303787845
H   H47       1.0  0.13410  0.11340  0.80760  1.0000 0.1100878607
H   H48       1.0  0.76910  0.17290  0.60320  1.0000 0.1374235142
H   H49       1.0  0.13540  0.15980  0.22700  1.0000 0.1007873863
H   H50       1.0  0.06450  0.83410  0.09290  1.0000 0.1303787845
H   H51       1.0  0.26490  0.02650  0.79220  1.0000 0.1007873863
H   H52       1.0  0.61980  0.08450  0.79920  1.0000 0.1007873863
H   H53       1.0  0.36320  0.20080  0.95890  1.0000 0.1007873863
H   H54       1.0  0.29170  0.70340  0.90960  1.0000 0.1100878607
H   H55       1.0  0.26260  0.02020  0.59050  1.0000 0.1374235142
H   H56       1.0  0.26090  0.06160  0.20790  1.0000 0.1100878607
H   H57       1.0  0.77550  0.16880  0.80480  1.0000 0.1100878607
H   H58       1.0  0.62830  0.07990  0.59630  1.0000 0.1303787845
H   H59       1.0  0.24950  0.26230  0.09530  1.0000 0.1195739832
H   H60       1.0  0.26100  0.30570  0.27350  1.0000 0.1100878607
H   H61       1.0  0.14560  0.15900  0.42900  1.0000 0.1374235142
H   H62       1.0  0.37690  0.78710  0.91190  1.0000 0.1303787845
H   H63       1.0  0.54540  0.94430  0.00540  1.0000 0.1100878607
H   H64       1.0  0.85200  0.00490  0.10220  1.0000 0.1007873863
H   H65       1.0  0.47400  0.85870  0.00720  1.0000 0.1303787845
H   H66       1.0  0.18510  0.99730  0.00240  1.0000 0.1100878607
H   H67       1.0  0.39010  0.27390  0.42820  1.0000 0.1195739832
H   H68       1.0  0.10520  0.91290  0.00450  1.0000 0.1195739832
H   H69       1.0  0.98780  0.74880  0.08610  1.0000 0.1100878607
H   H70       1.0  0.96100  0.97150  0.65690  1.0000 0.1195739832
H   H71       1.0  0.50660  0.15480  0.22280  1.0000 0.1100878607
H   H72       1.0  0.81790  0.92030  0.02560  1.0000 0.1195739832
H   H73       1.0  0.51350  0.19870  0.40120  1.0000 0.1303787845
H   H74       1.0  0.93280  0.03410  0.80430  1.0000 0.1100878607
H   H75       1.0  0.84920  0.85750  0.87810  1.0000 0.1100878607
H   H76       1.0  0.91800  0.88300  0.69660  1.0000 0.1195739832
C   C1        1.0  0.04710  0.64350  0.41990  1.0000 0.1100878607
C   C2        1.0  0.93860  0.62609  0.35460  1.0000 -0.1710143752
C   C3        1.0  0.16070  0.63710  0.73590  1.0000 0.0800061532
C   C4        1.0  0.43960  0.54411  0.74050  1.0000 0.0722068899
C   C5        1.0  0.43760  0.54249  0.61960  1.0000 -0.1805692791
C   C6        1.0  0.16340  0.63773  0.61520  1.0000 -0.1710143752
C   C7        1.0  0.66730  0.55520  0.62690  1.0000 -0.1805692791
C   C8        1.0  0.55210  0.54908  0.55980  1.0000 0.1007873863
C   C9        1.0  0.04920  0.64524  0.54910  1.0000 0.1195739832
C   C10       1.0  0.25670  0.55958  0.99350  1.0000 0.5613019251
C   C11       1.0  0.75470  0.64008  0.98510  1.0000 0.5677576446
C   C12       1.0  0.94130  0.62513  0.23480  1.0000 0.0800061532
C   C13       1.0  0.15510  0.66008  0.35670  1.0000 -0.1886269367
C   C14       1.0  0.94250  0.65330  0.73240  1.0000 0.0918954134
C   C15       1.0  0.88700  0.30776  0.94600  1.0000 -0.1886269367
C   C16       1.0  0.66020  0.53762  0.24820  1.0000 0.0800061532
C   C17       1.0  0.45380  0.57136  0.24380  1.0000 0.1007873863
C   C18       1.0  0.63250  0.67440  0.97630  1.0000 -0.0080247481
C   C19       1.0  0.75560  0.23054  0.05320  1.0000 0.1007873863
C   C20       1.0  0.55450  0.54985  0.43050  1.0000 0.1195739832
C   C21       1.0  0.66260  0.53376  0.36890  1.0000 -0.1886269367
C   C22       1.0  0.66030  0.55700  0.74780  1.0000 0.0918954134
C   C23       1.0  0.15040  0.65758  0.23650  1.0000 0.0800061532
C   C24       1.0  0.44790  0.56880  0.36540  1.0000 -0.1805692791
C   C25       1.0  0.69590  0.74895  0.84310  1.0000 -0.1531047627
C   C26       1.0  0.77030  0.32095  0.99810  1.0000 0.1100878607
C   C27       1.0  0.68930  0.77460  0.73670  1.0000 -0.101309999
C   C28       1.0  0.93540  0.65342  0.61130  1.0000 -0.1805692791
C   C29       1.0  0.70380  0.28037  0.05210  1.0000 -0.1805692791
C   C30       1.0  0.72000  0.37552  0.99560  1.0000 0.1100878607
C   C31       1.0  0.54570  0.43780  0.99490  1.0000 0.0800061532
C   C32       1.0  0.13830  0.52395  0.97380  1.0000 -0.0080247481
C   C33       1.0  0.58760  0.38661  0.99420  1.0000 -0.1805692791
C   C34       1.0  0.62280  0.70369  0.86080  1.0000 0.0722068899
C   C35       1.0  0.75520  0.46879  0.99660  1.0000 0.0800061532
C   C36       1.0  0.61260  0.75610  0.64500  1.0000 -0.0882802151
C   C37       1.0  0.80330  0.41846  0.99580  1.0000 -0.1805692791
C   C38       1.0  0.93260  0.25681  0.95060  1.0000 0.0800061532
C   C39       1.0  0.06750  0.46110  0.26800  1.0000 -0.0789947427
C   C40       1.0  0.54450  0.68555  0.76760  1.0000 -0.1416480012
C   C41       1.0  0.12490  0.48358  0.07030  1.0000 0.0722068899
C   C42       1.0  0.15180  0.43090  0.04870  1.0000 -0.1531047627
C   C43       1.0  0.54040  0.71180  0.66130  1.0000 -0.0882802151
C   C44       1.0  0.08410  0.49810  0.18000  1.0000 -0.1320328928
C   C45       1.0  0.13410  0.39360  0.13700  1.0000 -0.101309999
C   C46       1.0  0.09310  0.40870  0.24410  1.0000 -0.1050709553
C   C47       1.0  0.95290  0.14350  0.58010  1.0000 0.1100878607
C   C48       1.0  0.06140  0.12609  0.64540  1.0000 -0.1710143752
C   C49       1.0  0.83930  0.13710  0.26410  1.0000 0.0800061532
C   C50       1.0  0.56040  0.04411  0.25950  1.0000 0.0722068899
C   C51       1.0  0.56240  0.04249  0.38040  1.0000 -0.1805692791
C   C52       1.0  0.83660  0.13773  0.38480  1.0000 -0.1710143752
C   C53       1.0  0.33270  0.05520  0.37310  1.0000 -0.1805692791
C   C54       1.0  0.44790  0.04908  0.44020  1.0000 0.1007873863
C   C55       1.0  0.95080  0.14524  0.45090  1.0000 0.1195739832
C   C56       1.0  0.74330  0.05958  0.00650  1.0000 0.5613019251
C   C57       1.0  0.24530  0.14008  0.01490  1.0000 0.5677576446
C   C58       1.0  0.05870  0.12513  0.76520  1.0000 0.0800061532
C   C59       1.0  0.84490  0.16008  0.64330  1.0000 -0.1886269367
C   C60       1.0  0.05750  0.15330  0.26760  1.0000 0.0918954134
C   C61       1.0  0.11300  0.80776  0.05400  1.0000 -0.1886269367
C   C62       1.0  0.33980  0.03762  0.75180  1.0000 0.0800061532
C   C63       1.0  0.54620  0.07136  0.75620  1.0000 0.1007873863
C   C64       1.0  0.36750  0.17440  0.02370  1.0000 -0.0080247481
C   C65       1.0  0.24440  0.73054  0.94680  1.0000 0.1007873863
C   C66       1.0  0.44550  0.04985  0.56950  1.0000 0.1195739832
C   C67       1.0  0.33740  0.03376  0.63110  1.0000 -0.1886269367
C   C68       1.0  0.33970  0.05700  0.25220  1.0000 0.0918954134
C   C69       1.0  0.84960  0.15758  0.76350  1.0000 0.0800061532
C   C70       1.0  0.55210  0.06880  0.63460  1.0000 -0.1805692791
C   C71       1.0  0.30410  0.24895  0.15690  1.0000 -0.1531047627
C   C72       1.0  0.22970  0.82095  0.00190  1.0000 0.1100878607
C   C73       1.0  0.31070  0.27460  0.26330  1.0000 -0.101309999
C   C74       1.0  0.06460  0.15342  0.38870  1.0000 -0.1805692791
C   C75       1.0  0.29620  0.78037  0.94790  1.0000 -0.1805692791
C   C76       1.0  0.28000  0.87552  0.00440  1.0000 0.1100878607
C   C77       1.0  0.45430  0.93780  0.00510  1.0000 0.0800061532
C   C78       1.0  0.86170  0.02395  0.02620  1.0000 -0.0080247481
C   C79       1.0  0.41240  0.88661  0.00580  1.0000 -0.1805692791
C   C80       1.0  0.37720  0.20369  0.13920  1.0000 0.0722068899
C   C81       1.0  0.24480  0.96879  0.00340  1.0000 0.0800061532
C   C82       1.0  0.38740  0.25610  0.35500  1.0000 -0.0882802151
C   C83       1.0  0.19670  0.91846  0.00420  1.0000 -0.1805692791
C   C84       1.0  0.06740  0.75681  0.04940  1.0000 0.0800061532
C   C85       1.0  0.93250  0.96110  0.73200  1.0000 -0.0789947427
C   C86       1.0  0.45550  0.18555  0.23240  1.0000 -0.1416480012
C   C87       1.0  0.87510  0.98358  0.92970  1.0000 0.0800061532
C   C88       1.0  0.84820  0.93090  0.95130  1.0000 -0.1531047627
C   C89       1.0  0.45960  0.21180  0.33870  1.0000 -0.0882802151
C   C90       1.0  0.91590  0.99810  0.82000  1.0000 -0.1320328928
C   C91       1.0  0.86590  0.89360  0.86300  1.0000 -0.101309999
C   C92       1.0  0.90690  0.90870  0.75590  1.0000 -0.1050709553
C   C93       1.0  0.46470  0.28340  0.74910  1.0000 0.5044195238
C   C94       1.0  0.00860  0.93160  0.33400  1.0000 0.5058304452
C   C95       1.0  0.53530  0.78340  0.25090  1.0000 0.5044195238
C   C96       1.0  0.99140  0.43160  0.66600  1.0000 0.5044195238
S   S1        1.0  0.48178  0.21278  0.72369  1.0000 0.9940919362
S   S2        1.0  0.98381  0.00209  0.34500  1.0000 0.9940919362
S   S3        1.0  0.51822  0.71278  0.27631  1.0000 0.9940919362
S   S4        1.0  0.01619  0.50209  0.65500  1.0000 0.9940919362
N   N1        1.0  0.05120  0.64484  0.79600  1.0000 -0.2476109799
N   N2        1.0  0.04580  0.64002  0.17440  1.0000 -0.2476109799
N   N3        1.0  0.55820  0.55620  0.18450  1.0000 -0.2476109799
N   N4        1.0  0.54970  0.55263  0.80610  1.0000 -0.2555220492
N   N5        1.0  0.62720  0.47937  0.99600  1.0000 -0.2441637136
N   N6        1.0  0.86900  0.21786  0.00480  1.0000 -0.2476109799
N   N7        1.0  0.94880  0.14484  0.20400  1.0000 -0.2476109799
N   N8        1.0  0.95420  0.14002  0.82560  1.0000 -0.2476109799
N   N9        1.0  0.44180  0.05620  0.81550  1.0000 -0.2476109799
N   N10       1.0  0.45030  0.05263  0.19390  1.0000 -0.2555220492
N   N11       1.0  0.37280  0.97937  0.00400  1.0000 -0.2441637136
N   N12       1.0  0.13100  0.71786  0.99520  1.0000 -0.2476109799
O   O1        1.0  0.24160  0.60830  0.99970  1.0000 -0.5341184951
O   O2        1.0  0.74120  0.59058  0.99600  1.0000 -0.5492073002
O   O3        1.0  0.02340  0.55613  0.96490  1.0000 -0.4858019717
O   O4        1.0  0.86170  0.66372  0.98210  1.0000 -0.5492073002
O   O5        1.0  0.36440  0.53578  0.99870  1.0000 -0.5492073002
O   O6        1.0  0.51930  0.64190  0.99140  1.0000 -0.4973922587
O   O7        1.0  0.75840  0.10830  0.00030  1.0000 -0.5341184951
O   O8        1.0  0.25880  0.09058  0.00400  1.0000 -0.5492073002
O   O9        1.0  0.97660  0.05613  0.03510  1.0000 -0.4858019717
O   O10       1.0  0.13830  0.16372  0.01790  1.0000 -0.5492073002
O   O11       1.0  0.63560  0.03578  0.00130  1.0000 -0.5492073002
O   O12       1.0  0.48070  0.14190  0.00860  1.0000 -0.4973922587
O   O13       1.0  0.34890  0.19396  0.72510  1.0000 -0.5492073002
O   O14       1.0  0.56160  0.19642  0.82440  1.0000 -0.5628425397
O   O15       1.0  0.54490  0.20914  0.61390  1.0000 -0.5492073002
O   O16       1.0  0.84490  0.00778  0.33110  1.0000 -0.5492073002
O   O17       1.0  0.05660  0.02207  0.24730  1.0000 -0.5628425397
O   O18       1.0  0.03870  0.01532  0.45840  1.0000 -0.5492073002
O   O19       1.0  0.65110  0.69396  0.27490  1.0000 -0.5492073002
O   O20       1.0  0.43840  0.69642  0.17560  1.0000 -0.5628425397
O   O21       1.0  0.45510  0.70914  0.38610  1.0000 -0.5492073002
O   O22       1.0  0.15510  0.50778  0.66890  1.0000 -0.5492073002
O   O23       1.0  0.94340  0.52207  0.75270  1.0000 -0.5628425397
O   O24       1.0  0.96130  0.51532  0.54160  1.0000 -0.5492073002
F   F1        1.0  0.39740  0.30642  0.66220  1.0000 -0.1886269367
F   F2        1.0  0.40380  0.29272  0.84900  1.0000 -0.2014785438
F   F3        1.0  0.58130  0.30736  0.75800  1.0000 -0.1886269367
F   F4        1.0  0.95650  0.90682  0.42380  1.0000 -0.1886269367
F   F5        1.0  0.95360  0.91275  0.23470  1.0000 -0.2014785438
F   F6        1.0  0.13410  0.91931  0.33310  1.0000 -0.1805692791
F   F7        1.0  0.60260  0.80642  0.33780  1.0000 -0.1886269367
F   F8        1.0  0.59620  0.79272  0.15100  1.0000 -0.2014785438
F   F9        1.0  0.41870  0.80736  0.24200  1.0000 -0.1886269367
F   F10       1.0  0.04350  0.40682  0.57620  1.0000 -0.1886269367
F   F11       1.0  0.04640  0.41275  0.76530  1.0000 -0.2014785438
F   F12       1.0  0.86590  0.41931  0.66690  1.0000 -0.1805692791
