# DDEC6 charges by PACMAN v1.1 (https://github.com/mtap-research/PACMAN-charge/)
data_2017[Ag][hcb]2[ION]5
_chemical_formula_sum              "Ag4 H84 C112 S4 N12 O36 F12"
_cell_length_a       13.6161
_cell_length_b       17.0381
_cell_length_c       17.7082
_cell_angle_alpha    62.034
_cell_angle_beta     73.245
_cell_angle_gamma    79.026

_symmetry_space_group_name_H-M    "P 1"
_symmetry_Int_Tables_number       1

loop_
  _symmetry_equiv_pos_as_xyz
  'x, y, z'

loop_
  _atom_site_type_symbol
  _atom_site_label
  _atom_site_symmetry_multiplicity
  _atom_site_fract_x
  _atom_site_fract_y
  _atom_site_fract_z
  _atom_site_occupancy
  _atom_site_charge
Ag  Ag1       1.0  0.45048  0.27778  0.70315  1.0000 0.2948004463
Ag  Ag2       1.0  0.54952  0.72222  0.29685  1.0000 0.2948004463
Ag  Ag3       1.0  0.09289  0.68069  0.79809  1.0000 0.2988747813
Ag  Ag4       1.0  0.90711  0.31931  0.20191  1.0000 0.2988747813
H   H1        1.0  0.41490  0.32460  0.86580  1.0000 0.1098753286
H   H2        1.0  0.38670  0.44470  0.89830  1.0000 0.131494231
H   H3        1.0  0.36580  0.60570  0.64670  1.0000 0.131494231
H   H4        1.0  0.40050  0.48240  0.62000  1.0000 0.101370238
H   H5        1.0  0.43210  0.71480  0.84440  1.0000 0.1191529896
H   H6        1.0  0.30890  0.71980  0.86630  1.0000 0.1098753286
H   H7        1.0  0.49140  0.18810  0.57990  1.0000 0.1098753286
H   H8        1.0  0.47380  0.20190  0.44850  1.0000 0.1386805105
H   H9        1.0  0.35460  0.45370  0.39260  1.0000 0.1386805105
H   H10       1.0  0.36770  0.42970  0.52970  1.0000 0.1098753286
H   H11       1.0  0.42410  0.40600  0.15620  1.0000 0.101370238
H   H12       1.0  0.30200  0.41480  0.19160  1.0000 0.1191529896
H   H13       1.0  0.29800  0.13740  0.84930  1.0000 0.1098753286
H   H14       1.0  0.28720  0.99770  0.96670  1.0000 0.131494231
H   H15       1.0  0.59620  0.96200  0.89630  1.0000 0.131494231
H   H16       1.0  0.59630  0.10430  0.78000  1.0000 0.1098753286
H   H17       1.0  0.38730  0.74420  0.16370  1.0000 0.1098753286
H   H18       1.0  0.26650  0.75310  0.16900  1.0000 0.1191529896
H   H19       1.0  0.35230  0.58270  0.21260  1.0000 0.131494231
H   H20       1.0  0.38520  0.51630  0.01420  1.0000 0.131494231
H   H21       1.0  0.35170  0.77520  0.96590  1.0000 0.1191529896
H   H22       1.0  0.58510  0.67540  0.13420  1.0000 0.1098753286
H   H23       1.0  0.61330  0.55530  0.10170  1.0000 0.131494231
H   H24       1.0  0.63420  0.39430  0.35330  1.0000 0.131494231
H   H25       1.0  0.59950  0.51760  0.38000  1.0000 0.101370238
H   H26       1.0  0.56790  0.28520  0.15560  1.0000 0.1191529896
H   H27       1.0  0.69110  0.28020  0.13370  1.0000 0.1098753286
H   H28       1.0  0.50860  0.81190  0.42010  1.0000 0.1098753286
H   H29       1.0  0.52620  0.79810  0.55150  1.0000 0.1386805105
H   H30       1.0  0.64540  0.54630  0.60740  1.0000 0.1386805105
H   H31       1.0  0.63230  0.57030  0.47030  1.0000 0.1098753286
H   H32       1.0  0.57590  0.59400  0.84380  1.0000 0.101370238
H   H33       1.0  0.69800  0.58520  0.80840  1.0000 0.1191529896
H   H34       1.0  0.70200  0.86260  0.15070  1.0000 0.1098753286
H   H35       1.0  0.71280  0.00230  0.03330  1.0000 0.1386805105
H   H36       1.0  0.40380  0.03800  0.10370  1.0000 0.131494231
H   H37       1.0  0.40370  0.89570  0.22000  1.0000 0.1098753286
H   H38       1.0  0.61270  0.25580  0.83630  1.0000 0.1098753286
H   H39       1.0  0.73350  0.24690  0.83100  1.0000 0.1191529896
H   H40       1.0  0.64770  0.41730  0.78740  1.0000 0.131494231
H   H41       1.0  0.61480  0.48370  0.98580  1.0000 0.131494231
H   H42       1.0  0.64830  0.22480  0.03410  1.0000 0.1191529896
H   H43       1.0  0.10610  0.62500  0.64650  1.0000 0.101370238
H   H44       1.0  0.13270  0.50620  0.61350  1.0000 0.131494231
H   H45       1.0  0.15990  0.34450  0.86270  1.0000 0.1386805105
H   H46       1.0  0.12670  0.46670  0.88950  1.0000 0.1098753286
H   H47       1.0  0.21320  0.23950  0.63240  1.0000 0.1098753286
H   H48       1.0  0.09040  0.23860  0.66420  1.0000 0.1191529896
H   H49       1.0  0.07330  0.78710  0.90850  1.0000 0.1098753286
H   H50       1.0  0.07330  0.77060  0.04520  1.0000 0.1386805105
H   H51       1.0  0.13420  0.50690  0.12090  1.0000 0.1386805105
H   H52       1.0  0.13530  0.53110  0.98030  1.0000 0.1098753286
H   H53       1.0  0.17290  0.55320  0.32900  1.0000 0.1098753286
H   H54       1.0  0.05010  0.55120  0.35550  1.0000 0.101370238
H   H55       1.0  0.23100  0.75720  0.60000  1.0000 0.1098753286
H   H56       1.0  0.26380  0.88780  0.47130  1.0000 0.1386805105
H   H57       1.0  0.03050  0.01140  0.58450  1.0000 0.131494231
H   H58       1.0  0.99960  0.87600  0.70680  1.0000 0.1191529896
H   H59       1.0  0.22880  0.20630  0.34210  1.0000 0.1191529896
H   H60       1.0  0.11050  0.22600  0.33620  1.0000 0.1098753286
H   H61       1.0  0.15700  0.18540  0.53680  1.0000 0.1191529896
H   H62       1.0  0.12190  0.44190  0.49590  1.0000 0.1191529896
H   H63       1.0  0.12800  0.38150  0.29940  1.0000 0.131494231
H   H64       1.0  0.89390  0.37500  0.35350  1.0000 0.101370238
H   H65       1.0  0.86730  0.49380  0.38650  1.0000 0.131494231
H   H66       1.0  0.84010  0.65550  0.13730  1.0000 0.1386805105
H   H67       1.0  0.87330  0.53330  0.11050  1.0000 0.1098753286
H   H68       1.0  0.78680  0.76050  0.36760  1.0000 0.1098753286
H   H69       1.0  0.90960  0.76140  0.33580  1.0000 0.1191529896
H   H70       1.0  0.92670  0.21290  0.09150  1.0000 0.1098753286
H   H71       1.0  0.92670  0.22940  0.95480  1.0000 0.1386805105
H   H72       1.0  0.86580  0.49310  0.87910  1.0000 0.1386805105
H   H73       1.0  0.86470  0.46890  0.01970  1.0000 0.1098753286
H   H74       1.0  0.82710  0.44680  0.67100  1.0000 0.1098753286
H   H75       1.0  0.94990  0.44880  0.64450  1.0000 0.101370238
H   H76       1.0  0.76900  0.24280  0.40000  1.0000 0.1098753286
H   H77       1.0  0.73620  0.11220  0.52870  1.0000 0.1386805105
H   H78       1.0  0.96950  0.98860  0.41550  1.0000 0.131494231
H   H79       1.0  0.00040  0.12400  0.29320  1.0000 0.1191529896
H   H80       1.0  0.77120  0.79370  0.65790  1.0000 0.1191529896
H   H81       1.0  0.88950  0.77400  0.66380  1.0000 0.1098753286
H   H82       1.0  0.84300  0.81460  0.46320  1.0000 0.1191529896
H   H83       1.0  0.87810  0.55810  0.50410  1.0000 0.1191529896
H   H84       1.0  0.87200  0.61850  0.70060  1.0000 0.131494231
C   C1        1.0  0.40640  0.38280  0.82060  1.0000 0.0721562545
C   C2        1.0  0.38870  0.45360  0.84070  1.0000 -0.1581587597
C   C3        1.0  0.37390  0.53870  0.77540  1.0000 -0.0028263782
C   C4        1.0  0.37730  0.54850  0.69240  1.0000 -0.1447249568
C   C5        1.0  0.39720  0.47490  0.67740  1.0000 0.0721562545
C   C6        1.0  0.35790  0.62060  0.78880  1.0000 0.480828897
C   C7        1.0  0.37080  0.68040  0.88150  1.0000 -0.0706597126
C   C8        1.0  0.46120  0.24220  0.54210  1.0000 0.0721562545
C   C9        1.0  0.45190  0.25010  0.46360  1.0000 -0.1498557545
C   C10       1.0  0.41030  0.32900  0.40690  1.0000 0.0021036805
C   C11       1.0  0.38080  0.39770  0.43100  1.0000 -0.1498557545
C   C12       1.0  0.39040  0.38300  0.51240  1.0000 0.0721562545
C   C13       1.0  0.40050  0.33760  0.32140  1.0000 0.4884380558
C   C14       1.0  0.36780  0.43800  0.18280  1.0000 -0.0706597126
C   C15       1.0  0.35970  0.10120  0.85930  1.0000 0.0721562545
C   C16       1.0  0.35220  0.01790  0.92940  1.0000 -0.1581587597
C   C17       1.0  0.44080  0.96460  0.94410  1.0000 -0.0028263782
C   C18       1.0  0.53350  0.99700  0.88800  1.0000 -0.1498557545
C   C19       1.0  0.53270  0.08230  0.81890  1.0000 0.0810600192
C   C20       1.0  0.44040  0.87350  0.01870  1.0000 0.4959123938
C   C21       1.0  0.33550  0.75760  0.12910  1.0000 -0.0706597126
C   C22       1.0  0.35070  0.69020  0.09360  1.0000 0.1098753286
C   C23       1.0  0.35600  0.60000  0.15250  1.0000 -0.2100405238
C   C24       1.0  0.36680  0.53540  0.12290  1.0000 0.1098753286
C   C25       1.0  0.37480  0.56060  0.03450  1.0000 -0.2100405238
C   C26       1.0  0.36770  0.64960  0.97620  1.0000 0.1098753286
C   C27       1.0  0.35600  0.71400  0.00600  1.0000 -0.2184256407
C   C28       1.0  0.82680  0.30160  0.58200  1.0000 0.4573541292
C   C29       1.0  0.59360  0.61720  0.17940  1.0000 0.0721562545
C   C30       1.0  0.61130  0.54640  0.15930  1.0000 -0.1581587597
C   C31       1.0  0.62610  0.46130  0.22460  1.0000 -0.0028263782
C   C32       1.0  0.62270  0.45150  0.30760  1.0000 -0.1447249568
C   C33       1.0  0.60280  0.52510  0.32260  1.0000 0.0721562545
C   C34       1.0  0.64210  0.37940  0.21120  1.0000 0.480828897
C   C35       1.0  0.62920  0.31960  0.11850  1.0000 -0.0706597126
C   C36       1.0  0.53880  0.75780  0.45790  1.0000 0.0721562545
C   C37       1.0  0.54810  0.74990  0.53640  1.0000 -0.1498557545
C   C38       1.0  0.58970  0.67100  0.59310  1.0000 0.0021036805
C   C39       1.0  0.61920  0.60230  0.56900  1.0000 -0.1498557545
C   C40       1.0  0.60960  0.61700  0.48760  1.0000 0.0721562545
C   C41       1.0  0.59950  0.66240  0.67860  1.0000 0.4884380558
C   C42       1.0  0.63220  0.56200  0.81720  1.0000 -0.0706597126
C   C43       1.0  0.64030  0.89880  0.14070  1.0000 0.0721562545
C   C44       1.0  0.64780  0.98210  0.07060  1.0000 -0.1581587597
C   C45       1.0  0.55920  0.03540  0.05590  1.0000 -0.0028263782
C   C46       1.0  0.46650  0.00300  0.11200  1.0000 -0.1498557545
C   C47       1.0  0.46730  0.91770  0.18110  1.0000 0.0810600192
C   C48       1.0  0.55960  0.12650  0.98130  1.0000 0.4959123938
C   C49       1.0  0.66450  0.24240  0.87090  1.0000 -0.0706597126
C   C50       1.0  0.64930  0.30980  0.90640  1.0000 0.1098753286
C   C51       1.0  0.64400  0.40000  0.84750  1.0000 -0.2100405238
C   C52       1.0  0.63320  0.46460  0.87710  1.0000 0.1098753286
C   C53       1.0  0.62520  0.43940  0.96550  1.0000 -0.2100405238
C   C54       1.0  0.63230  0.35040  0.02380  1.0000 0.1098753286
C   C55       1.0  0.64400  0.28600  0.99400  1.0000 -0.2184256407
C   C56       1.0  0.17320  0.69840  0.41800  1.0000 0.4573541292
C   C57       1.0  0.11580  0.56690  0.69130  1.0000 0.0721562545
C   C58       1.0  0.13200  0.49670  0.67100  1.0000 -0.1581587597
C   C59       1.0  0.14720  0.41180  0.73510  1.0000 0.0021036805
C   C60       1.0  0.14720  0.40160  0.81750  1.0000 -0.1498557545
C   C61       1.0  0.12860  0.47480  0.83230  1.0000 0.0721562545
C   C62       1.0  0.16160  0.33100  0.71940  1.0000 0.4959123938
C   C63       1.0  0.14810  0.27630  0.62350  1.0000 -0.0633939496
C   C64       1.0  0.08710  0.72930  0.95210  1.0000 0.0721562545
C   C65       1.0  0.08580  0.72010  0.03350  1.0000 -0.1498557545
C   C66       1.0  0.10300  0.63700  0.09750  1.0000 0.0021036805
C   C67       1.0  0.12190  0.56550  0.07770  1.0000 -0.1498557545
C   C68       1.0  0.12280  0.58060  0.99350  1.0000 0.0810600192
C   C69       1.0  0.09970  0.62590  0.18760  1.0000 0.4884380558
C   C70       1.0  0.11480  0.52470  0.33090  1.0000 -0.0706597126
C   C71       1.0  0.18900  0.80970  0.59630  1.0000 0.0810600192
C   C72       1.0  0.21030  0.88730  0.51980  1.0000 -0.1581587597
C   C73       1.0  0.15110  0.96490  0.51580  1.0000 0.0021036805
C   C74       1.0  0.07270  0.95970  0.58580  1.0000 -0.1498557545
C   C75       1.0  0.05530  0.87880  0.65880  1.0000 0.0810600192
C   C76       1.0  0.17810  0.04910  0.43520  1.0000 0.4959123938
C   C77       1.0  0.15720  0.20780  0.37620  1.0000 -0.0706597126
C   C78       1.0  0.14350  0.27290  0.41350  1.0000 0.1098753286
C   C79       1.0  0.14820  0.24690  0.49890  1.0000 -0.2100405238
C   C80       1.0  0.14020  0.30980  0.53030  1.0000 0.101370238
C   C81       1.0  0.12790  0.39880  0.47490  1.0000 -0.2100405238
C   C82       1.0  0.12400  0.42630  0.38830  1.0000 0.101370238
C   C83       1.0  0.13130  0.36300  0.35820  1.0000 -0.2100405238
C   C84       1.0  0.88420  0.43310  0.30870  1.0000 0.0721562545
C   C85       1.0  0.86800  0.50330  0.32900  1.0000 -0.1581587597
C   C86       1.0  0.85280  0.58820  0.26490  1.0000 0.0021036805
C   C87       1.0  0.85280  0.59840  0.18250  1.0000 -0.1498557545
C   C88       1.0  0.87140  0.52520  0.16770  1.0000 0.0721562545
C   C89       1.0  0.83840  0.66900  0.28060  1.0000 0.4959123938
C   C90       1.0  0.85190  0.72370  0.37650  1.0000 -0.0633939496
C   C91       1.0  0.91290  0.27070  0.04790  1.0000 0.0721562545
C   C92       1.0  0.91420  0.27990  0.96650  1.0000 -0.1498557545
C   C93       1.0  0.89700  0.36300  0.90250  1.0000 0.0021036805
C   C94       1.0  0.87810  0.43450  0.92230  1.0000 -0.1498557545
C   C95       1.0  0.87720  0.41940  0.00650  1.0000 0.0810600192
C   C96       1.0  0.90030  0.37410  0.81240  1.0000 0.4884380558
C   C97       1.0  0.88520  0.47530  0.66910  1.0000 -0.0706597126
C   C98       1.0  0.81100  0.19030  0.40370  1.0000 0.0810600192
C   C99       1.0  0.78970  0.11270  0.48020  1.0000 -0.1581587597
C   C100      1.0  0.84890  0.03510  0.48420  1.0000 0.0021036805
C   C101      1.0  0.92730  0.04030  0.41420  1.0000 -0.1498557545
C   C102      1.0  0.94470  0.12120  0.34120  1.0000 0.0810600192
C   C103      1.0  0.82190  0.95090  0.56480  1.0000 0.4959123938
C   C104      1.0  0.84280  0.79220  0.62380  1.0000 -0.0706597126
C   C105      1.0  0.85650  0.72710  0.58650  1.0000 0.1098753286
C   C106      1.0  0.85180  0.75310  0.50110  1.0000 -0.2100405238
C   C107      1.0  0.85980  0.69020  0.46970  1.0000 0.101370238
C   C108      1.0  0.87210  0.60120  0.52510  1.0000 -0.2100405238
C   C109      1.0  0.87600  0.57370  0.61170  1.0000 0.101370238
C   C110      1.0  0.86870  0.63700  0.64180  1.0000 -0.2100405238
C   C111      1.0  0.71530  0.74770  0.89910  1.0000 0.480828897
C   C112      1.0  0.28470  0.25230  0.10090  1.0000 0.480828897
S   S1        1.0  0.69448  0.33512  0.58736  1.0000 0.9709437945
S   S2        1.0  0.30552  0.66488  0.41264  1.0000 0.9709437945
S   S3        1.0  0.83790  0.68995  0.88592  1.0000 0.9709437945
S   S4        1.0  0.16210  0.31005  0.11408  1.0000 0.9709437945
N   N1        1.0  0.41230  0.39220  0.73980  1.0000 -0.1895171143
N   N2        1.0  0.42980  0.30690  0.56810  1.0000 -0.1895171143
N   N3        1.0  0.44770  0.13450  0.80470  1.0000 -0.1895171143
N   N4        1.0  0.58770  0.60780  0.26020  1.0000 -0.1895171143
N   N5        1.0  0.57020  0.69310  0.43190  1.0000 -0.1895171143
N   N6        1.0  0.55230  0.86550  0.19530  1.0000 -0.1895171143
N   N7        1.0  0.11280  0.55800  0.77140  1.0000 -0.2100405238
N   N8        1.0  0.10680  0.66140  0.93020  1.0000 -0.1895171143
N   N9        1.0  0.11310  0.80430  0.66500  1.0000 -0.1895171143
N   N10       1.0  0.88720  0.44200  0.22860  1.0000 -0.2100405238
N   N11       1.0  0.89320  0.33860  0.06980  1.0000 -0.1895171143
N   N12       1.0  0.88690  0.19570  0.33500  1.0000 -0.1895171143
O   O1        1.0  0.33460  0.69270  0.73600  1.0000 -0.4579588613
O   O2        1.0  0.37490  0.60380  0.86550  1.0000 -0.2100405238
O   O3        1.0  0.40870  0.27620  0.30390  1.0000 -0.434049382
O   O4        1.0  0.38250  0.42270  0.26660  1.0000 -0.2100405238
O   O5        1.0  0.51680  0.82940  0.03880  1.0000 -0.4579588613
O   O6        1.0  0.34490  0.84790  0.05900  1.0000 -0.2184256407
O   O7        1.0  0.64570  0.25520  0.64640  1.0000 -0.5385258339
O   O8        1.0  0.67290  0.39150  0.63270  1.0000 -0.5757928035
O   O9        1.0  0.68370  0.37140  0.50190  1.0000 -0.5385258339
O   O10       1.0  0.66540  0.30730  0.26400  1.0000 -0.4579588613
O   O11       1.0  0.62510  0.39620  0.13450  1.0000 -0.2100405238
O   O12       1.0  0.59130  0.72380  0.69610  1.0000 -0.434049382
O   O13       1.0  0.61750  0.57730  0.73340  1.0000 -0.2100405238
O   O14       1.0  0.48320  0.17060  0.96120  1.0000 -0.4579588613
O   O15       1.0  0.65510  0.15210  0.94100  1.0000 -0.2184256407
O   O16       1.0  0.35430  0.74480  0.35360  1.0000 -0.5484113357
O   O17       1.0  0.32710  0.60850  0.36730  1.0000 -0.5699362001
O   O18       1.0  0.31630  0.62860  0.49810  1.0000 -0.5385258339
O   O19       1.0  0.18240  0.25720  0.77180  1.0000 -0.4814414076
O   O20       1.0  0.14500  0.35070  0.64160  1.0000 -0.2184256407
O   O21       1.0  0.08410  0.68650  0.20680  1.0000 -0.439769975
O   O22       1.0  0.11520  0.54090  0.24320  1.0000 -0.2100405238
O   O23       1.0  0.22810  0.05390  0.36670  1.0000 -0.439769975
O   O24       1.0  0.13410  0.11990  0.44830  1.0000 -0.2368548355
O   O25       1.0  0.81760  0.74280  0.22820  1.0000 -0.4814414076
O   O26       1.0  0.85500  0.64930  0.35840  1.0000 -0.2184256407
O   O27       1.0  0.91590  0.31350  0.79320  1.0000 -0.439769975
O   O28       1.0  0.88480  0.45910  0.75680  1.0000 -0.2100405238
O   O29       1.0  0.77190  0.94610  0.63330  1.0000 -0.439769975
O   O30       1.0  0.86590  0.88010  0.55170  1.0000 -0.2368548355
O   O31       1.0  0.90940  0.75730  0.83850  1.0000 -0.5484113357
O   O32       1.0  0.82800  0.64970  0.83370  1.0000 -0.5699362001
O   O33       1.0  0.84820  0.62810  0.97150  1.0000 -0.5484113357
O   O34       1.0  0.09060  0.24270  0.16150  1.0000 -0.5484113357
O   O35       1.0  0.17200  0.35030  0.16630  1.0000 -0.5645506523
O   O36       1.0  0.15180  0.37190  0.02850  1.0000 -0.5484113357
F   F1        1.0  0.85240  0.26860  0.65700  1.0000 -0.1581587597
F   F2        1.0  0.88030  0.37720  0.53410  1.0000 -0.1816350958
F   F3        1.0  0.86430  0.25490  0.54410  1.0000 -0.1498557545
F   F4        1.0  0.14760  0.73140  0.34300  1.0000 -0.1581587597
F   F5        1.0  0.11970  0.62280  0.46590  1.0000 -0.1816350958
F   F6        1.0  0.13570  0.74510  0.45590  1.0000 -0.1498557545
F   F7        1.0  0.69590  0.80960  0.82680  1.0000 -0.1581587597
F   F8        1.0  0.64130  0.69530  0.94350  1.0000 -0.1684768638
F   F9        1.0  0.71480  0.78650  0.95180  1.0000 -0.1816350958
F   F10       1.0  0.30410  0.19040  0.17320  1.0000 -0.1581587597
F   F11       1.0  0.35870  0.30470  0.05650  1.0000 -0.1684768638
F   F12       1.0  0.28520  0.21350  0.04820  1.0000 -0.1816350958
