# DDEC6 charges by PACMAN v1.1 (https://github.com/mtap-research/PACMAN-charge/)
data_2017[Co][bnn]3[ION]4
_chemical_formula_sum              "Co4 H76 C94 S2 N12 O18 F6"
_cell_length_a       10.2062
_cell_length_b       25.3253
_cell_length_c       11.4262
_cell_angle_alpha    90
_cell_angle_beta     91.255
_cell_angle_gamma    90

_symmetry_space_group_name_H-M    "P 1"
_symmetry_Int_Tables_number       1

loop_
  _symmetry_equiv_pos_as_xyz
  'x, y, z'

loop_
  _atom_site_type_symbol
  _atom_site_label
  _atom_site_symmetry_multiplicity
  _atom_site_fract_x
  _atom_site_fract_y
  _atom_site_fract_z
  _atom_site_occupancy
  _atom_site_charge
Co  Co1       1.0  0.04701  0.59779  0.48105  1.0000 0.7573688455
Co  Co2       1.0  0.54446  0.68118  0.47341  1.0000 0.7573688455
Co  Co3       1.0  0.95299  0.09779  0.51895  1.0000 0.7573688455
Co  Co4       1.0  0.45554  0.18118  0.52659  1.0000 0.7573688455
H   H1        1.0  0.93400  0.68200  0.52100  1.0000 0.3469554164
H   H2        1.0  0.45400  0.59100  0.39000  1.0000 0.3559183159
H   H3        1.0  0.72890  0.66730  0.26410  1.0000 0.1004519292
H   H4        1.0  0.85510  0.61160  0.88870  1.0000 0.1282916022
H   H5        1.0  0.86410  0.61550  0.68910  1.0000 0.1004519292
H   H6        1.0  0.73560  0.66930  0.06240  1.0000 0.1202628591
H   H7        1.0  0.23310  0.61110  0.27590  1.0000 0.1004519292
H   H8        1.0  0.23490  0.57400  0.69280  1.0000 0.1004519292
H   H9        1.0  0.23840  0.60620  0.07350  1.0000 0.1202628591
H   H10       1.0  0.73160  0.70580  0.88330  1.0000 0.1202628591
H   H11       1.0  0.35550  0.71200  0.05970  1.0000 0.1282916022
H   H12       1.0  0.34610  0.66900  0.88010  1.0000 0.1282916022
H   H13       1.0  0.35020  0.66280  0.68290  1.0000 0.1004519292
H   H14       1.0  0.85660  0.57380  0.26520  1.0000 0.110458292
H   H15       1.0  0.69210  0.03770  0.51230  1.0000 0.110458292
H   H16       1.0  0.12690  0.73990  0.53620  1.0000 0.1004519292
H   H17       1.0  0.36370  0.71200  0.26110  1.0000 0.1004519292
H   H18       1.0  0.85680  0.56900  0.06770  1.0000 0.1365285866
H   H19       1.0  0.23970  0.56880  0.89410  1.0000 0.1365285866
H   H20       1.0  0.05350  0.98320  0.51900  1.0000 0.1004519292
H   H21       1.0  0.72240  0.70110  0.68190  1.0000 0.090417973
H   H22       1.0  0.60880  0.95410  0.50440  1.0000 0.1202628591
H   H23       1.0  0.63450  0.54570  0.38080  1.0000 0.1004519292
H   H24       1.0  0.79070  0.74210  0.41010  1.0000 0.1004519292
H   H25       1.0  0.97650  0.89620  0.51840  1.0000 0.1282916022
H   H26       1.0  0.47420  0.79050  0.56370  1.0000 0.1004519292
H   H27       1.0  0.55680  0.87610  0.58010  1.0000 0.1282916022
H   H28       1.0  0.88080  0.82660  0.41650  1.0000 0.1282916022
H   H29       1.0  0.00350  0.69580  0.26230  1.0000 0.110458292
H   H30       1.0  0.98970  0.74610  0.09170  1.0000 0.110458292
H   H31       1.0  0.09120  0.82690  0.08250  1.0000 0.110458292
H   H32       1.0  0.21170  0.85850  0.24600  1.0000 0.110458292
H   H33       1.0  0.22450  0.80870  0.41780  1.0000 0.110458292
H   H34       1.0  0.53890  0.57280  0.67400  1.0000 0.110458292
H   H35       1.0  0.53010  0.51020  0.82580  1.0000 0.110458292
H   H36       1.0  0.57960  0.42100  0.78410  1.0000 0.110458292
H   H37       1.0  0.65550  0.39840  0.60300  1.0000 0.090417973
H   H38       1.0  0.68940  0.46280  0.45620  1.0000 0.1202628591
H   H39       1.0  0.06600  0.18200  0.47900  1.0000 0.3469554164
H   H40       1.0  0.54600  0.09100  0.61000  1.0000 0.3559183159
H   H41       1.0  0.27110  0.16730  0.73590  1.0000 0.1004519292
H   H42       1.0  0.14490  0.11160  0.11130  1.0000 0.1282916022
H   H43       1.0  0.13590  0.11550  0.31090  1.0000 0.1004519292
H   H44       1.0  0.26440  0.16930  0.93760  1.0000 0.1202628591
H   H45       1.0  0.76690  0.11110  0.72410  1.0000 0.1004519292
H   H46       1.0  0.76510  0.07400  0.30720  1.0000 0.1004519292
H   H47       1.0  0.76160  0.10620  0.92650  1.0000 0.1202628591
H   H48       1.0  0.26840  0.20580  0.11670  1.0000 0.1202628591
H   H49       1.0  0.64450  0.21200  0.94030  1.0000 0.1282916022
H   H50       1.0  0.65390  0.16900  0.11990  1.0000 0.1282916022
H   H51       1.0  0.64980  0.16280  0.31710  1.0000 0.1004519292
H   H52       1.0  0.14340  0.07380  0.73480  1.0000 0.110458292
H   H53       1.0  0.30790  0.53770  0.48770  1.0000 0.110458292
H   H54       1.0  0.87310  0.23990  0.46380  1.0000 0.1004519292
H   H55       1.0  0.63630  0.21200  0.73890  1.0000 0.1004519292
H   H56       1.0  0.14320  0.06900  0.93230  1.0000 0.1365285866
H   H57       1.0  0.76030  0.06880  0.10590  1.0000 0.1365285866
H   H58       1.0  0.94650  0.48320  0.48100  1.0000 0.1004519292
H   H59       1.0  0.27760  0.20110  0.31810  1.0000 0.090417973
H   H60       1.0  0.39120  0.45410  0.49560  1.0000 0.1202628591
H   H61       1.0  0.36550  0.04570  0.61920  1.0000 0.1004519292
H   H62       1.0  0.20930  0.24210  0.58990  1.0000 0.1004519292
H   H63       1.0  0.02350  0.39620  0.48160  1.0000 0.1282916022
H   H64       1.0  0.52580  0.29050  0.43630  1.0000 0.1004519292
H   H65       1.0  0.44320  0.37610  0.41990  1.0000 0.1282916022
H   H66       1.0  0.11920  0.32660  0.58350  1.0000 0.1282916022
H   H67       1.0  0.99650  0.19580  0.73770  1.0000 0.110458292
H   H68       1.0  0.01030  0.24610  0.90830  1.0000 0.110458292
H   H69       1.0  0.90880  0.32690  0.91750  1.0000 0.110458292
H   H70       1.0  0.78830  0.35850  0.75400  1.0000 0.110458292
H   H71       1.0  0.77550  0.30870  0.58220  1.0000 0.110458292
H   H72       1.0  0.46110  0.07280  0.32600  1.0000 0.110458292
H   H73       1.0  0.46990  0.01020  0.17420  1.0000 0.110458292
H   H74       1.0  0.42040  0.92100  0.21590  1.0000 0.110458292
H   H75       1.0  0.34450  0.89840  0.39700  1.0000 0.090417973
H   H76       1.0  0.31060  0.96280  0.54380  1.0000 0.1202628591
C   C1        1.0  0.65090  0.67630  0.22170  1.0000 0.079535199
C   C2        1.0  0.93500  0.60410  0.85080  1.0000 -0.2012614164
C   C3        1.0  0.94170  0.60590  0.73130  1.0000 0.0721346993
C   C4        1.0  0.65610  0.67660  0.10090  1.0000 -0.1819541116
C   C5        1.0  0.74910  0.60010  0.47630  1.0000 0.5420479753
C   C6        1.0  0.15490  0.60280  0.23310  1.0000 0.090417973
C   C7        1.0  0.15710  0.58190  0.73340  1.0000 0.0611468495
C   C8        1.0  0.15770  0.60030  0.11140  1.0000 -0.1819541116
C   C9        1.0  0.65150  0.69680  0.84440  1.0000 -0.2069045178
C   C10       1.0  0.54300  0.68790  0.03780  1.0000 0.110458292
C   C11       1.0  0.54030  0.68660  0.90860  1.0000 0.1202628591
C   C12       1.0  0.04750  0.58980  0.04460  1.0000 0.090417973
C   C13       1.0  0.04840  0.59110  0.91620  1.0000 0.110458292
C   C14       1.0  0.43410  0.70200  0.09990  1.0000 -0.1819541116
C   C15       1.0  0.42640  0.67480  0.84160  1.0000 -0.1819541116
C   C16       1.0  0.42900  0.67170  0.72410  1.0000 0.0611468495
C   C17       1.0  0.93580  0.58110  0.22610  1.0000 0.0611468495
C   C18       1.0  0.75130  0.00880  0.51220  1.0000 0.079535199
C   C19       1.0  0.24460  0.68120  0.47270  1.0000 0.5488346793
C   C20       1.0  0.12280  0.71510  0.46810  1.0000 -0.0213578011
C   C21       1.0  0.43960  0.70160  0.22040  1.0000 0.079535199
C   C22       1.0  0.93530  0.57860  0.10850  1.0000 -0.1819541116
C   C23       1.0  0.16130  0.57890  0.85380  1.0000 -0.190989029
C   C24       1.0  0.96160  0.97710  0.51710  1.0000 0.090417973
C   C25       1.0  0.64510  0.69360  0.72360  1.0000 0.0611468495
C   C26       1.0  0.78340  0.91510  0.50830  1.0000 0.110458292
C   C27       1.0  0.72930  0.86060  0.50120  1.0000 0.110458292
C   C28       1.0  0.70110  0.95900  0.50780  1.0000 -0.1819541116
C   C29       1.0  0.62570  0.56450  0.45720  1.0000 0.0083812994
C   C30       1.0  0.74200  0.76990  0.44410  1.0000 0.079535199
C   C31       1.0  0.91610  0.92470  0.51510  1.0000 -0.2012614164
C   C32       1.0  0.55840  0.79800  0.53410  1.0000 0.079535199
C   C33       1.0  0.60710  0.84930  0.54420  1.0000 -0.190989029
C   C34       1.0  0.79730  0.82020  0.44890  1.0000 -0.2012614164
C   C35       1.0  0.11190  0.74750  0.35860  1.0000 0.0611468495
C   C36       1.0  0.04510  0.72930  0.26020  1.0000 -0.1384030751
C   C37       1.0  0.03740  0.75920  0.15780  1.0000 -0.1096014228
C   C38       1.0  0.09720  0.80650  0.15210  1.0000 -0.1096014228
C   C39       1.0  0.16840  0.82540  0.24980  1.0000 -0.0981370381
C   C40       1.0  0.17570  0.79580  0.35200  1.0000 -0.1616741441
C   C41       1.0  0.56630  0.53750  0.66030  1.0000 -0.1452199838
C   C42       1.0  0.55740  0.50010  0.75010  1.0000 -0.080993729
C   C43       1.0  0.58950  0.44740  0.72590  1.0000 -0.1169156454
C   C44       1.0  0.63490  0.43430  0.61860  1.0000 -0.1096014228
C   C45       1.0  0.65270  0.47230  0.52890  1.0000 -0.1678560547
C   C46       1.0  0.61460  0.52380  0.55120  1.0000 0.0721346993
C   C47       1.0  0.34910  0.17630  0.77830  1.0000 0.079535199
C   C48       1.0  0.06500  0.10410  0.14920  1.0000 -0.2012614164
C   C49       1.0  0.05830  0.10590  0.26870  1.0000 0.0721346993
C   C50       1.0  0.34390  0.17660  0.89910  1.0000 -0.1819541116
C   C51       1.0  0.25090  0.10010  0.52370  1.0000 0.5420479753
C   C52       1.0  0.84510  0.10280  0.76690  1.0000 0.090417973
C   C53       1.0  0.84290  0.08190  0.26660  1.0000 0.0611468495
C   C54       1.0  0.84230  0.10030  0.88860  1.0000 -0.1819541116
C   C55       1.0  0.34850  0.19680  0.15560  1.0000 -0.2069045178
C   C56       1.0  0.45700  0.18790  0.96220  1.0000 0.110458292
C   C57       1.0  0.45970  0.18660  0.09140  1.0000 0.1202628591
C   C58       1.0  0.95250  0.08980  0.95540  1.0000 0.090417973
C   C59       1.0  0.95160  0.09110  0.08380  1.0000 0.110458292
C   C60       1.0  0.56590  0.20200  0.90010  1.0000 -0.1819541116
C   C61       1.0  0.57360  0.17480  0.15840  1.0000 -0.1819541116
C   C62       1.0  0.57100  0.17170  0.27590  1.0000 0.0611468495
C   C63       1.0  0.06420  0.08110  0.77390  1.0000 0.0611468495
C   C64       1.0  0.24870  0.50880  0.48780  1.0000 0.079535199
C   C65       1.0  0.75540  0.18120  0.52730  1.0000 0.5488346793
C   C66       1.0  0.87720  0.21510  0.53190  1.0000 -0.0213578011
C   C67       1.0  0.56040  0.20160  0.77960  1.0000 0.079535199
C   C68       1.0  0.06470  0.07860  0.89150  1.0000 -0.1819541116
C   C69       1.0  0.83870  0.07890  0.14620  1.0000 -0.190989029
C   C70       1.0  0.03840  0.47710  0.48290  1.0000 0.090417973
C   C71       1.0  0.35490  0.19360  0.27640  1.0000 0.0611468495
C   C72       1.0  0.21660  0.41510  0.49170  1.0000 0.110458292
C   C73       1.0  0.27070  0.36060  0.49880  1.0000 0.110458292
C   C74       1.0  0.29890  0.45900  0.49220  1.0000 -0.1819541116
C   C75       1.0  0.37430  0.06450  0.54280  1.0000 0.0083812994
C   C76       1.0  0.25800  0.26990  0.55590  1.0000 0.079535199
C   C77       1.0  0.08390  0.42470  0.48490  1.0000 -0.2012614164
C   C78       1.0  0.44160  0.29800  0.46590  1.0000 0.079535199
C   C79       1.0  0.39290  0.34930  0.45580  1.0000 -0.190989029
C   C80       1.0  0.20270  0.32020  0.55110  1.0000 -0.2012614164
C   C81       1.0  0.88810  0.24750  0.64140  1.0000 0.0611468495
C   C82       1.0  0.95490  0.22930  0.73980  1.0000 -0.1384030751
C   C83       1.0  0.96260  0.25920  0.84220  1.0000 -0.1096014228
C   C84       1.0  0.90280  0.30650  0.84790  1.0000 -0.1096014228
C   C85       1.0  0.83160  0.32540  0.75020  1.0000 -0.0981370381
C   C86       1.0  0.82430  0.29580  0.64800  1.0000 -0.1616741441
C   C87       1.0  0.43370  0.03750  0.33970  1.0000 -0.1452199838
C   C88       1.0  0.44260  0.00010  0.24990  1.0000 -0.080993729
C   C89       1.0  0.41050  0.94740  0.27410  1.0000 -0.1169156454
C   C90       1.0  0.36510  0.93430  0.38140  1.0000 -0.1096014228
C   C91       1.0  0.34730  0.97230  0.47110  1.0000 -0.1678560547
C   C92       1.0  0.38540  0.02380  0.44880  1.0000 0.0721346993
C   C93       1.0  0.53800  0.97590  0.84900  1.0000 0.4789391734
C   C94       1.0  0.46200  0.47590  0.15100  1.0000 0.4789391734
S   S1        1.0  0.49480  0.04323  0.86330  1.0000 0.9932664015
S   S2        1.0  0.50520  0.54323  0.13670  1.0000 0.9932664015
N   N1        1.0  0.54610  0.68750  0.28310  1.0000 -0.2427040212
N   N2        1.0  0.04830  0.59540  0.66870  1.0000 -0.2652284227
N   N3        1.0  0.04400  0.59360  0.29150  1.0000 -0.2614117585
N   N4        1.0  0.88060  0.01890  0.51660  1.0000 -0.2427040212
N   N5        1.0  0.62550  0.75920  0.48460  1.0000 -0.2427040212
N   N6        1.0  0.53700  0.68070  0.66180  1.0000 -0.2427040212
N   N7        1.0  0.45390  0.18750  0.71690  1.0000 -0.2427040212
N   N8        1.0  0.95170  0.09540  0.33130  1.0000 -0.2652284227
N   N9        1.0  0.95600  0.09360  0.70850  1.0000 -0.2614117585
N   N10       1.0  0.11940  0.51890  0.48340  1.0000 -0.2427040212
N   N11       1.0  0.37450  0.25920  0.51540  1.0000 -0.2427040212
N   N12       1.0  0.46300  0.18070  0.33820  1.0000 -0.2427040212
O   O1        1.0  0.35310  0.70480  0.46890  1.0000 -0.5521198056
O   O2        1.0  0.85380  0.57460  0.48120  1.0000 -0.5521198056
O   O3        1.0  0.23260  0.63090  0.48140  1.0000 -0.5521198056
O   O4        1.0  0.73430  0.64850  0.48680  1.0000 -0.5596832059
O   O5        1.0  0.00900  0.68180  0.48080  1.0000 -0.4987859152
O   O6        1.0  0.51270  0.59710  0.44910  1.0000 -0.4924022428
O   O7        1.0  0.64690  0.20480  0.53110  1.0000 -0.5521198056
O   O8        1.0  0.14620  0.07460  0.51880  1.0000 -0.5521198056
O   O9        1.0  0.76740  0.13090  0.51860  1.0000 -0.5521198056
O   O10       1.0  0.26570  0.14850  0.51320  1.0000 -0.5596832059
O   O11       1.0  0.99100  0.18180  0.51920  1.0000 -0.4987859152
O   O12       1.0  0.48730  0.09710  0.55090  1.0000 -0.4924022428
O   O13       1.0  0.35550  0.04260  0.84950  1.0000 -0.5521198056
O   O14       1.0  0.56120  0.06770  0.76750  1.0000 -0.5687023423
O   O15       1.0  0.54220  0.05730  0.97600  1.0000 -0.5521198056
O   O16       1.0  0.64450  0.54260  0.15050  1.0000 -0.5521198056
O   O17       1.0  0.43880  0.56770  0.23250  1.0000 -0.5687023423
O   O18       1.0  0.45780  0.55730  0.02400  1.0000 -0.5521198056
F   F1        1.0  0.66667  0.96870  0.85440  1.0000 -0.190989029
F   F2        1.0  0.48830  0.94710  0.93400  1.0000 -0.190989029
F   F3        1.0  0.49650  0.95640  0.74440  1.0000 -0.2012614164
F   F4        1.0  0.33333  0.46870  0.14560  1.0000 -0.190989029
F   F5        1.0  0.51170  0.44710  0.06600  1.0000 -0.190989029
F   F6        1.0  0.50350  0.45640  0.25560  1.0000 -0.2012614164
