# DDEC6 charges by PACMAN v1.1 (https://github.com/mtap-research/PACMAN-charge/)
data_2017[Ag][hcb]2[ION]3
_chemical_formula_sum              "Ag4 H84 C112 S4 N12 O36 F12"
_cell_length_a       13.9339
_cell_length_b       17.3299
_cell_length_c       17.6568
_cell_angle_alpha    60.3899
_cell_angle_beta     67.9708
_cell_angle_gamma    71.49

_symmetry_space_group_name_H-M    "P 1"
_symmetry_Int_Tables_number       1

loop_
  _symmetry_equiv_pos_as_xyz
  'x, y, z'

loop_
  _atom_site_type_symbol
  _atom_site_label
  _atom_site_symmetry_multiplicity
  _atom_site_fract_x
  _atom_site_fract_y
  _atom_site_fract_z
  _atom_site_occupancy
  _atom_site_charge
Ag  Ag1       1.0  0.93375  0.81599  0.69818  1.0000 0.3086804261
Ag  Ag2       1.0  0.06625  0.18401  0.30182  1.0000 0.3086804261
Ag  Ag3       1.0  0.54695  0.20402  0.78446  1.0000 0.2947947045
Ag  Ag4       1.0  0.45305  0.79598  0.21554  1.0000 0.2947947045
H   H1        1.0  0.86500  0.96250  0.52250  1.0000 0.1099612658
H   H2        1.0  0.85610  0.98720  0.38490  1.0000 0.1305072715
H   H3        1.0  0.96930  0.72370  0.44680  1.0000 0.1390330709
H   H4        1.0  0.97650  0.70600  0.58270  1.0000 0.1099612658
H   H5        1.0  0.94970  0.94060  0.14170  1.0000 0.1099612658
H   H6        1.0  0.82450  0.94670  0.17350  1.0000 0.1099612658
H   H7        1.0  0.79910  0.74700  0.90560  1.0000 0.1031139795
H   H8        1.0  0.75560  0.61660  0.03470  1.0000 0.1390330709
H   H9        1.0  0.97630  0.47380  0.90490  1.0000 0.1305072715
H   H10       1.0  0.01540  0.60890  0.78170  1.0000 0.1099612658
H   H11       1.0  0.87610  0.26750  0.16270  1.0000 0.1031139795
H   H12       1.0  0.75830  0.30190  0.15240  1.0000 0.1099612658
H   H13       1.0  0.86780  0.03370  0.60660  1.0000 0.1099612658
H   H14       1.0  0.82680  0.15860  0.63550  1.0000 0.1390330709
H   H15       1.0  0.87810  0.99200  0.88170  1.0000 0.1305072715
H   H16       1.0  0.91350  0.87290  0.84760  1.0000 0.1031139795
H   H17       1.0  0.90800  0.25740  0.82650  1.0000 0.1199516945
H   H18       1.0  0.78240  0.26700  0.86160  1.0000 0.1099612658
H   H19       1.0  0.87320  0.05550  0.00190  1.0000 0.1199516945
H   H20       1.0  0.86480  0.11480  0.20000  1.0000 0.1199516945
H   H21       1.0  0.83590  0.31480  0.95630  1.0000 0.1199516945
H   H22       1.0  0.13500  0.03750  0.47750  1.0000 0.1099612658
H   H23       1.0  0.14390  0.01280  0.61510  1.0000 0.1305072715
H   H24       1.0  0.03070  0.27630  0.55320  1.0000 0.1390330709
H   H25       1.0  0.02350  0.29400  0.41730  1.0000 0.1099612658
H   H26       1.0  0.05030  0.05940  0.85830  1.0000 0.1099612658
H   H27       1.0  0.17550  0.05330  0.82650  1.0000 0.1099612658
H   H28       1.0  0.20090  0.25300  0.09440  1.0000 0.1031139795
H   H29       1.0  0.24440  0.38340  0.96530  1.0000 0.1390330709
H   H30       1.0  0.02370  0.52620  0.09510  1.0000 0.1305072715
H   H31       1.0  0.98460  0.39110  0.21830  1.0000 0.1199516945
H   H32       1.0  0.12390  0.73250  0.83730  1.0000 0.1031139795
H   H33       1.0  0.24170  0.69810  0.84760  1.0000 0.1099612658
H   H34       1.0  0.13220  0.96630  0.39340  1.0000 0.1099612658
H   H35       1.0  0.17320  0.84140  0.36450  1.0000 0.1390330709
H   H36       1.0  0.12190  0.00800  0.11830  1.0000 0.1305072715
H   H37       1.0  0.08650  0.12710  0.15240  1.0000 0.1031139795
H   H38       1.0  0.09200  0.74260  0.17350  1.0000 0.1199516945
H   H39       1.0  0.21760  0.73300  0.13840  1.0000 0.1099612658
H   H40       1.0  0.12680  0.94450  0.99810  1.0000 0.1199516945
H   H41       1.0  0.13520  0.88520  0.80000  1.0000 0.1199516945
H   H42       1.0  0.16410  0.68520  0.04370  1.0000 0.1199516945
H   H43       1.0  0.63140  0.04670  0.96170  1.0000 0.1099612658
H   H44       1.0  0.64410  0.02290  0.09900  1.0000 0.1390330709
H   H45       1.0  0.52610  0.28650  0.03510  1.0000 0.1390330709
H   H46       1.0  0.51090  0.30030  0.90530  1.0000 0.1199516945
H   H47       1.0  0.68010  0.06560  0.30540  1.0000 0.1099612658
H   H48       1.0  0.55480  0.07240  0.34120  1.0000 0.1031139795
H   H49       1.0  0.58720  0.15150  0.62370  1.0000 0.1099612658
H   H50       1.0  0.62630  0.02950  0.59270  1.0000 0.1305072715
H   H51       1.0  0.65520  0.86790  0.84750  1.0000 0.1305072715
H   H52       1.0  0.61180  0.99530  0.87220  1.0000 0.1031139795
H   H53       1.0  0.71880  0.75100  0.62350  1.0000 0.1099612658
H   H54       1.0  0.59330  0.75900  0.65650  1.0000 0.1199516945
H   H55       1.0  0.69650  0.32100  0.61600  1.0000 0.1199516945
H   H56       1.0  0.71190  0.46720  0.50520  1.0000 0.1390330709
H   H57       1.0  0.41260  0.54660  0.62110  1.0000 0.1390330709
H   H58       1.0  0.40570  0.40120  0.73050  1.0000 0.1199516945
H   H59       1.0  0.75290  0.71800  0.32390  1.0000 0.1199516945
H   H60       1.0  0.63130  0.74020  0.32690  1.0000 0.1099612658
H   H61       1.0  0.67610  0.69830  0.52710  1.0000 0.1199516945
H   H62       1.0  0.62180  0.95990  0.48110  1.0000 0.1199516945
H   H63       1.0  0.64430  0.89530  0.28370  1.0000 0.1305072715
H   H64       1.0  0.36860  0.95330  0.03830  1.0000 0.1099612658
H   H65       1.0  0.35590  0.97710  0.90100  1.0000 0.1390330709
H   H66       1.0  0.47390  0.71350  0.96490  1.0000 0.1390330709
H   H67       1.0  0.48910  0.69970  0.09470  1.0000 0.1199516945
H   H68       1.0  0.31990  0.93440  0.69460  1.0000 0.1099612658
H   H69       1.0  0.44520  0.92760  0.65880  1.0000 0.1031139795
H   H70       1.0  0.41280  0.84850  0.37630  1.0000 0.1099612658
H   H71       1.0  0.37370  0.97050  0.40730  1.0000 0.1305072715
H   H72       1.0  0.34480  0.13210  0.15250  1.0000 0.1305072715
H   H73       1.0  0.38820  0.00470  0.12780  1.0000 0.1031139795
H   H74       1.0  0.28120  0.24900  0.37650  1.0000 0.1099612658
H   H75       1.0  0.40670  0.24100  0.34350  1.0000 0.1199516945
H   H76       1.0  0.30350  0.67900  0.38400  1.0000 0.1199516945
H   H77       1.0  0.28810  0.53280  0.49480  1.0000 0.1390330709
H   H78       1.0  0.58740  0.45340  0.37890  1.0000 0.1390330709
H   H79       1.0  0.59430  0.59880  0.26950  1.0000 0.1199516945
H   H80       1.0  0.24710  0.28200  0.67610  1.0000 0.1199516945
H   H81       1.0  0.36870  0.25980  0.67310  1.0000 0.1099612658
H   H82       1.0  0.32390  0.30170  0.47290  1.0000 0.1199516945
H   H83       1.0  0.37820  0.04010  0.51890  1.0000 0.1199516945
H   H84       1.0  0.35570  0.10470  0.71630  1.0000 0.1305072715
C   C1        1.0  0.88680  0.91330  0.50670  1.0000 0.0704506
C   C2        1.0  0.88040  0.92840  0.42510  1.0000 -0.1416502436
C   C3        1.0  0.90970  0.85750  0.40100  1.0000 -0.0085067639
C   C4        1.0  0.94700  0.77380  0.46120  1.0000 -0.1509831057
C   C5        1.0  0.95160  0.76400  0.54190  1.0000 0.0784058428
C   C6        1.0  0.90660  0.86760  0.31350  1.0000 0.4882874211
C   C7        1.0  0.88290  0.97120  0.16880  1.0000 -0.0733363824
C   C8        1.0  0.83550  0.69040  0.90570  1.0000 0.0784058428
C   C9        1.0  0.80800  0.61320  0.98260  1.0000 -0.1416502436
C   C10       1.0  0.85910  0.53120  0.98120  1.0000 0.00376438
C   C11       1.0  0.93800  0.52930  0.90650  1.0000 -0.1509831057
C   C12       1.0  0.96080  0.61030  0.83340  1.0000 0.0879188289
C   C13       1.0  0.82810  0.44710  0.06230  1.0000 0.505745854
C   C14       1.0  0.83300  0.29170  0.11970  1.0000 -0.0733363824
C   C15       1.0  0.86970  0.02580  0.66330  1.0000 0.0784058428
C   C16       1.0  0.84600  0.10030  0.67960  1.0000 -0.1509831057
C   C17       1.0  0.85070  0.08880  0.76170  1.0000 -0.0023629586
C   C18       1.0  0.87570  0.00220  0.82430  1.0000 -0.1582795495
C   C19       1.0  0.89680  0.93200  0.80360  1.0000 0.0784058428
C   C20       1.0  0.83230  0.17020  0.77770  1.0000 0.5006193777
C   C21       1.0  0.84890  0.22470  0.86990  1.0000 -0.0733363824
C   C22       1.0  0.85500  0.19020  0.96420  1.0000 0.1099612658
C   C23       1.0  0.86730  0.09870  0.02230  1.0000 -0.2299989613
C   C24       1.0  0.87090  0.07040  0.11050  1.0000 0.1099612658
C   C25       1.0  0.86210  0.13390  0.14020  1.0000 -0.220385308
C   C26       1.0  0.84940  0.22570  0.08250  1.0000 0.1199516945
C   C27       1.0  0.84540  0.25250  0.99540  1.0000 -0.2120786696
C   C28       1.0  0.31550  0.77510  0.61730  1.0000 0.4882874211
C   C29       1.0  0.11320  0.08670  0.49330  1.0000 0.0704506
C   C30       1.0  0.11960  0.07160  0.57490  1.0000 -0.1416502436
C   C31       1.0  0.09030  0.14250  0.59900  1.0000 -0.0085067639
C   C32       1.0  0.05300  0.22620  0.53880  1.0000 -0.1509831057
C   C33       1.0  0.04840  0.23600  0.45810  1.0000 0.0784058428
C   C34       1.0  0.09340  0.13240  0.68650  1.0000 0.4882874211
C   C35       1.0  0.11710  0.02880  0.83120  1.0000 -0.0733363824
C   C36       1.0  0.16450  0.30960  0.09430  1.0000 0.0784058428
C   C37       1.0  0.19200  0.38680  0.01740  1.0000 -0.1416502436
C   C38       1.0  0.14090  0.46880  0.01880  1.0000 0.00376438
C   C39       1.0  0.06200  0.47070  0.09350  1.0000 -0.1509831057
C   C40       1.0  0.03920  0.38970  0.16660  1.0000 0.0879188289
C   C41       1.0  0.17190  0.55290  0.93770  1.0000 0.505745854
C   C42       1.0  0.16700  0.70830  0.88030  1.0000 -0.0733363824
C   C43       1.0  0.13030  0.97420  0.33670  1.0000 0.0784058428
C   C44       1.0  0.15400  0.89970  0.32040  1.0000 -0.1509831057
C   C45       1.0  0.14930  0.91120  0.23830  1.0000 -0.0023629586
C   C46       1.0  0.12430  0.99780  0.17570  1.0000 -0.1582795495
C   C47       1.0  0.10320  0.06800  0.19640  1.0000 0.0784058428
C   C48       1.0  0.16770  0.82980  0.22230  1.0000 0.5006193777
C   C49       1.0  0.15110  0.77530  0.13010  1.0000 -0.0733363824
C   C50       1.0  0.14500  0.80980  0.03580  1.0000 0.1099612658
C   C51       1.0  0.13270  0.90130  0.97770  1.0000 -0.2299989613
C   C52       1.0  0.12910  0.92960  0.88950  1.0000 0.1099612658
C   C53       1.0  0.13790  0.86610  0.85980  1.0000 -0.220385308
C   C54       1.0  0.15060  0.77430  0.91750  1.0000 0.1199516945
C   C55       1.0  0.15460  0.74750  0.00460  1.0000 -0.2120786696
C   C56       1.0  0.68450  0.22490  0.38270  1.0000 0.4882874211
C   C57       1.0  0.60870  0.09570  0.97780  1.0000 0.0784058428
C   C58       1.0  0.61770  0.08120  0.05930  1.0000 -0.1509831057
C   C59       1.0  0.58760  0.15270  0.08240  1.0000 -0.0023629586
C   C60       1.0  0.54760  0.23570  0.02200  1.0000 -0.1416502436
C   C61       1.0  0.53960  0.24320  0.94500  1.0000 0.0784058428
C   C62       1.0  0.59300  0.14250  0.16930  1.0000 0.4882874211
C   C63       1.0  0.62000  0.04130  0.31290  1.0000 -0.0733363824
C   C64       1.0  0.60000  0.09300  0.66990  1.0000 0.0784058428
C   C65       1.0  0.62340  0.02090  0.65100  1.0000 -0.1509831057
C   C66       1.0  0.64300  0.93470  0.71720  1.0000 -0.0165941289
C   C67       1.0  0.64010  0.92550  0.80100  1.0000 -0.1509831057
C   C68       1.0  0.61480  0.00180  0.81470  1.0000 0.0704506
C   C69       1.0  0.66360  0.85210  0.70460  1.0000 0.4882874211
C   C70       1.0  0.65210  0.79230  0.61370  1.0000 -0.0756543765
C   C71       1.0  0.63860  0.36800  0.61750  1.0000 0.1031139795
C   C72       1.0  0.64800  0.45470  0.55110  1.0000 -0.1509831057
C   C73       1.0  0.56380  0.52240  0.55240  1.0000 -0.0023629586
C   C74       1.0  0.47250  0.50140  0.61950  1.0000 -0.1509831057
C   C75       1.0  0.46870  0.41490  0.68380  1.0000 0.0704506
C   C76       1.0  0.56920  0.61730  0.47990  1.0000 0.5006193777
C   C77       1.0  0.68070  0.71990  0.36380  1.0000 -0.0733363824
C   C78       1.0  0.66220  0.78610  0.40070  1.0000 0.1099612658
C   C79       1.0  0.66420  0.76040  0.48780  1.0000 -0.2120786696
C   C80       1.0  0.64890  0.82480  0.51860  1.0000 0.1099612658
C   C81       1.0  0.63270  0.91580  0.46040  1.0000 -0.220385308
C   C82       1.0  0.63230  0.94230  0.37220  1.0000 0.1099612658
C   C83       1.0  0.64600  0.87730  0.34360  1.0000 -0.2011510471
C   C84       1.0  0.39130  0.90430  0.02220  1.0000 0.0784058428
C   C85       1.0  0.38230  0.91880  0.94070  1.0000 -0.1509831057
C   C86       1.0  0.41240  0.84730  0.91760  1.0000 -0.0023629586
C   C87       1.0  0.45240  0.76430  0.97800  1.0000 -0.1416502436
C   C88       1.0  0.46040  0.75680  0.05500  1.0000 0.0704506
C   C89       1.0  0.40700  0.85750  0.83070  1.0000 0.4882874211
C   C90       1.0  0.38000  0.95870  0.68710  1.0000 -0.0733363824
C   C91       1.0  0.40000  0.90700  0.33010  1.0000 0.0784058428
C   C92       1.0  0.37660  0.97910  0.34900  1.0000 -0.1509831057
C   C93       1.0  0.35700  0.06530  0.28280  1.0000 -0.0165941289
C   C94       1.0  0.35990  0.07450  0.19900  1.0000 -0.1509831057
C   C95       1.0  0.38520  0.99820  0.18530  1.0000 0.0704506
C   C96       1.0  0.33640  0.14790  0.29540  1.0000 0.4882874211
C   C97       1.0  0.34790  0.20770  0.38630  1.0000 -0.0756543765
C   C98       1.0  0.36140  0.63200  0.38250  1.0000 0.1031139795
C   C99       1.0  0.35200  0.54530  0.44890  1.0000 -0.1509831057
C   C100      1.0  0.43620  0.47760  0.44760  1.0000 -0.0023629586
C   C101      1.0  0.52750  0.49860  0.38050  1.0000 -0.1509831057
C   C102      1.0  0.53130  0.58510  0.31620  1.0000 0.0704506
C   C103      1.0  0.43080  0.38270  0.52010  1.0000 0.5006193777
C   C104      1.0  0.31930  0.28010  0.63620  1.0000 -0.0733363824
C   C105      1.0  0.33780  0.21390  0.59930  1.0000 0.1099612658
C   C106      1.0  0.33580  0.23960  0.51220  1.0000 -0.2120786696
C   C107      1.0  0.35110  0.17520  0.48140  1.0000 0.1099612658
C   C108      1.0  0.36730  0.08420  0.53960  1.0000 -0.220385308
C   C109      1.0  0.36770  0.05770  0.62780  1.0000 0.1099612658
C   C110      1.0  0.35400  0.12270  0.65640  1.0000 -0.2011510471
C   C111      1.0  0.83870  0.78910  0.08140  1.0000 0.4882874211
C   C112      1.0  0.16130  0.21090  0.91860  1.0000 0.4882874211
S   S1        1.0  0.19762  0.79097  0.58961  1.0000 0.979915317
S   S2        1.0  0.80238  0.20903  0.41039  1.0000 0.979915317
S   S3        1.0  0.70211  0.81095  0.08500  1.0000 0.9675364157
S   S4        1.0  0.29789  0.18905  0.91500  1.0000 0.9675364157
N   N1        1.0  0.92290  0.83150  0.56620  1.0000 -0.1909046473
N   N2        1.0  0.90940  0.68970  0.83250  1.0000 -0.1909046473
N   N3        1.0  0.89530  0.94210  0.72390  1.0000 -0.2120786696
N   N4        1.0  0.07710  0.16850  0.43380  1.0000 -0.1909046473
N   N5        1.0  0.09060  0.31030  0.16750  1.0000 -0.1909046473
N   N6        1.0  0.10470  0.05790  0.27610  1.0000 -0.2120786696
N   N7        1.0  0.56930  0.17550  0.92060  1.0000 -0.1909046473
N   N8        1.0  0.59420  0.08520  0.75090  1.0000 -0.1909046473
N   N9        1.0  0.55070  0.34850  0.68340  1.0000 -0.1783894439
N   N10       1.0  0.43070  0.82450  0.07940  1.0000 -0.1909046473
N   N11       1.0  0.40580  0.91480  0.24910  1.0000 -0.1909046473
N   N12       1.0  0.44930  0.65150  0.31660  1.0000 -0.1783894439
O   O1        1.0  0.92640  0.80650  0.29330  1.0000 -0.436591808
O   O2        1.0  0.88210  0.95510  0.25720  1.0000 -0.2120786696
O   O3        1.0  0.77370  0.44560  0.13500  1.0000 -0.4688781092
O   O4        1.0  0.86310  0.37550  0.04540  1.0000 -0.2299989613
O   O5        1.0  0.80520  0.24630  0.72530  1.0000 -0.4886743466
O   O6        1.0  0.85360  0.14950  0.85340  1.0000 -0.2120786696
O   O7        1.0  0.12570  0.75060  0.67420  1.0000 -0.551378721
O   O8        1.0  0.17290  0.88390  0.54160  1.0000 -0.551378721
O   O9        1.0  0.22740  0.74510  0.53270  1.0000 -0.551378721
O   O10       1.0  0.07360  0.19350  0.70670  1.0000 -0.436591808
O   O11       1.0  0.11790  0.04490  0.74280  1.0000 -0.220385308
O   O12       1.0  0.22630  0.55440  0.86500  1.0000 -0.4688781092
O   O13       1.0  0.13690  0.62450  0.95460  1.0000 -0.2299989613
O   O14       1.0  0.19480  0.75370  0.27470  1.0000 -0.4886743466
O   O15       1.0  0.14640  0.85050  0.14660  1.0000 -0.2120786696
O   O16       1.0  0.87430  0.24940  0.32580  1.0000 -0.551378721
O   O17       1.0  0.82710  0.11610  0.45840  1.0000 -0.551378721
O   O18       1.0  0.77260  0.25490  0.46730  1.0000 -0.551378721
O   O19       1.0  0.57640  0.20480  0.18800  1.0000 -0.4479391242
O   O20       1.0  0.61570  0.05700  0.22550  1.0000 -0.2120786696
O   O21       1.0  0.69460  0.77790  0.75620  1.0000 -0.4688781092
O   O22       1.0  0.64370  0.86920  0.62930  1.0000 -0.2120786696
O   O23       1.0  0.49290  0.67430  0.46680  1.0000 -0.4479391242
O   O24       1.0  0.66720  0.63020  0.43430  1.0000 -0.2120786696
O   O25       1.0  0.42360  0.79520  0.81200  1.0000 -0.4479391242
O   O26       1.0  0.38430  0.94300  0.77450  1.0000 -0.2120786696
O   O27       1.0  0.30540  0.22210  0.24380  1.0000 -0.4688781092
O   O28       1.0  0.35630  0.13080  0.37070  1.0000 -0.2120786696
O   O29       1.0  0.50710  0.32570  0.53320  1.0000 -0.4479391242
O   O30       1.0  0.33280  0.36980  0.56570  1.0000 -0.2120786696
O   O31       1.0  0.70160  0.86310  0.99300  1.0000 -0.5607943872
O   O32       1.0  0.67780  0.72270  0.12490  1.0000 -0.5607943872
O   O33       1.0  0.65110  0.85720  0.14170  1.0000 -0.5717128555
O   O34       1.0  0.29840  0.13690  0.00700  1.0000 -0.5607943872
O   O35       1.0  0.32220  0.27730  0.87510  1.0000 -0.5607943872
O   O36       1.0  0.34890  0.14280  0.85830  1.0000 -0.5717128555
F   F1        1.0  0.29560  0.81140  0.67390  1.0000 -0.1783894439
F   F2        1.0  0.39120  0.81060  0.54760  1.0000 -0.1713986238
F   F3        1.0  0.35100  0.68950  0.66190  1.0000 -0.1582795495
F   F4        1.0  0.70440  0.18860  0.32610  1.0000 -0.1783894439
F   F5        1.0  0.60880  0.18940  0.45240  1.0000 -0.1713986238
F   F6        1.0  0.64900  0.31050  0.33810  1.0000 -0.1582795495
F   F7        1.0  0.89870  0.74950  0.02930  1.0000 -0.1713986238
F   F8        1.0  0.87460  0.86630  0.04560  1.0000 -0.1783894439
F   F9        1.0  0.85730  0.74150  0.16160  1.0000 -0.1713986238
F   F10       1.0  0.10130  0.25050  0.97070  1.0000 -0.1713986238
F   F11       1.0  0.12540  0.13370  0.95440  1.0000 -0.1783894439
F   F12       1.0  0.14270  0.25850  0.83840  1.0000 -0.1713986238
