# DDEC6 charges by PACMAN v1.1 (https://github.com/mtap-research/PACMAN-charge/)
data_2017[Ag][srs]3[ION]15
_chemical_formula_sum              "Ag6 H108 C144 Br12 N40 Cl6 O24"
_cell_length_a       18.4294
_cell_length_b       18.4294
_cell_length_c       18.4294
_cell_angle_alpha    109.471
_cell_angle_beta     109.471
_cell_angle_gamma    109.471

_symmetry_space_group_name_H-M    "P 1"
_symmetry_Int_Tables_number       1

loop_
  _symmetry_equiv_pos_as_xyz
  'x, y, z'

loop_
  _atom_site_type_symbol
  _atom_site_label
  _atom_site_symmetry_multiplicity
  _atom_site_fract_x
  _atom_site_fract_y
  _atom_site_fract_z
  _atom_site_occupancy
  _atom_site_charge
Ag  Ag1       1.0  0.75000  0.28697  0.53697  1.0000 0.2941402685
Ag  Ag2       1.0  0.25000  0.21303  0.96303  1.0000 0.2941402685
Ag  Ag3       1.0  0.21303  0.96303  0.25000  1.0000 0.2941402685
Ag  Ag4       1.0  0.28697  0.53697  0.75000  1.0000 0.2941402685
Ag  Ag5       1.0  0.53697  0.75000  0.28697  1.0000 0.2941402685
Ag  Ag6       1.0  0.96303  0.25000  0.21303  1.0000 0.2941402685
H   H1        1.0  0.59360  0.55240  0.69700  1.0000 0.1281336736
H   H2        1.0  0.63190  0.46110  0.74100  1.0000 0.1281336736
H   H3        1.0  0.60720  0.32550  0.50530  1.0000 0.110119215
H   H4        1.0  0.56230  0.41260  0.45750  1.0000 0.1281336736
H   H5        1.0  0.65210  0.33540  0.71390  1.0000 0.1158876889
H   H6        1.0  0.71050  0.11480  0.70290  1.0000 0.1566216987
H   H7        1.0  0.78720  0.04330  0.67030  1.0000 0.110119215
H   H8        1.0  0.85440  0.06990  0.58870  1.0000 0.1281336736
H   H9        1.0  0.68100  0.23020  0.70420  1.0000 0.28428019
H   H10       1.0  0.35540  0.89660  0.80300  1.0000 0.1281336736
H   H11       1.0  0.22010  0.89090  0.75900  1.0000 0.1281336736
H   H12       1.0  0.32020  0.10190  0.99470  1.0000 0.110119215
H   H13       1.0  0.45510  0.10480  0.04250  1.0000 0.1281336736
H   H14       1.0  0.12150  0.93820  0.78610  1.0000 0.1158876889
H   H15       1.0  0.91190  0.00760  0.79710  1.0000 0.1566216987
H   H16       1.0  0.87300  0.11690  0.82970  1.0000 0.110119215
H   H17       1.0  0.98120  0.26570  0.91130  1.0000 0.1281336736
H   H18       1.0  0.02600  0.97680  0.79580  1.0000 0.28428019
H   H19       1.0  0.90640  0.60340  0.95880  1.0000 0.1281336736
H   H20       1.0  0.86810  0.60910  0.82920  1.0000 0.1281336736
H   H21       1.0  0.89280  0.39810  0.71830  1.0000 0.110119215
H   H22       1.0  0.93770  0.39520  0.85030  1.0000 0.1281336736
H   H23       1.0  0.84790  0.56180  0.68330  1.0000 0.1158876889
H   H24       1.0  0.78950  0.49240  0.40430  1.0000 0.1566216987
H   H25       1.0  0.71280  0.38310  0.25610  1.0000 0.110119215
H   H26       1.0  0.64560  0.23430  0.21550  1.0000 0.1281336736
H   H27       1.0  0.81900  0.52320  0.54920  1.0000 0.28428019
H   H28       1.0  0.14460  0.94760  0.54120  1.0000 0.1281336736
H   H29       1.0  0.27990  0.03890  0.67080  1.0000 0.1281336736
H   H30       1.0  0.17980  0.17450  0.78170  1.0000 0.110119215
H   H31       1.0  0.04490  0.08740  0.64970  1.0000 0.1281336736
H   H32       1.0  0.37850  0.16460  0.81670  1.0000 0.1158876889
H   H33       1.0  0.58810  0.38520  0.09570  1.0000 0.1566216987
H   H34       1.0  0.62700  0.45670  0.24390  1.0000 0.110119215
H   H35       1.0  0.51880  0.43010  0.28450  1.0000 0.1281336736
H   H36       1.0  0.47400  0.26980  0.95080  1.0000 0.28428019
H   H37       1.0  0.94760  0.54120  0.14460  1.0000 0.1281336736
H   H38       1.0  0.03890  0.67080  0.27990  1.0000 0.1281336736
H   H39       1.0  0.17450  0.78170  0.17980  1.0000 0.110119215
H   H40       1.0  0.08740  0.64970  0.04490  1.0000 0.1281336736
H   H41       1.0  0.16460  0.81670  0.37850  1.0000 0.1158876889
H   H42       1.0  0.38520  0.09570  0.58810  1.0000 0.1566216987
H   H43       1.0  0.45670  0.24390  0.62700  1.0000 0.110119215
H   H44       1.0  0.43010  0.28450  0.51880  1.0000 0.1281336736
H   H45       1.0  0.26980  0.95080  0.47400  1.0000 0.28428019
H   H46       1.0  0.60340  0.95880  0.90640  1.0000 0.1281336736
H   H47       1.0  0.60910  0.82920  0.86810  1.0000 0.1281336736
H   H48       1.0  0.39810  0.71830  0.89280  1.0000 0.110119215
H   H49       1.0  0.39520  0.85030  0.93770  1.0000 0.1281336736
H   H50       1.0  0.56180  0.68330  0.84790  1.0000 0.1158876889
H   H51       1.0  0.49240  0.40430  0.78950  1.0000 0.1566216987
H   H52       1.0  0.38310  0.25610  0.71280  1.0000 0.110119215
H   H53       1.0  0.23430  0.21550  0.64560  1.0000 0.1281336736
H   H54       1.0  0.52320  0.54920  0.81900  1.0000 0.28428019
H   H55       1.0  0.89660  0.80300  0.35540  1.0000 0.1281336736
H   H56       1.0  0.89090  0.75900  0.22010  1.0000 0.1281336736
H   H57       1.0  0.10190  0.99470  0.32020  1.0000 0.110119215
H   H58       1.0  0.10480  0.04250  0.45510  1.0000 0.1281336736
H   H59       1.0  0.93820  0.78610  0.12150  1.0000 0.1158876889
H   H60       1.0  0.00760  0.79710  0.91190  1.0000 0.1566216987
H   H61       1.0  0.11690  0.82970  0.87300  1.0000 0.110119215
H   H62       1.0  0.26570  0.91130  0.98120  1.0000 0.1281336736
H   H63       1.0  0.97680  0.79580  0.02600  1.0000 0.28428019
H   H64       1.0  0.55240  0.69700  0.59360  1.0000 0.1281336736
H   H65       1.0  0.46110  0.74100  0.63190  1.0000 0.1281336736
H   H66       1.0  0.32550  0.50530  0.60720  1.0000 0.110119215
H   H67       1.0  0.41260  0.45750  0.56230  1.0000 0.1281336736
H   H68       1.0  0.33540  0.71390  0.65210  1.0000 0.1158876889
H   H69       1.0  0.11480  0.70290  0.71050  1.0000 0.1566216987
H   H70       1.0  0.04330  0.67030  0.78720  1.0000 0.110119215
H   H71       1.0  0.06990  0.58870  0.85440  1.0000 0.1281336736
H   H72       1.0  0.23020  0.70420  0.68100  1.0000 0.28428019
H   H73       1.0  0.95880  0.90640  0.60340  1.0000 0.1281336736
H   H74       1.0  0.82920  0.86810  0.60910  1.0000 0.1281336736
H   H75       1.0  0.71830  0.89280  0.39810  1.0000 0.110119215
H   H76       1.0  0.85030  0.93770  0.39520  1.0000 0.1281336736
H   H77       1.0  0.68330  0.84790  0.56180  1.0000 0.1158876889
H   H78       1.0  0.40430  0.78950  0.49240  1.0000 0.1566216987
H   H79       1.0  0.25610  0.71280  0.38310  1.0000 0.110119215
H   H80       1.0  0.21550  0.64560  0.23430  1.0000 0.1281336736
H   H81       1.0  0.54920  0.81900  0.52320  1.0000 0.28428019
H   H82       1.0  0.54120  0.14460  0.94760  1.0000 0.1281336736
H   H83       1.0  0.67080  0.27990  0.03890  1.0000 0.1281336736
H   H84       1.0  0.78170  0.17980  0.17450  1.0000 0.110119215
H   H85       1.0  0.64970  0.04490  0.08740  1.0000 0.1281336736
H   H86       1.0  0.81670  0.37850  0.16460  1.0000 0.1158876889
H   H87       1.0  0.09570  0.58810  0.38520  1.0000 0.1566216987
H   H88       1.0  0.24390  0.62700  0.45670  1.0000 0.110119215
H   H89       1.0  0.28450  0.51880  0.43010  1.0000 0.1281336736
H   H90       1.0  0.95080  0.47400  0.26980  1.0000 0.28428019
H   H91       1.0  0.69700  0.59360  0.55240  1.0000 0.1281336736
H   H92       1.0  0.74100  0.63190  0.46110  1.0000 0.1281336736
H   H93       1.0  0.50530  0.60720  0.32550  1.0000 0.110119215
H   H94       1.0  0.45750  0.56230  0.41260  1.0000 0.1281336736
H   H95       1.0  0.71390  0.65210  0.33540  1.0000 0.1158876889
H   H96       1.0  0.70290  0.71050  0.11480  1.0000 0.1566216987
H   H97       1.0  0.67030  0.78720  0.04330  1.0000 0.110119215
H   H98       1.0  0.58870  0.85440  0.06990  1.0000 0.1281336736
H   H99       1.0  0.70420  0.68100  0.23020  1.0000 0.28428019
H   H100      1.0  0.80300  0.35540  0.89660  1.0000 0.1281336736
H   H101      1.0  0.75900  0.22010  0.89090  1.0000 0.1281336736
H   H102      1.0  0.99470  0.32020  0.10190  1.0000 0.110119215
H   H103      1.0  0.04250  0.45510  0.10480  1.0000 0.1281336736
H   H104      1.0  0.78610  0.12150  0.93820  1.0000 0.1158876889
H   H105      1.0  0.79710  0.91190  0.00760  1.0000 0.1566216987
H   H106      1.0  0.82970  0.87300  0.11690  1.0000 0.110119215
H   H107      1.0  0.91130  0.98120  0.26570  1.0000 0.1281336736
H   H108      1.0  0.79580  0.02600  0.97680  1.0000 0.28428019
C   C1        1.0  0.57190  0.49010  0.57200  1.0000 0.1695957101
C   C2        1.0  0.59490  0.50560  0.65730  1.0000 -0.1794827688
C   C3        1.0  0.61950  0.45220  0.68390  1.0000 -0.1182171758
C   C4        1.0  0.62680  0.38620  0.62940  1.0000 0.059178364
C   C5        1.0  0.60410  0.37120  0.54410  1.0000 -0.1365335741
C   C6        1.0  0.57710  0.42310  0.51540  1.0000 -0.1895944286
C   C7        1.0  0.65380  0.33240  0.66260  1.0000 -0.0070122015
C   C8        1.0  0.73760  0.18750  0.64190  1.0000 0.3507536145
C   C9        1.0  0.73910  0.12610  0.67100  1.0000 -0.2332192394
C   C10       1.0  0.78370  0.08360  0.65070  1.0000 -0.0009230876
C   C11       1.0  0.82360  0.09900  0.60260  1.0000 -0.2196402508
C   C12       1.0  0.81710  0.15790  0.57560  1.0000 0.2269824971
C   C13       1.0  0.41810  0.99990  0.92800  1.0000 0.1695957101
C   C14       1.0  0.34830  0.93760  0.84270  1.0000 -0.1794827688
C   C15       1.0  0.26830  0.93560  0.81610  1.0000 -0.1182171758
C   C16       1.0  0.25680  0.99740  0.87060  1.0000 0.059178364
C   C17       1.0  0.32710  0.06000  0.95590  1.0000 -0.1365335741
C   C18       1.0  0.40770  0.06170  0.98460  1.0000 -0.1895944286
C   C19       1.0  0.16980  0.99120  0.83740  1.0000 -0.0070122015
C   C20       1.0  0.04560  0.09570  0.85810  1.0000 0.3507536145
C   C21       1.0  0.95510  0.06810  0.82900  1.0000 -0.2332192394
C   C22       1.0  0.93290  0.13300  0.84930  1.0000 -0.0009230876
C   C23       1.0  0.99640  0.22100  0.89740  1.0000 -0.2196402508
C   C24       1.0  0.08230  0.24150  0.92440  1.0000 0.2269824971
C   C25       1.0  0.92810  0.50010  0.91820  1.0000 0.1695957101
C   C26       1.0  0.90510  0.56240  0.91070  1.0000 -0.1794827688
C   C27       1.0  0.88050  0.56440  0.83270  1.0000 -0.1182171758
C   C28       1.0  0.87320  0.50260  0.75940  1.0000 0.059178364
C   C29       1.0  0.89590  0.44000  0.76710  1.0000 -0.1365335741
C   C30       1.0  0.92290  0.43830  0.84600  1.0000 -0.1895944286
C   C31       1.0  0.84620  0.50880  0.67860  1.0000 -0.0070122015
C   C32       1.0  0.76240  0.40430  0.44990  1.0000 0.3507536145
C   C33       1.0  0.76090  0.43190  0.38700  1.0000 -0.2332192394
C   C34       1.0  0.71630  0.36700  0.29990  1.0000 -0.0009230876
C   C35       1.0  0.67640  0.27900  0.27540  1.0000 -0.2196402508
C   C36       1.0  0.68290  0.25850  0.34080  1.0000 0.2269824971
C   C37       1.0  0.08190  0.00990  0.58180  1.0000 0.1695957101
C   C38       1.0  0.15170  0.99440  0.58930  1.0000 -0.1794827688
C   C39       1.0  0.23170  0.04780  0.66730  1.0000 -0.1182171758
C   C40       1.0  0.24320  0.11380  0.74060  1.0000 0.059178364
C   C41       1.0  0.17290  0.12880  0.73290  1.0000 -0.1365335741
C   C42       1.0  0.09230  0.07690  0.65400  1.0000 -0.1895944286
C   C43       1.0  0.33020  0.16760  0.82140  1.0000 -0.0070122015
C   C44       1.0  0.45440  0.31250  0.05010  1.0000 0.3507536145
C   C45       1.0  0.54490  0.37390  0.11300  1.0000 -0.2332192394
C   C46       1.0  0.56710  0.41640  0.20010  1.0000 -0.0009230876
C   C47       1.0  0.50360  0.40100  0.22460  1.0000 -0.2196402508
C   C48       1.0  0.41770  0.34210  0.15920  1.0000 0.2269824971
C   C49       1.0  0.00990  0.58180  0.08190  1.0000 0.1695957101
C   C50       1.0  0.99440  0.58930  0.15170  1.0000 -0.1794827688
C   C51       1.0  0.04780  0.66730  0.23170  1.0000 -0.1182171758
C   C52       1.0  0.11380  0.74060  0.24320  1.0000 0.059178364
C   C53       1.0  0.12880  0.73290  0.17290  1.0000 -0.1365335741
C   C54       1.0  0.07690  0.65400  0.09230  1.0000 -0.1895944286
C   C55       1.0  0.16760  0.82140  0.33020  1.0000 -0.0070122015
C   C56       1.0  0.31250  0.05010  0.45440  1.0000 0.3507536145
C   C57       1.0  0.37390  0.11300  0.54490  1.0000 -0.2332192394
C   C58       1.0  0.41640  0.20010  0.56710  1.0000 -0.0009230876
C   C59       1.0  0.40100  0.22460  0.50360  1.0000 -0.2196402508
C   C60       1.0  0.34210  0.15920  0.41770  1.0000 0.2269824971
C   C61       1.0  0.50010  0.91820  0.92810  1.0000 0.1695957101
C   C62       1.0  0.56240  0.91070  0.90510  1.0000 -0.1794827688
C   C63       1.0  0.56440  0.83270  0.88050  1.0000 -0.1182171758
C   C64       1.0  0.50260  0.75940  0.87320  1.0000 0.059178364
C   C65       1.0  0.44000  0.76710  0.89590  1.0000 -0.1365335741
C   C66       1.0  0.43830  0.84600  0.92290  1.0000 -0.1895944286
C   C67       1.0  0.50880  0.67860  0.84620  1.0000 -0.0070122015
C   C68       1.0  0.40430  0.44990  0.76240  1.0000 0.3507536145
C   C69       1.0  0.43190  0.38700  0.76090  1.0000 -0.2332192394
C   C70       1.0  0.36700  0.29990  0.71630  1.0000 -0.0009230876
C   C71       1.0  0.27900  0.27540  0.67640  1.0000 -0.2196402508
C   C72       1.0  0.25850  0.34080  0.68290  1.0000 0.2269824971
C   C73       1.0  0.99990  0.92800  0.41810  1.0000 0.1695957101
C   C74       1.0  0.93760  0.84270  0.34830  1.0000 -0.1794827688
C   C75       1.0  0.93560  0.81610  0.26830  1.0000 -0.1182171758
C   C76       1.0  0.99740  0.87060  0.25680  1.0000 0.059178364
C   C77       1.0  0.06000  0.95590  0.32710  1.0000 -0.1365335741
C   C78       1.0  0.06170  0.98460  0.40770  1.0000 -0.1895944286
C   C79       1.0  0.99120  0.83740  0.16980  1.0000 -0.0070122015
C   C80       1.0  0.09570  0.85810  0.04560  1.0000 0.3507536145
C   C81       1.0  0.06810  0.82900  0.95510  1.0000 -0.2332192394
C   C82       1.0  0.13300  0.84930  0.93290  1.0000 -0.0009230876
C   C83       1.0  0.22100  0.89740  0.99640  1.0000 -0.2196402508
C   C84       1.0  0.24150  0.92440  0.08230  1.0000 0.2269824971
C   C85       1.0  0.49010  0.57200  0.57190  1.0000 0.1695957101
C   C86       1.0  0.50560  0.65730  0.59490  1.0000 -0.1794827688
C   C87       1.0  0.45220  0.68390  0.61950  1.0000 -0.1182171758
C   C88       1.0  0.38620  0.62940  0.62680  1.0000 0.059178364
C   C89       1.0  0.37120  0.54410  0.60410  1.0000 -0.1365335741
C   C90       1.0  0.42310  0.51540  0.57710  1.0000 -0.1895944286
C   C91       1.0  0.33240  0.66260  0.65380  1.0000 -0.0070122015
C   C92       1.0  0.18750  0.64190  0.73760  1.0000 0.3507536145
C   C93       1.0  0.12610  0.67100  0.73910  1.0000 -0.2332192394
C   C94       1.0  0.08360  0.65070  0.78370  1.0000 -0.0009230876
C   C95       1.0  0.09900  0.60260  0.82360  1.0000 -0.2196402508
C   C96       1.0  0.15790  0.57560  0.81710  1.0000 0.2269824971
C   C97       1.0  0.91820  0.92810  0.50010  1.0000 0.1695957101
C   C98       1.0  0.91070  0.90510  0.56240  1.0000 -0.1794827688
C   C99       1.0  0.83270  0.88050  0.56440  1.0000 -0.1182171758
C   C100      1.0  0.75940  0.87320  0.50260  1.0000 0.059178364
C   C101      1.0  0.76710  0.89590  0.44000  1.0000 -0.1365335741
C   C102      1.0  0.84600  0.92290  0.43830  1.0000 -0.1895944286
C   C103      1.0  0.67860  0.84620  0.50880  1.0000 -0.0070122015
C   C104      1.0  0.44990  0.76240  0.40430  1.0000 0.3507536145
C   C105      1.0  0.38700  0.76090  0.43190  1.0000 -0.2332192394
C   C106      1.0  0.29990  0.71630  0.36700  1.0000 -0.0009230876
C   C107      1.0  0.27540  0.67640  0.27900  1.0000 -0.2196402508
C   C108      1.0  0.34080  0.68290  0.25850  1.0000 0.2269824971
C   C109      1.0  0.58180  0.08190  0.00990  1.0000 0.1695957101
C   C110      1.0  0.58930  0.15170  0.99440  1.0000 -0.1794827688
C   C111      1.0  0.66730  0.23170  0.04780  1.0000 -0.1182171758
C   C112      1.0  0.74060  0.24320  0.11380  1.0000 0.059178364
C   C113      1.0  0.73290  0.17290  0.12880  1.0000 -0.1365335741
C   C114      1.0  0.65400  0.09230  0.07690  1.0000 -0.1895944286
C   C115      1.0  0.82140  0.33020  0.16760  1.0000 -0.0070122015
C   C116      1.0  0.05010  0.45440  0.31250  1.0000 0.3507536145
C   C117      1.0  0.11300  0.54490  0.37390  1.0000 -0.2332192394
C   C118      1.0  0.20010  0.56710  0.41640  1.0000 -0.0009230876
C   C119      1.0  0.22460  0.50360  0.40100  1.0000 -0.2196402508
C   C120      1.0  0.15920  0.41770  0.34210  1.0000 0.2269824971
C   C121      1.0  0.57200  0.57190  0.49010  1.0000 0.1695957101
C   C122      1.0  0.65730  0.59490  0.50560  1.0000 -0.1794827688
C   C123      1.0  0.68390  0.61950  0.45220  1.0000 -0.1182171758
C   C124      1.0  0.62940  0.62680  0.38620  1.0000 0.059178364
C   C125      1.0  0.54410  0.60410  0.37120  1.0000 -0.1365335741
C   C126      1.0  0.51540  0.57710  0.42310  1.0000 -0.1895944286
C   C127      1.0  0.66260  0.65380  0.33240  1.0000 -0.0070122015
C   C128      1.0  0.64190  0.73760  0.18750  1.0000 0.3507536145
C   C129      1.0  0.67100  0.73910  0.12610  1.0000 -0.2332192394
C   C130      1.0  0.65070  0.78370  0.08360  1.0000 -0.0009230876
C   C131      1.0  0.60260  0.82360  0.09900  1.0000 -0.2196402508
C   C132      1.0  0.57560  0.81710  0.15790  1.0000 0.2269824971
C   C133      1.0  0.92800  0.41810  0.99990  1.0000 0.1695957101
C   C134      1.0  0.84270  0.34830  0.93760  1.0000 -0.1794827688
C   C135      1.0  0.81610  0.26830  0.93560  1.0000 -0.1182171758
C   C136      1.0  0.87060  0.25680  0.99740  1.0000 0.059178364
C   C137      1.0  0.95590  0.32710  0.06000  1.0000 -0.1365335741
C   C138      1.0  0.98460  0.40770  0.06170  1.0000 -0.1895944286
C   C139      1.0  0.83740  0.16980  0.99120  1.0000 -0.0070122015
C   C140      1.0  0.85810  0.04560  0.09570  1.0000 0.3507536145
C   C141      1.0  0.82900  0.95510  0.06810  1.0000 -0.2332192394
C   C142      1.0  0.84930  0.93290  0.13300  1.0000 -0.0009230876
C   C143      1.0  0.89740  0.99640  0.22100  1.0000 -0.2196402508
C   C144      1.0  0.92440  0.08230  0.24150  1.0000 0.2269824971
Br  Br1       1.0  0.86574  0.17929  0.50531  1.0000 -0.0885841134
Br  Br2       1.0  0.17398  0.36043  0.99469  1.0000 -0.0885841134
Br  Br3       1.0  0.63426  0.13957  0.31355  1.0000 -0.0885841134
Br  Br4       1.0  0.32602  0.32071  0.18645  1.0000 -0.0885841134
Br  Br5       1.0  0.32071  0.18645  0.32602  1.0000 -0.0885841134
Br  Br6       1.0  0.13957  0.31355  0.63426  1.0000 -0.0885841134
Br  Br7       1.0  0.36043  0.99469  0.17398  1.0000 -0.0885841134
Br  Br8       1.0  0.17929  0.50531  0.86574  1.0000 -0.0885841134
Br  Br9       1.0  0.31355  0.63426  0.13957  1.0000 -0.0885841134
Br  Br10      1.0  0.18645  0.32602  0.32071  1.0000 -0.0885841134
Br  Br11      1.0  0.50531  0.86574  0.17929  1.0000 -0.0885841134
Br  Br12      1.0  0.99469  0.17398  0.36043  1.0000 -0.0885841134
N   N1        1.0  0.67920  0.28240  0.62720  1.0000 -0.1182171758
N   N2        1.0  0.69650  0.23270  0.66500  1.0000 -0.1970621877
N   N3        1.0  0.77420  0.20170  0.59310  1.0000 -0.3213553883
N   N4        1.0  0.15520  0.05200  0.87280  1.0000 -0.1182171758
N   N5        1.0  0.06770  0.03150  0.83500  1.0000 -0.1970621877
N   N6        1.0  0.10860  0.18110  0.90690  1.0000 -0.3213553883
N   N7        1.0  0.82080  0.44800  0.60320  1.0000 -0.1182171758
N   N8        1.0  0.80350  0.46850  0.53620  1.0000 -0.1970621877
N   N9        1.0  0.72580  0.31890  0.42750  1.0000 -0.3213553883
N   N10       1.0  0.34480  0.21760  0.89680  1.0000 -0.1182171758
N   N11       1.0  0.43230  0.26730  0.96380  1.0000 -0.1970621877
N   N12       1.0  0.39140  0.29830  0.07250  1.0000 -0.3213553883
N   N13       1.0  0.21760  0.89680  0.34480  1.0000 -0.1182171758
N   N14       1.0  0.26730  0.96380  0.43230  1.0000 -0.1970621877
N   N15       1.0  0.29830  0.07250  0.39140  1.0000 -0.3213553883
N   N16       1.0  0.44800  0.60320  0.82080  1.0000 -0.1182171758
N   N17       1.0  0.46850  0.53620  0.80350  1.0000 -0.1970621877
N   N18       1.0  0.31890  0.42750  0.72580  1.0000 -0.3213553883
N   N19       1.0  0.05200  0.87280  0.15520  1.0000 -0.1182171758
N   N20       1.0  0.03150  0.83500  0.06770  1.0000 -0.1970621877
N   N21       1.0  0.18110  0.90690  0.10860  1.0000 -0.3213553883
N   N22       1.0  0.28240  0.62720  0.67920  1.0000 -0.1182171758
N   N23       1.0  0.23270  0.66500  0.69650  1.0000 -0.1970621877
N   N24       1.0  0.20170  0.59310  0.77420  1.0000 -0.3213553883
N   N25       1.0  0.60320  0.82080  0.44800  1.0000 -0.1182171758
N   N26       1.0  0.53620  0.80350  0.46850  1.0000 -0.1970621877
N   N27       1.0  0.42750  0.72580  0.31890  1.0000 -0.3213553883
N   N28       1.0  0.89680  0.34480  0.21760  1.0000 -0.1182171758
N   N29       1.0  0.96380  0.43230  0.26730  1.0000 -0.1970621877
N   N30       1.0  0.07250  0.39140  0.29830  1.0000 -0.3213553883
N   N31       1.0  0.62720  0.67920  0.28240  1.0000 -0.1182171758
N   N32       1.0  0.66500  0.69650  0.23270  1.0000 -0.1970621877
N   N33       1.0  0.59310  0.77420  0.20170  1.0000 -0.3213553883
N   N34       1.0  0.87280  0.15520  0.05200  1.0000 -0.1148145455
N   N35       1.0  0.83500  0.06770  0.03150  1.0000 -0.1970621877
N   N36       1.0  0.90690  0.10860  0.18110  1.0000 -0.3213553883
N   N37       1.0  0.54180  0.54180  0.54180  1.0000 -0.1637515049
N   N38       1.0  0.50000  1.00000  0.95820  1.0000 -0.1637515049
N   N39       1.0  0.95820  0.50000  0.00000  1.0000 -0.1637515049
N   N40       1.0  1.00000  0.95820  0.50000  1.0000 -0.1637515049
Cl  Cl1       1.0  0.75000  0.68667  0.93667  1.0000 1.2754192483
Cl  Cl2       1.0  0.25000  0.81333  0.56333  1.0000 1.2754192483
Cl  Cl3       1.0  0.93667  0.75000  0.68667  1.0000 1.2754192483
Cl  Cl4       1.0  0.56333  0.25000  0.81333  1.0000 1.2754192483
Cl  Cl5       1.0  0.81333  0.56333  0.25000  1.0000 1.2742620599
Cl  Cl6       1.0  0.68667  0.93667  0.75000  1.0000 1.2754192483
O   O1        1.0  0.77550  0.70050  0.02440  1.0000 -0.5083071697
O   O2        1.0  0.67470  0.59930  0.87600  1.0000 -0.5083071697
O   O3        1.0  0.72450  0.74890  0.92500  1.0000 -0.5083071697
O   O4        1.0  0.82530  0.70130  0.92460  1.0000 -0.5083071697
O   O5        1.0  0.32390  0.79950  0.57500  1.0000 -0.5083071697
O   O6        1.0  0.27670  0.90070  0.57540  1.0000 -0.5083071697
O   O7        1.0  0.17610  0.75110  0.47560  1.0000 -0.5083071697
O   O8        1.0  0.22330  0.79870  0.62400  1.0000 -0.5083071697
O   O9        1.0  0.92500  0.72450  0.74890  1.0000 -0.5083071697
O   O10       1.0  0.92460  0.82530  0.70130  1.0000 -0.5083071697
O   O11       1.0  0.02440  0.77550  0.70050  1.0000 -0.5083071697
O   O12       1.0  0.87600  0.67470  0.59930  1.0000 -0.5083071697
O   O13       1.0  0.47560  0.17610  0.75110  1.0000 -0.5083071697
O   O14       1.0  0.62400  0.22330  0.79870  1.0000 -0.5083071697
O   O15       1.0  0.57500  0.32390  0.79950  1.0000 -0.5083071697
O   O16       1.0  0.57540  0.27670  0.90070  1.0000 -0.5083071697
O   O17       1.0  0.79950  0.57500  0.32390  1.0000 -0.5083071697
O   O18       1.0  0.90070  0.57540  0.27670  1.0000 -0.5083071697
O   O19       1.0  0.75110  0.47560  0.17610  1.0000 -0.5083071697
O   O20       1.0  0.79870  0.62400  0.22330  1.0000 -0.5083071697
O   O21       1.0  0.70050  0.02440  0.77550  1.0000 -0.5083071697
O   O22       1.0  0.59930  0.87600  0.67470  1.0000 -0.5083071697
O   O23       1.0  0.74890  0.92500  0.72450  1.0000 -0.5083071697
O   O24       1.0  0.70130  0.92460  0.82530  1.0000 -0.5083071697
