# DDEC6 charges by PACMAN v1.1 (https://github.com/mtap-research/PACMAN-charge/)
data_2017[Ag][srs]3[ION]10
_chemical_formula_sum              "Ag6 H108 C144 Br12 N40 Cl6 O24"
_cell_length_a       18.3846
_cell_length_b       18.3846
_cell_length_c       18.3846
_cell_angle_alpha    109.471
_cell_angle_beta     109.471
_cell_angle_gamma    109.471

_symmetry_space_group_name_H-M    "P 1"
_symmetry_Int_Tables_number       1

loop_
  _symmetry_equiv_pos_as_xyz
  'x, y, z'

loop_
  _atom_site_type_symbol
  _atom_site_label
  _atom_site_symmetry_multiplicity
  _atom_site_fract_x
  _atom_site_fract_y
  _atom_site_fract_z
  _atom_site_occupancy
  _atom_site_charge
Ag  Ag1       1.0  0.75000  0.45976  0.70976  1.0000 0.2959675761
Ag  Ag2       1.0  0.25000  0.04024  0.79024  1.0000 0.2959675761
Ag  Ag3       1.0  0.04024  0.79024  0.25000  1.0000 0.2959675761
Ag  Ag4       1.0  0.45976  0.70976  0.75000  1.0000 0.2959675761
Ag  Ag5       1.0  0.70976  0.75000  0.45976  1.0000 0.2959675761
Ag  Ag6       1.0  0.79024  0.25000  0.04024  1.0000 0.2959675761
H   H1        1.0  0.97560  0.45320  0.76440  1.0000 0.2877739639
H   H2        1.0  0.68440  0.28090  0.67710  1.0000 0.1115746283
H   H3        1.0  0.54620  0.14970  0.58870  1.0000 0.1277343168
H   H4        1.0  0.88030  0.31640  0.66090  1.0000 0.1115746283
H   H5        1.0  0.77800  0.16830  0.53230  1.0000 0.1277343168
H   H6        1.0  0.64300  0.04090  0.44470  1.0000 0.1183915322
H   H7        1.0  0.09040  0.60090  0.88330  1.0000 0.1553623052
H   H8        1.0  0.12470  0.74300  0.95350  1.0000 0.1183915322
H   H9        1.0  0.02070  0.78320  0.93390  1.0000 0.1277343168
H   H10       1.0  0.18880  0.21120  0.73560  1.0000 0.2877739639
H   H11       1.0  0.10380  0.00730  0.82290  1.0000 0.1115746283
H   H12       1.0  0.06100  0.95750  0.91130  1.0000 0.1277343168
H   H13       1.0  0.15550  0.21940  0.83910  1.0000 0.1115746283
H   H14       1.0  0.13600  0.24570  0.96770  1.0000 0.1277343168
H   H15       1.0  0.09620  0.19830  0.05530  1.0000 0.1277343168
H   H16       1.0  0.21760  0.20710  0.61670  1.0000 0.1553623052
H   H17       1.0  0.28950  0.17120  0.54650  1.0000 0.1183915322
H   H18       1.0  0.34930  0.08680  0.56610  1.0000 0.1277343168
H   H19       1.0  0.52440  0.28880  0.47760  1.0000 0.2877739639
H   H20       1.0  0.81560  0.49270  0.59650  1.0000 0.1115746283
H   H21       1.0  0.95380  0.54250  0.60350  1.0000 0.1277343168
H   H22       1.0  0.61970  0.28060  0.43610  1.0000 0.1115746283
H   H23       1.0  0.72200  0.25430  0.39030  1.0000 0.1277343168
H   H24       1.0  0.85700  0.30170  0.39790  1.0000 0.1277343168
H   H25       1.0  0.40960  0.29290  0.51050  1.0000 0.1553623052
H   H26       1.0  0.37530  0.32880  0.61830  1.0000 0.1183915322
H   H27       1.0  0.47930  0.41320  0.76250  1.0000 0.1277343168
H   H28       1.0  0.31120  0.04680  0.02240  1.0000 0.2877739639
H   H29       1.0  0.39620  0.21910  0.90350  1.0000 0.1115746283
H   H30       1.0  0.43900  0.35030  0.89650  1.0000 0.1277343168
H   H31       1.0  0.34450  0.18360  0.06390  1.0000 0.1115746283
H   H32       1.0  0.36400  0.33170  0.10970  1.0000 0.1277343168
H   H33       1.0  0.40380  0.45910  0.10210  1.0000 0.1277343168
H   H34       1.0  0.28240  0.89910  0.98950  1.0000 0.1553623052
H   H35       1.0  0.21050  0.75700  0.88170  1.0000 0.1183915322
H   H36       1.0  0.15070  0.71680  0.73750  1.0000 0.1277343168
H   H37       1.0  0.04680  0.02240  0.31120  1.0000 0.2877739639
H   H38       1.0  0.21910  0.90350  0.39620  1.0000 0.1115746283
H   H39       1.0  0.35030  0.89650  0.43900  1.0000 0.1277343168
H   H40       1.0  0.18360  0.06390  0.34450  1.0000 0.1115746283
H   H41       1.0  0.33170  0.10970  0.36400  1.0000 0.1277343168
H   H42       1.0  0.45910  0.10210  0.40380  1.0000 0.1277343168
H   H43       1.0  0.89910  0.98950  0.28240  1.0000 0.1553623052
H   H44       1.0  0.75700  0.88170  0.21050  1.0000 0.1183915322
H   H45       1.0  0.71680  0.73750  0.15070  1.0000 0.1277343168
H   H46       1.0  0.28880  0.47760  0.52440  1.0000 0.2877739639
H   H47       1.0  0.49270  0.59650  0.81560  1.0000 0.1115746283
H   H48       1.0  0.54250  0.60350  0.95380  1.0000 0.1277343168
H   H49       1.0  0.28060  0.43610  0.61970  1.0000 0.1115746283
H   H50       1.0  0.25430  0.39030  0.72200  1.0000 0.1277343168
H   H51       1.0  0.30170  0.39790  0.85700  1.0000 0.1277343168
H   H52       1.0  0.29290  0.51050  0.40960  1.0000 0.1553623052
H   H53       1.0  0.32880  0.61830  0.37530  1.0000 0.1183915322
H   H54       1.0  0.41320  0.76250  0.47930  1.0000 0.1277343168
H   H55       1.0  0.21120  0.73560  0.18880  1.0000 0.2877739639
H   H56       1.0  0.00730  0.82290  0.10380  1.0000 0.1115746283
H   H57       1.0  0.95750  0.91130  0.06100  1.0000 0.1277343168
H   H58       1.0  0.21940  0.83910  0.15550  1.0000 0.1115746283
H   H59       1.0  0.24570  0.96770  0.13600  1.0000 0.1277343168
H   H60       1.0  0.19830  0.05530  0.09620  1.0000 0.1277343168
H   H61       1.0  0.20710  0.61670  0.21760  1.0000 0.1553623052
H   H62       1.0  0.17120  0.54650  0.28950  1.0000 0.1183915322
H   H63       1.0  0.08680  0.56610  0.34930  1.0000 0.1277343168
H   H64       1.0  0.45320  0.76440  0.97560  1.0000 0.2877739639
H   H65       1.0  0.28090  0.67710  0.68440  1.0000 0.1115746283
H   H66       1.0  0.14970  0.58870  0.54620  1.0000 0.1277343168
H   H67       1.0  0.31640  0.66090  0.88030  1.0000 0.1115746283
H   H68       1.0  0.16830  0.53230  0.77800  1.0000 0.1277343168
H   H69       1.0  0.04090  0.44470  0.64300  1.0000 0.1277343168
H   H70       1.0  0.60090  0.88330  0.09040  1.0000 0.1553623052
H   H71       1.0  0.74300  0.95350  0.12470  1.0000 0.1183915322
H   H72       1.0  0.78320  0.93390  0.02070  1.0000 0.1277343168
H   H73       1.0  0.47760  0.52440  0.28880  1.0000 0.2877739639
H   H74       1.0  0.59650  0.81560  0.49270  1.0000 0.1115746283
H   H75       1.0  0.60350  0.95380  0.54250  1.0000 0.1277343168
H   H76       1.0  0.43610  0.61970  0.28060  1.0000 0.1115746283
H   H77       1.0  0.39030  0.72200  0.25430  1.0000 0.1277343168
H   H78       1.0  0.39790  0.85700  0.30170  1.0000 0.1183915322
H   H79       1.0  0.51050  0.40960  0.29290  1.0000 0.1553623052
H   H80       1.0  0.61830  0.37530  0.32880  1.0000 0.1183915322
H   H81       1.0  0.76250  0.47930  0.41320  1.0000 0.1277343168
H   H82       1.0  0.02240  0.31120  0.04680  1.0000 0.2877739639
H   H83       1.0  0.90350  0.39620  0.21910  1.0000 0.1115746283
H   H84       1.0  0.89650  0.43900  0.35030  1.0000 0.1277343168
H   H85       1.0  0.06390  0.34450  0.18360  1.0000 0.1115746283
H   H86       1.0  0.10970  0.36400  0.33170  1.0000 0.1277343168
H   H87       1.0  0.10210  0.40380  0.45910  1.0000 0.1277343168
H   H88       1.0  0.98950  0.28240  0.89910  1.0000 0.1553623052
H   H89       1.0  0.88170  0.21050  0.75700  1.0000 0.1183915322
H   H90       1.0  0.73750  0.15070  0.71680  1.0000 0.1277343168
H   H91       1.0  0.76440  0.97560  0.45320  1.0000 0.2877739639
H   H92       1.0  0.67710  0.68440  0.28090  1.0000 0.1115746283
H   H93       1.0  0.58870  0.54620  0.14970  1.0000 0.1277343168
H   H94       1.0  0.66090  0.88030  0.31640  1.0000 0.1115746283
H   H95       1.0  0.53230  0.77800  0.16830  1.0000 0.1277343168
H   H96       1.0  0.44470  0.64300  0.04090  1.0000 0.1277343168
H   H97       1.0  0.88330  0.09040  0.60090  1.0000 0.1553623052
H   H98       1.0  0.95350  0.12470  0.74300  1.0000 0.1183915322
H   H99       1.0  0.93390  0.02070  0.78320  1.0000 0.1277343168
H   H100      1.0  0.73560  0.18880  0.21120  1.0000 0.2877739639
H   H101      1.0  0.82290  0.10380  0.00730  1.0000 0.1115746283
H   H102      1.0  0.91130  0.06100  0.95750  1.0000 0.1277343168
H   H103      1.0  0.83910  0.15550  0.21940  1.0000 0.1115746283
H   H104      1.0  0.96770  0.13600  0.24570  1.0000 0.1277343168
H   H105      1.0  0.05530  0.09620  0.19830  1.0000 0.1277343168
H   H106      1.0  0.61670  0.21760  0.20710  1.0000 0.1553623052
H   H107      1.0  0.54650  0.28950  0.17120  1.0000 0.1183915322
H   H108      1.0  0.56610  0.34930  0.08680  1.0000 0.1277343168
C   C1        1.0  0.67590  0.23200  0.62970  1.0000 -0.1388953059
C   C2        1.0  0.58240  0.08090  0.50970  1.0000 0.1685001971
C   C3        1.0  0.74490  0.23960  0.61330  1.0000 0.0576829882
C   C4        1.0  0.59340  0.15330  0.57770  1.0000 -0.1951490967
C   C5        1.0  0.83220  0.32060  0.66520  1.0000 -0.0071182007
C   C6        1.0  0.73120  0.16530  0.54370  1.0000 -0.1190289706
C   C7        1.0  0.65140  0.08910  0.49270  1.0000 -0.1754709014
C   C8        1.0  0.95650  0.54930  0.80920  1.0000 0.3367556156
C   C9        1.0  0.04510  0.61570  0.87140  1.0000 -0.2200320155
C   C10       1.0  0.06470  0.69900  0.91310  1.0000 -0.0186500291
C   C11       1.0  0.00490  0.72340  0.90110  1.0000 -0.2200320155
C   C12       1.0  0.91620  0.65770  0.83750  1.0000 0.2503542127
C   C13       1.0  0.10230  0.04620  0.87030  1.0000 -0.1388953059
C   C14       1.0  0.07120  0.07270  0.99030  1.0000 0.1685001971
C   C15       1.0  0.12630  0.13160  0.88670  1.0000 0.0576829882
C   C16       1.0  0.07560  0.01570  0.92230  1.0000 -0.1951490967
C   C17       1.0  0.15540  0.16700  0.83480  1.0000 -0.0071182007
C   C18       1.0  0.12160  0.18750  0.95630  1.0000 -0.1190289706
C   C19       1.0  0.09640  0.15870  0.00730  1.0000 -0.1754709014
C   C20       1.0  0.24010  0.14730  0.69080  1.0000 0.3367556156
C   C21       1.0  0.24430  0.17370  0.62860  1.0000 -0.2200320155
C   C22       1.0  0.28590  0.15160  0.58690  1.0000 -0.0186500291
C   C23       1.0  0.32230  0.10380  0.59890  1.0000 -0.2200320155
C   C24       1.0  0.32020  0.07870  0.66250  1.0000 0.2503542127
C   C25       1.0  0.82410  0.45380  0.55610  1.0000 -0.1388953059
C   C26       1.0  0.91760  0.42730  0.49850  1.0000 0.1685001971
C   C27       1.0  0.75510  0.36840  0.49470  1.0000 0.0576829882
C   C28       1.0  0.90660  0.48430  0.55990  1.0000 -0.1951490967
C   C29       1.0  0.66780  0.33300  0.48840  1.0000 -0.0071182007
C   C30       1.0  0.76880  0.31250  0.43410  1.0000 -0.1190289706
C   C31       1.0  0.84860  0.34130  0.43770  1.0000 -0.1754709014
C   C32       1.0  0.54350  0.35270  0.59280  1.0000 0.3367556156
C   C33       1.0  0.45490  0.32630  0.57060  1.0000 -0.2200320155
C   C34       1.0  0.43530  0.34840  0.63430  1.0000 -0.0186500291
C   C35       1.0  0.49510  0.39620  0.71850  1.0000 -0.2200320155
C   C36       1.0  0.58380  0.42130  0.74150  1.0000 0.2503542127
C   C37       1.0  0.39770  0.26800  0.94390  1.0000 -0.1388953059
C   C38       1.0  0.42880  0.41910  0.00150  1.0000 0.1685001971
C   C39       1.0  0.37370  0.26040  0.00530  1.0000 0.0576829882
C   C40       1.0  0.42440  0.34670  0.94010  1.0000 -0.1951490967
C   C41       1.0  0.34460  0.17940  0.01160  1.0000 -0.0071182007
C   C42       1.0  0.37840  0.33470  0.06590  1.0000 -0.1190289706
C   C43       1.0  0.40360  0.41090  0.06230  1.0000 -0.1754709014
C   C44       1.0  0.25990  0.95070  0.90720  1.0000 0.3367556156
C   C45       1.0  0.25570  0.88430  0.92940  1.0000 -0.2200320155
C   C46       1.0  0.21410  0.80100  0.86570  1.0000 -0.0186500291
C   C47       1.0  0.17770  0.77660  0.78150  1.0000 -0.2200320155
C   C48       1.0  0.17980  0.84230  0.75850  1.0000 0.2503542127
C   C49       1.0  0.26800  0.94390  0.39770  1.0000 -0.1388953059
C   C50       1.0  0.41910  0.00150  0.42880  1.0000 0.1685001971
C   C51       1.0  0.26040  0.00530  0.37370  1.0000 0.0576829882
C   C52       1.0  0.34670  0.94010  0.42440  1.0000 -0.1951490967
C   C53       1.0  0.17940  0.01160  0.34460  1.0000 -0.0071182007
C   C54       1.0  0.33470  0.06590  0.37840  1.0000 -0.1190289706
C   C55       1.0  0.41090  0.06230  0.40360  1.0000 -0.1754709014
C   C56       1.0  0.95070  0.90720  0.25990  1.0000 0.3367556156
C   C57       1.0  0.88430  0.92940  0.25570  1.0000 -0.2200320155
C   C58       1.0  0.80100  0.86570  0.21410  1.0000 -0.0186500291
C   C59       1.0  0.77660  0.78150  0.17770  1.0000 -0.2200320155
C   C60       1.0  0.84230  0.75850  0.17980  1.0000 0.2503542127
C   C61       1.0  0.45380  0.55610  0.82410  1.0000 -0.1388953059
C   C62       1.0  0.42730  0.49850  0.91760  1.0000 0.1685001971
C   C63       1.0  0.36840  0.49470  0.75510  1.0000 0.0576829882
C   C64       1.0  0.48430  0.55990  0.90660  1.0000 -0.1951490967
C   C65       1.0  0.33300  0.48840  0.66780  1.0000 -0.0071182007
C   C66       1.0  0.31250  0.43410  0.76880  1.0000 -0.1190289706
C   C67       1.0  0.34130  0.43770  0.84860  1.0000 -0.1754709014
C   C68       1.0  0.35270  0.59280  0.54350  1.0000 0.3367556156
C   C69       1.0  0.32630  0.57060  0.45490  1.0000 -0.2200320155
C   C70       1.0  0.34840  0.63430  0.43530  1.0000 -0.0186500291
C   C71       1.0  0.39620  0.71850  0.49510  1.0000 -0.2200320155
C   C72       1.0  0.42130  0.74150  0.58380  1.0000 0.2503542127
C   C73       1.0  0.04620  0.87030  0.10230  1.0000 -0.1388953059
C   C74       1.0  0.07270  0.99030  0.07120  1.0000 0.1685001971
C   C75       1.0  0.13160  0.88670  0.12630  1.0000 0.0576829882
C   C76       1.0  0.01570  0.92230  0.07560  1.0000 -0.1909616886
C   C77       1.0  0.16700  0.83480  0.15540  1.0000 -0.0071182007
C   C78       1.0  0.18750  0.95630  0.12160  1.0000 -0.1190289706
C   C79       1.0  0.15870  0.00730  0.09640  1.0000 -0.1754709014
C   C80       1.0  0.14730  0.69080  0.24010  1.0000 0.3367556156
C   C81       1.0  0.17370  0.62860  0.24430  1.0000 -0.2200320155
C   C82       1.0  0.15160  0.58690  0.28590  1.0000 -0.0186500291
C   C83       1.0  0.10380  0.59890  0.32230  1.0000 -0.2200320155
C   C84       1.0  0.07870  0.66250  0.32020  1.0000 0.2503542127
C   C85       1.0  0.23200  0.62970  0.67590  1.0000 -0.1388953059
C   C86       1.0  0.08090  0.50970  0.58240  1.0000 0.1685001971
C   C87       1.0  0.23960  0.61330  0.74490  1.0000 0.0576829882
C   C88       1.0  0.15330  0.57770  0.59340  1.0000 -0.1951490967
C   C89       1.0  0.32060  0.66520  0.83220  1.0000 -0.0071182007
C   C90       1.0  0.16530  0.54370  0.73120  1.0000 -0.1190289706
C   C91       1.0  0.08910  0.49270  0.65140  1.0000 -0.1754709014
C   C92       1.0  0.54930  0.80920  0.95650  1.0000 0.3367556156
C   C93       1.0  0.61570  0.87140  0.04510  1.0000 -0.2200320155
C   C94       1.0  0.69900  0.91310  0.06470  1.0000 -0.0186500291
C   C95       1.0  0.72340  0.90110  0.00490  1.0000 -0.2200320155
C   C96       1.0  0.65770  0.83750  0.91620  1.0000 0.2503542127
C   C97       1.0  0.55610  0.82410  0.45380  1.0000 -0.1388953059
C   C98       1.0  0.49850  0.91760  0.42730  1.0000 0.1685001971
C   C99       1.0  0.49470  0.75510  0.36840  1.0000 0.0576829882
C   C100      1.0  0.55990  0.90660  0.48430  1.0000 -0.1909616886
C   C101      1.0  0.48840  0.66780  0.33300  1.0000 -0.0071182007
C   C102      1.0  0.43410  0.76880  0.31250  1.0000 -0.1190289706
C   C103      1.0  0.43770  0.84860  0.34130  1.0000 -0.1754709014
C   C104      1.0  0.59280  0.54350  0.35270  1.0000 0.3367556156
C   C105      1.0  0.57060  0.45490  0.32630  1.0000 -0.2200320155
C   C106      1.0  0.63430  0.43530  0.34840  1.0000 -0.0186500291
C   C107      1.0  0.71850  0.49510  0.39620  1.0000 -0.2200320155
C   C108      1.0  0.74150  0.58380  0.42130  1.0000 0.2503542127
C   C109      1.0  0.94390  0.39770  0.26800  1.0000 -0.1388953059
C   C110      1.0  0.00150  0.42880  0.41910  1.0000 0.1685001971
C   C111      1.0  0.00530  0.37370  0.26040  1.0000 0.0576829882
C   C112      1.0  0.94010  0.42440  0.34670  1.0000 -0.1951490967
C   C113      1.0  0.01160  0.34460  0.17940  1.0000 -0.0071182007
C   C114      1.0  0.06590  0.37840  0.33470  1.0000 -0.1190289706
C   C115      1.0  0.06230  0.40360  0.41090  1.0000 -0.1754709014
C   C116      1.0  0.90720  0.25990  0.95070  1.0000 0.3367556156
C   C117      1.0  0.92940  0.25570  0.88430  1.0000 -0.2200320155
C   C118      1.0  0.86570  0.21410  0.80100  1.0000 -0.0186500291
C   C119      1.0  0.78150  0.17770  0.77660  1.0000 -0.2200320155
C   C120      1.0  0.75850  0.17980  0.84230  1.0000 0.2503542127
C   C121      1.0  0.62970  0.67590  0.23200  1.0000 -0.1388953059
C   C122      1.0  0.50970  0.58240  0.08090  1.0000 0.1685001971
C   C123      1.0  0.61330  0.74490  0.23960  1.0000 0.0576829882
C   C124      1.0  0.57770  0.59340  0.15330  1.0000 -0.1951490967
C   C125      1.0  0.66520  0.83220  0.32060  1.0000 -0.0071182007
C   C126      1.0  0.54370  0.73120  0.16530  1.0000 -0.1190289706
C   C127      1.0  0.49270  0.65140  0.08910  1.0000 -0.1754709014
C   C128      1.0  0.80920  0.95650  0.54930  1.0000 0.3367556156
C   C129      1.0  0.87140  0.04510  0.61570  1.0000 -0.2200320155
C   C130      1.0  0.91310  0.06470  0.69900  1.0000 -0.0186500291
C   C131      1.0  0.90110  0.00490  0.72340  1.0000 -0.2200320155
C   C132      1.0  0.83750  0.91620  0.65770  1.0000 0.2503542127
C   C133      1.0  0.87030  0.10230  0.04620  1.0000 -0.1388953059
C   C134      1.0  0.99030  0.07120  0.07270  1.0000 0.1685001971
C   C135      1.0  0.88670  0.12630  0.13160  1.0000 0.0576829882
C   C136      1.0  0.92230  0.07560  0.01570  1.0000 -0.1909616886
C   C137      1.0  0.83480  0.15540  0.16700  1.0000 -0.0071182007
C   C138      1.0  0.95630  0.12160  0.18750  1.0000 -0.1190289706
C   C139      1.0  0.00730  0.09640  0.15870  1.0000 -0.1754709014
C   C140      1.0  0.69080  0.24010  0.14730  1.0000 0.3367556156
C   C141      1.0  0.62860  0.24430  0.17370  1.0000 -0.2200320155
C   C142      1.0  0.58690  0.28590  0.15160  1.0000 -0.0186500291
C   C143      1.0  0.59890  0.32230  0.10380  1.0000 -0.2200320155
C   C144      1.0  0.66250  0.32020  0.07870  1.0000 0.2503542127
Br  Br1       1.0  0.82312  0.68383  0.81743  1.0000 -0.0965734544
Br  Br2       1.0  0.36640  0.00569  0.68257  1.0000 -0.0965734544
Br  Br3       1.0  0.67688  0.49431  0.86071  1.0000 -0.0965734544
Br  Br4       1.0  0.13360  0.81617  0.63929  1.0000 -0.0965734544
Br  Br5       1.0  0.81617  0.63929  0.13360  1.0000 -0.0965734544
Br  Br6       1.0  0.49431  0.86071  0.67688  1.0000 -0.0965734544
Br  Br7       1.0  0.00569  0.68257  0.36640  1.0000 -0.0965734544
Br  Br8       1.0  0.68383  0.81743  0.82312  1.0000 -0.0965734544
Br  Br9       1.0  0.86071  0.67688  0.49431  1.0000 -0.0965734544
Br  Br10      1.0  0.63929  0.13360  0.81617  1.0000 -0.0965734544
Br  Br11      1.0  0.81743  0.82312  0.68383  1.0000 -0.0965734544
Br  Br12      1.0  0.68257  0.36640  0.00569  1.0000 -0.0965734544
N   N1        1.0  0.84610  0.39600  0.71570  1.0000 -0.1190289706
N   N2        1.0  0.89130  0.57210  0.79700  1.0000 -0.3296996036
N   N3        1.0  0.93390  0.46560  0.76410  1.0000 -0.1909616886
N   N4        1.0  0.18030  0.13040  0.78430  1.0000 -0.1190289706
N   N5        1.0  0.27510  0.09430  0.70300  1.0000 -0.3296996036
N   N6        1.0  0.20150  0.16980  0.73590  1.0000 -0.1909616886
N   N7        1.0  0.65390  0.36960  0.54990  1.0000 -0.1190289706
N   N8        1.0  0.60870  0.40570  0.68080  1.0000 -0.3296996036
N   N9        1.0  0.56610  0.33020  0.53170  1.0000 -0.1909616886
N   N10       1.0  0.31970  0.10400  0.95010  1.0000 -0.1190289706
N   N11       1.0  0.22490  0.92790  0.81920  1.0000 -0.3296996036
N   N12       1.0  0.29850  0.03440  0.96830  1.0000 -0.1909616886
N   N13       1.0  0.10400  0.95010  0.31970  1.0000 -0.1190289706
N   N14       1.0  0.92790  0.81920  0.22490  1.0000 -0.3296996036
N   N15       1.0  0.03440  0.96830  0.29850  1.0000 -0.1909616886
N   N16       1.0  0.36960  0.54990  0.65390  1.0000 -0.1190289706
N   N17       1.0  0.40570  0.68080  0.60870  1.0000 -0.3296996036
N   N18       1.0  0.33020  0.53170  0.56610  1.0000 -0.1909616886
N   N19       1.0  0.13040  0.78430  0.18030  1.0000 -0.1190289706
N   N20       1.0  0.09430  0.70300  0.27510  1.0000 -0.3296996036
N   N21       1.0  0.16980  0.73590  0.20150  1.0000 -0.1909616886
N   N22       1.0  0.39600  0.71570  0.84610  1.0000 -0.1190289706
N   N23       1.0  0.57210  0.79700  0.89130  1.0000 -0.3296996036
N   N24       1.0  0.46560  0.76410  0.93390  1.0000 -0.1909616886
N   N25       1.0  0.54990  0.65390  0.36960  1.0000 -0.1190289706
N   N26       1.0  0.68080  0.60870  0.40570  1.0000 -0.3296996036
N   N27       1.0  0.53170  0.56610  0.33020  1.0000 -0.1909616886
N   N28       1.0  0.95010  0.31970  0.10400  1.0000 -0.1190289706
N   N29       1.0  0.81920  0.22490  0.92790  1.0000 -0.3296996036
N   N30       1.0  0.96830  0.29850  0.03440  1.0000 -0.1909616886
N   N31       1.0  0.71570  0.84610  0.39600  1.0000 -0.1190289706
N   N32       1.0  0.79700  0.89130  0.57210  1.0000 -0.3296996036
N   N33       1.0  0.76410  0.93390  0.46560  1.0000 -0.1909616886
N   N34       1.0  0.78430  0.18030  0.13040  1.0000 -0.1190289706
N   N35       1.0  0.70300  0.27510  0.09430  1.0000 -0.3296996036
N   N36       1.0  0.73590  0.20150  0.16980  1.0000 -0.1909616886
N   N37       1.0  0.50000  0.00000  0.45880  1.0000 -0.1590055554
N   N38       1.0  0.04120  0.04120  0.04120  1.0000 -0.1590055554
N   N39       1.0  0.00000  0.45880  0.50000  1.0000 -0.1590055554
N   N40       1.0  0.45880  0.50000  0.00000  1.0000 -0.1590055554
Cl  Cl1       1.0  0.25000  0.43710  0.18710  1.0000 1.2682014327
Cl  Cl2       1.0  0.75000  0.06290  0.31290  1.0000 1.2682014327
Cl  Cl3       1.0  0.18710  0.25000  0.43710  1.0000 1.2682014327
Cl  Cl4       1.0  0.31290  0.75000  0.06290  1.0000 1.2682014327
Cl  Cl5       1.0  0.06290  0.31290  0.75000  1.0000 1.2682014327
Cl  Cl6       1.0  0.43710  0.18710  0.25000  1.0000 1.2682014327
O   O1        1.0  0.33230  0.43160  0.20590  1.0000 -0.5314450442
O   O2        1.0  0.27190  0.51960  0.19530  1.0000 -0.4753944157
O   O3        1.0  0.16770  0.37360  0.09930  1.0000 -0.5314450442
O   O4        1.0  0.22810  0.42340  0.24770  1.0000 -0.4753944157
O   O5        1.0  0.77430  0.06840  0.40070  1.0000 -0.5314450442
O   O6        1.0  0.67570  0.98040  0.25230  1.0000 -0.4753944157
O   O7        1.0  0.72570  0.12640  0.29410  1.0000 -0.5314450442
O   O8        1.0  0.82430  0.07660  0.30470  1.0000 -0.4753944157
O   O9        1.0  0.09930  0.16770  0.37360  1.0000 -0.5314450442
O   O10       1.0  0.24770  0.22810  0.42340  1.0000 -0.4753944157
O   O11       1.0  0.20590  0.33230  0.43160  1.0000 -0.5314450442
O   O12       1.0  0.19530  0.27190  0.51960  1.0000 -0.4753944157
O   O13       1.0  0.29410  0.72570  0.12640  1.0000 -0.5314450442
O   O14       1.0  0.30470  0.82430  0.07660  1.0000 -0.4753944157
O   O15       1.0  0.40070  0.77430  0.06840  1.0000 -0.5314450442
O   O16       1.0  0.25230  0.67570  0.98040  1.0000 -0.4753944157
O   O17       1.0  0.06840  0.40070  0.77430  1.0000 -0.5314450442
O   O18       1.0  0.98040  0.25230  0.67570  1.0000 -0.4753944157
O   O19       1.0  0.12640  0.29410  0.72570  1.0000 -0.5314450442
O   O20       1.0  0.07660  0.30470  0.82430  1.0000 -0.4753944157
O   O21       1.0  0.43160  0.20590  0.33230  1.0000 -0.5314450442
O   O22       1.0  0.51960  0.19530  0.27190  1.0000 -0.4753944157
O   O23       1.0  0.37360  0.09930  0.16770  1.0000 -0.5314450442
O   O24       1.0  0.42340  0.24770  0.22810  1.0000 -0.4753944157
