# DDEC6 charges by PACMAN v1.1 (https://github.com/mtap-research/PACMAN-charge/)
data_2017[Co][bnn]3[ION]3
_chemical_formula_sum              "Co4 H76 C96 S4 N12 O24 F12"
_cell_length_a       10.2063
_cell_length_b       25.437
_cell_length_c       11.4178
_cell_angle_alpha    90
_cell_angle_beta     91.89
_cell_angle_gamma    90

_symmetry_space_group_name_H-M    "P 1"
_symmetry_Int_Tables_number       1

loop_
  _symmetry_equiv_pos_as_xyz
  'x, y, z'

loop_
  _atom_site_type_symbol
  _atom_site_label
  _atom_site_symmetry_multiplicity
  _atom_site_fract_x
  _atom_site_fract_y
  _atom_site_fract_z
  _atom_site_occupancy
  _atom_site_charge
Co  Co1       1.0  0.94928  0.09288  0.50005  1.0000 0.7886322743
Co  Co2       1.0  0.44744  0.00980  0.49364  1.0000 0.7752168185
Co  Co3       1.0  0.05072  0.59288  0.49995  1.0000 0.7886322743
Co  Co4       1.0  0.55256  0.50980  0.50636  1.0000 0.7752168185
H   H1        1.0  0.75970  0.08250  0.90900  1.0000 0.1293281596
H   H2        1.0  0.03200  0.99900  0.58300  1.0000 0.3531101352
H   H3        1.0  0.76270  0.08070  0.70860  1.0000 0.1024161105
H   H4        1.0  0.62650  0.03320  0.28930  1.0000 0.1098900562
H   H5        1.0  0.63530  0.02740  0.08910  1.0000 0.1293281596
H   H6        1.0  0.13520  0.11820  0.71450  1.0000 0.1024161105
H   H7        1.0  0.25990  0.97750  0.07840  1.0000 0.1365414454
H   H8        1.0  0.64050  0.98860  0.70780  1.0000 0.1098900562
H   H9        1.0  0.25410  0.01480  0.89880  1.0000 0.1293281596
H   H10       1.0  0.14500  0.11750  0.91690  1.0000 0.1365414454
H   H11       1.0  0.77380  0.11900  0.28970  1.0000 0.1098900562
H   H12       1.0  0.52800  0.10100  0.43000  1.0000 0.3531101352
H   H13       1.0  0.13930  0.07110  0.29370  1.0000 0.1098900562
H   H14       1.0  0.64410  0.98430  0.91140  1.0000 0.1365414454
H   H15       1.0  0.14150  0.07060  0.09380  1.0000 0.1293281596
H   H16       1.0  0.36790  0.15250  0.44310  1.0000 0.1024161105
H   H17       1.0  0.18620  0.94850  0.48040  1.0000 0.1098900562
H   H18       1.0  0.05970  0.78860  0.58270  1.0000 0.1293281596
H   H19       1.0  0.26550  0.02040  0.69670  1.0000 0.1098900562
H   H20       1.0  0.54970  0.89600  0.51410  1.0000 0.1098900562
H   H21       1.0  0.26460  0.98060  0.28080  1.0000 0.1024161105
H   H22       1.0  0.85910  0.95690  0.58930  1.0000 0.1024161105
H   H23       1.0  0.76730  0.12430  0.08830  1.0000 0.1365414454
H   H24       1.0  0.10560  0.86480  0.48170  1.0000 0.1185810498
H   H25       1.0  0.38560  0.73640  0.43290  1.0000 0.1293281596
H   H26       1.0  0.47500  0.81040  0.52570  1.0000 0.1293281596
H   H27       1.0  0.51610  0.10690  0.70520  1.0000 0.1098900562
H   H28       1.0  0.27540  0.25810  0.76570  1.0000 0.1098900562
H   H29       1.0  0.41410  0.22560  0.91160  1.0000 0.1293281596
H   H30       1.0  0.25430  0.21350  0.58210  1.0000 0.1185810498
H   H31       1.0  0.53480  0.15250  0.88090  1.0000 0.1293281596
H   H32       1.0  0.82220  0.87410  0.51540  1.0000 0.1185810498
H   H33       1.0  0.29860  0.65260  0.43720  1.0000 0.1024161105
H   H34       1.0  0.97630  0.70460  0.57740  1.0000 0.1098900562
H   H35       1.0  0.94120  0.98540  0.29310  1.0000 0.1098900562
H   H36       1.0  0.91310  0.83420  0.18600  1.0000 0.1185810498
H   H37       1.0  0.83970  0.81030  0.37130  1.0000 0.1098900562
H   H38       1.0  0.95510  0.92230  0.14400  1.0000 0.1185810498
H   H39       1.0  0.24030  0.58250  0.09100  1.0000 0.1293281596
H   H40       1.0  0.96800  0.49900  0.41700  1.0000 0.3531101352
H   H41       1.0  0.23730  0.58070  0.29140  1.0000 0.1024161105
H   H42       1.0  0.37350  0.53320  0.71070  1.0000 0.1098900562
H   H43       1.0  0.36470  0.52740  0.91090  1.0000 0.1293281596
H   H44       1.0  0.86480  0.61820  0.28550  1.0000 0.1024161105
H   H45       1.0  0.74010  0.47750  0.92160  1.0000 0.1365414454
H   H46       1.0  0.35950  0.48860  0.29220  1.0000 0.1098900562
H   H47       1.0  0.74590  0.51480  0.10120  1.0000 0.1293281596
H   H48       1.0  0.85500  0.61750  0.08310  1.0000 0.1365414454
H   H49       1.0  0.22620  0.61900  0.71030  1.0000 0.1098900562
H   H50       1.0  0.47200  0.60100  0.57000  1.0000 0.3531101352
H   H51       1.0  0.86070  0.57110  0.70630  1.0000 0.1098900562
H   H52       1.0  0.35590  0.48430  0.08860  1.0000 0.1365414454
H   H53       1.0  0.85850  0.57060  0.90620  1.0000 0.1293281596
H   H54       1.0  0.63210  0.65250  0.55690  1.0000 0.1024161105
H   H55       1.0  0.81380  0.44850  0.51960  1.0000 0.1098900562
H   H56       1.0  0.94030  0.28860  0.41730  1.0000 0.1293281596
H   H57       1.0  0.73450  0.52040  0.30330  1.0000 0.1098900562
H   H58       1.0  0.45030  0.39600  0.48590  1.0000 0.1098900562
H   H59       1.0  0.73540  0.48060  0.71920  1.0000 0.1024161105
H   H60       1.0  0.14090  0.45690  0.41070  1.0000 0.1024161105
H   H61       1.0  0.23270  0.62430  0.91170  1.0000 0.1365414454
H   H62       1.0  0.89440  0.36480  0.51830  1.0000 0.1185810498
H   H63       1.0  0.61440  0.23640  0.56710  1.0000 0.1293281596
H   H64       1.0  0.52500  0.31040  0.47430  1.0000 0.1293281596
H   H65       1.0  0.48390  0.60690  0.29480  1.0000 0.1098900562
H   H66       1.0  0.72460  0.75810  0.23430  1.0000 0.1098900562
H   H67       1.0  0.58590  0.72560  0.08840  1.0000 0.1293281596
H   H68       1.0  0.74570  0.71350  0.41790  1.0000 0.1185810498
H   H69       1.0  0.46520  0.65250  0.11910  1.0000 0.1293281596
H   H70       1.0  0.17780  0.37410  0.48460  1.0000 0.1185810498
H   H71       1.0  0.70140  0.15260  0.56280  1.0000 0.1024161105
H   H72       1.0  0.02370  0.20460  0.42260  1.0000 0.1098900562
H   H73       1.0  0.05880  0.48540  0.70690  1.0000 0.1098900562
H   H74       1.0  0.08690  0.33420  0.81400  1.0000 0.1185810498
H   H75       1.0  0.16030  0.31030  0.62870  1.0000 0.1098900562
H   H76       1.0  0.04490  0.42230  0.85600  1.0000 0.1185810498
C   C1        1.0  0.95230  0.09900  0.93690  1.0000 0.1098900562
C   C2        1.0  0.95400  0.09790  0.06610  1.0000 0.1098900562
C   C3        1.0  0.83960  0.08900  0.87110  1.0000 -0.1725555354
C   C4        1.0  0.84190  0.08820  0.75140  1.0000 0.0768627992
C   C5        1.0  0.55120  0.02120  0.24610  1.0000 0.08911321
C   C6        1.0  0.55670  0.01820  0.12630  1.0000 -0.1817425949
C   C7        1.0  0.05830  0.10950  0.75490  1.0000 0.08911321
C   C8        1.0  0.44910  0.00190  0.05920  1.0000 0.1185810498
C   C9        1.0  0.33740  0.98850  0.11990  1.0000 -0.1817425949
C   C10       1.0  0.28080  0.82790  0.50360  1.0000 0.1098900562
C   C11       1.0  0.56160  0.99490  0.74750  1.0000 0.08911321
C   C12       1.0  0.24920  0.09160  0.50230  1.0000 0.5655468113
C   C13       1.0  0.33580  0.01050  0.86240  1.0000 -0.1817425949
C   C14       1.0  0.06470  0.10990  0.87590  1.0000 -0.1817425949
C   C15       1.0  0.44990  0.00150  0.92950  1.0000 0.1098900562
C   C16       1.0  0.84970  0.10930  0.24880  1.0000 0.0768627992
C   C17       1.0  0.74770  0.01110  0.49630  1.0000 0.5655468113
C   C18       1.0  0.06150  0.08090  0.25110  1.0000 0.08911321
C   C19       1.0  0.56460  0.99230  0.86940  1.0000 -0.1817425949
C   C20       1.0  0.06470  0.08140  0.13200  1.0000 -0.16008529
C   C21       1.0  0.37310  0.12640  0.50860  1.0000 0.0001196032
C   C22       1.0  0.24620  0.92010  0.48770  1.0000 0.0682001717
C   C23       1.0  0.11040  0.76130  0.55020  1.0000 -0.1861927304
C   C24       1.0  0.23090  0.77340  0.50630  1.0000 0.1098900562
C   C25       1.0  0.34350  0.01300  0.74150  1.0000 0.08911321
C   C26       1.0  0.45800  0.88960  0.50860  1.0000 0.08911321
C   C27       1.0  0.34050  0.99120  0.24080  1.0000 0.0768627992
C   C28       1.0  0.86670  0.97580  0.51310  1.0000 -0.0230468086
C   C29       1.0  0.84460  0.11240  0.12860  1.0000 -0.1817425949
C   C30       1.0  0.19750  0.87030  0.48980  1.0000 -0.1725555354
C   C31       1.0  0.30130  0.73100  0.46360  1.0000 -0.1861927304
C   C32       1.0  0.41420  0.83840  0.51440  1.0000 -0.1817425949
C   C33       1.0  0.38560  0.15590  0.62430  1.0000 0.0682001717
C   C34       1.0  0.46660  0.13810  0.71510  1.0000 -0.1376488203
C   C35       1.0  0.32470  0.22710  0.75250  1.0000 -0.1061419093
C   C36       1.0  0.40680  0.20800  0.83830  1.0000 -0.0876086273
C   C37       1.0  0.31230  0.20050  0.64220  1.0000 -0.16008529
C   C38       1.0  0.47670  0.16500  0.82050  1.0000 -0.0802124918
C   C39       1.0  0.87850  0.93570  0.41870  1.0000 0.0768627992
C   C40       1.0  0.85000  0.88400  0.43990  1.0000 -0.1513669485
C   C41       1.0  0.24790  0.68080  0.46610  1.0000 0.1098900562
C   C42       1.0  0.06100  0.71080  0.54840  1.0000 0.0768627992
C   C43       1.0  0.91970  0.94980  0.30860  1.0000 -0.1301384711
C   C44       1.0  0.90290  0.86030  0.24460  1.0000 -0.0995789238
C   C45       1.0  0.86070  0.84590  0.35490  1.0000 -0.0995789238
C   C46       1.0  0.92990  0.91220  0.22010  1.0000 -0.0802124918
C   C47       1.0  0.04770  0.59900  0.06310  1.0000 0.1098900562
C   C48       1.0  0.04600  0.59790  0.93390  1.0000 0.1098900562
C   C49       1.0  0.16040  0.58900  0.12890  1.0000 -0.1725555354
C   C50       1.0  0.15810  0.58820  0.24860  1.0000 0.0768627992
C   C51       1.0  0.44880  0.52120  0.75390  1.0000 0.08911321
C   C52       1.0  0.44330  0.51820  0.87370  1.0000 -0.1817425949
C   C53       1.0  0.94170  0.60950  0.24510  1.0000 0.08911321
C   C54       1.0  0.55090  0.50190  0.94080  1.0000 0.1185810498
C   C55       1.0  0.66260  0.48850  0.88010  1.0000 -0.1817425949
C   C56       1.0  0.71920  0.32790  0.49640  1.0000 0.1098900562
C   C57       1.0  0.43840  0.49490  0.25250  1.0000 0.08911321
C   C58       1.0  0.75080  0.59160  0.49770  1.0000 0.5655468113
C   C59       1.0  0.66420  0.51050  0.13760  1.0000 -0.1817425949
C   C60       1.0  0.93530  0.60990  0.12410  1.0000 -0.1817425949
C   C61       1.0  0.55010  0.50150  0.07050  1.0000 0.1098900562
C   C62       1.0  0.15030  0.60930  0.75120  1.0000 0.0768627992
C   C63       1.0  0.25230  0.51110  0.50370  1.0000 0.5655468113
C   C64       1.0  0.93850  0.58090  0.74890  1.0000 0.08911321
C   C65       1.0  0.43540  0.49230  0.13060  1.0000 -0.1817425949
C   C66       1.0  0.93530  0.58140  0.86800  1.0000 -0.16008529
C   C67       1.0  0.62690  0.62640  0.49140  1.0000 0.0001196032
C   C68       1.0  0.75380  0.42010  0.51230  1.0000 0.0682001717
C   C69       1.0  0.88960  0.26130  0.44980  1.0000 -0.1817425949
C   C70       1.0  0.76910  0.27340  0.49370  1.0000 0.1098900562
C   C71       1.0  0.65650  0.51300  0.25850  1.0000 0.08911321
C   C72       1.0  0.54200  0.38960  0.49140  1.0000 0.08911321
C   C73       1.0  0.65950  0.49120  0.75920  1.0000 0.0768627992
C   C74       1.0  0.13330  0.47580  0.48690  1.0000 -0.0230468086
C   C75       1.0  0.15540  0.61240  0.87140  1.0000 -0.1861927304
C   C76       1.0  0.80250  0.37030  0.51020  1.0000 -0.1725555354
C   C77       1.0  0.69870  0.23100  0.53640  1.0000 -0.1817425949
C   C78       1.0  0.58580  0.33840  0.48560  1.0000 -0.1817425949
C   C79       1.0  0.61440  0.65590  0.37570  1.0000 0.0682001717
C   C80       1.0  0.53340  0.63810  0.28490  1.0000 -0.1376488203
C   C81       1.0  0.67530  0.72710  0.24750  1.0000 -0.1061419093
C   C82       1.0  0.59320  0.70800  0.16170  1.0000 -0.0876086273
C   C83       1.0  0.68770  0.70050  0.35780  1.0000 -0.16008529
C   C84       1.0  0.52330  0.66500  0.17950  1.0000 -0.0802124918
C   C85       1.0  0.12150  0.43570  0.58130  1.0000 0.0768627992
C   C86       1.0  0.15000  0.38400  0.56010  1.0000 -0.1513669485
C   C87       1.0  0.75210  0.18080  0.53390  1.0000 0.1098900562
C   C88       1.0  0.93900  0.21080  0.45160  1.0000 0.0768627992
C   C89       1.0  0.08030  0.44980  0.69140  1.0000 -0.1301384711
C   C90       1.0  0.09710  0.36030  0.75540  1.0000 -0.0995789238
C   C91       1.0  0.13930  0.34590  0.64510  1.0000 -0.0995789238
C   C92       1.0  0.07010  0.41220  0.77990  1.0000 -0.0802124918
C   C93       1.0  0.53500  0.73370  0.76550  1.0000 0.499689453
C   C94       1.0  0.96800  0.38770  0.17260  1.0000 0.499689453
C   C95       1.0  0.46500  0.23370  0.23450  1.0000 0.499689453
C   C96       1.0  0.03200  0.88770  0.82740  1.0000 0.499689453
S   S1        1.0  0.51860  0.66317  0.79530  1.0000 0.9885539121
S   S2        1.0  0.01050  0.45666  0.16440  1.0000 0.9885539121
S   S3        1.0  0.48140  0.16317  0.20470  1.0000 0.9885539121
S   S4        1.0  0.98950  0.95666  0.83560  1.0000 0.9885539121
N   N1        1.0  0.45400  0.00580  0.68440  1.0000 -0.2489275293
N   N2        1.0  0.44500  0.00800  0.30500  1.0000 -0.2429559969
N   N3        1.0  0.95610  0.09330  0.31210  1.0000 -0.2489275293
N   N4        1.0  0.95040  0.09750  0.69140  1.0000 -0.2429559969
N   N5        1.0  0.37650  0.93110  0.49550  1.0000 -0.2489275293
N   N6        1.0  0.13050  0.66990  0.50620  1.0000 -0.2489275293
N   N7        1.0  0.54600  0.50580  0.31560  1.0000 -0.2489275293
N   N8        1.0  0.55500  0.50800  0.69500  1.0000 -0.2429559969
N   N9        1.0  0.04390  0.59330  0.68790  1.0000 -0.2489275293
N   N10       1.0  0.04960  0.59750  0.30860  1.0000 -0.2429559969
N   N11       1.0  0.62350  0.43110  0.50450  1.0000 -0.2489275293
N   N12       1.0  0.86950  0.16990  0.49380  1.0000 -0.2489275293
O   O1        1.0  0.14130  0.11640  0.50610  1.0000 -0.5564959241
O   O2        1.0  0.76030  0.06000  0.48640  1.0000 -0.540853619
O   O3        1.0  0.26220  0.04270  0.49230  1.0000 -0.540853619
O   O4        1.0  0.64040  0.98670  0.49360  1.0000 -0.5518464602
O   O5        1.0  0.98290  0.00890  0.52100  1.0000 -0.498318001
O   O6        1.0  0.48440  0.09330  0.49350  1.0000 -0.498318001
O   O7        1.0  0.85870  0.61640  0.49390  1.0000 -0.5564959241
O   O8        1.0  0.23970  0.56000  0.51360  1.0000 -0.540853619
O   O9        1.0  0.73780  0.54270  0.50770  1.0000 -0.540853619
O   O10       1.0  0.35960  0.48670  0.50640  1.0000 -0.5518464602
O   O11       1.0  0.01710  0.50890  0.47900  1.0000 -0.498318001
O   O12       1.0  0.51560  0.59330  0.50650  1.0000 -0.498318001
O   O13       1.0  0.44180  0.64610  0.69560  1.0000 -0.5518464602
O   O14       1.0  0.65420  0.64530  0.79530  1.0000 -0.5518464602
O   O15       1.0  0.45450  0.65970  0.90360  1.0000 -0.540853619
O   O16       1.0  0.15210  0.45750  0.17990  1.0000 -0.5518464602
O   O17       1.0  0.94270  0.47940  0.26070  1.0000 -0.5518464602
O   O18       1.0  0.96230  0.47260  0.05020  1.0000 -0.5518464602
O   O19       1.0  0.55820  0.14610  0.30440  1.0000 -0.5518464602
O   O20       1.0  0.34580  0.14530  0.20470  1.0000 -0.5518464602
O   O21       1.0  0.54550  0.15970  0.09640  1.0000 -0.540853619
O   O22       1.0  0.84790  0.95750  0.82010  1.0000 -0.5518464602
O   O23       1.0  0.05730  0.97940  0.73930  1.0000 -0.5564959241
O   O24       1.0  0.03770  0.97260  0.94980  1.0000 -0.5518464602
F   F1        1.0  0.59360  0.74290  0.66800  1.0000 -0.199353667
F   F2        1.0  0.60780  0.75530  0.85420  1.0000 -0.199353667
F   F3        1.0  0.42180  0.75700  0.76130  1.0000 -0.1817425949
F   F4        1.0  0.02360  0.36230  0.08540  1.0000 -0.199353667
F   F5        1.0  0.01700  0.36800  0.27430  1.0000 -0.2051717037
F   F6        1.0  0.84230  0.38130  0.16870  1.0000 -0.1861927304
F   F7        1.0  0.40640  0.24290  0.33200  1.0000 -0.199353667
F   F8        1.0  0.39220  0.25530  0.14580  1.0000 -0.199353667
F   F9        1.0  0.57820  0.25700  0.23870  1.0000 -0.1861927304
F   F10       1.0  0.97640  0.86230  0.91460  1.0000 -0.199353667
F   F11       1.0  0.98300  0.86800  0.72570  1.0000 -0.2051717037
F   F12       1.0  0.15770  0.88130  0.83130  1.0000 -0.1861927304
