# DDEC6 charges by PACMAN v1.1 (https://github.com/mtap-research/PACMAN-charge/)
data_2017[Ag][srs]3[ION]40
_chemical_formula_sum              "Ag6 H120 C144 N40 Cl6 O24"
_cell_length_a       18.4882
_cell_length_b       18.4882
_cell_length_c       18.4882
_cell_angle_alpha    109.471
_cell_angle_beta     109.471
_cell_angle_gamma    109.471

_symmetry_space_group_name_H-M    "P 1"
_symmetry_Int_Tables_number       1

loop_
  _symmetry_equiv_pos_as_xyz
  'x, y, z'

loop_
  _atom_site_type_symbol
  _atom_site_label
  _atom_site_symmetry_multiplicity
  _atom_site_fract_x
  _atom_site_fract_y
  _atom_site_fract_z
  _atom_site_occupancy
  _atom_site_charge
Ag  Ag1       1.0  0.95666  0.25000  0.20666  1.0000 0.2574346234
Ag  Ag2       1.0  0.54334  0.75000  0.29334  1.0000 0.2574346234
Ag  Ag3       1.0  0.20666  0.95666  0.25000  1.0000 0.2574346234
Ag  Ag4       1.0  0.29334  0.54334  0.75000  1.0000 0.2574346234
Ag  Ag5       1.0  0.25000  0.20666  0.95666  1.0000 0.2574346234
Ag  Ag6       1.0  0.75000  0.29334  0.54334  1.0000 0.2574346234
H   H1        1.0  0.03200  0.45360  0.10200  1.0000 0.1256544411
H   H2        1.0  0.98530  0.31880  0.09730  1.0000 0.1078825638
H   H3        1.0  0.75110  0.21820  0.88710  1.0000 0.1256544411
H   H4        1.0  0.79170  0.35380  0.89590  1.0000 0.1242507169
H   H5        1.0  0.78090  0.11890  0.93320  1.0000 0.1078825638
H   H6        1.0  0.79680  0.91440  0.00760  1.0000 0.1539310733
H   H7        1.0  0.83350  0.87810  0.11900  1.0000 0.1078825638
H   H8        1.0  0.91640  0.99330  0.27010  1.0000 0.1256544411
H   H9        1.0  0.96060  0.13610  0.30070  1.0000 0.0983516339
H   H10       1.0  0.79510  0.02540  0.97450  1.0000 0.2815320338
H   H11       1.0  0.85160  0.93000  0.39800  1.0000 0.1256544411
H   H12       1.0  0.72150  0.88800  0.40270  1.0000 0.1078825638
H   H13       1.0  0.83110  0.86400  0.61290  1.0000 0.1256544411
H   H14       1.0  0.95790  0.89580  0.60410  1.0000 0.1242507169
H   H15       1.0  0.68570  0.84770  0.56680  1.0000 0.1078825638
H   H16       1.0  0.40680  0.78920  0.49240  1.0000 0.1539310733
H   H17       1.0  0.25910  0.71450  0.38100  1.0000 0.1078825638
H   H18       1.0  0.22320  0.64630  0.22990  1.0000 0.1256544411
H   H19       1.0  0.33540  0.65990  0.19930  1.0000 0.0983516339
H   H20       1.0  0.55090  0.82060  0.52550  1.0000 0.2815320338
H   H21       1.0  0.64840  0.04640  0.07840  1.0000 0.1256544411
H   H22       1.0  0.77850  0.18120  0.16650  1.0000 0.1078825638
H   H23       1.0  0.66890  0.28180  0.03290  1.0000 0.1256544411
H   H24       1.0  0.54210  0.14620  0.93790  1.0000 0.1242507169
H   H25       1.0  0.81430  0.38110  0.16200  1.0000 0.1078825638
H   H26       1.0  0.09320  0.58560  0.38240  1.0000 0.1539310733
H   H27       1.0  0.24090  0.62190  0.45540  1.0000 0.1078825638
H   H28       1.0  0.27680  0.50670  0.42310  1.0000 0.1256544411
H   H29       1.0  0.16460  0.36390  0.32450  1.0000 0.0983516339
H   H30       1.0  0.94910  0.47460  0.26970  1.0000 0.2815320338
H   H31       1.0  0.46800  0.57000  0.42160  1.0000 0.1256544411
H   H32       1.0  0.51470  0.61200  0.33350  1.0000 0.1078825638
H   H33       1.0  0.74890  0.63600  0.46710  1.0000 0.1256544411
H   H34       1.0  0.70830  0.60420  0.56210  1.0000 0.1242507169
H   H35       1.0  0.71910  0.65230  0.33800  1.0000 0.1078825638
H   H36       1.0  0.70320  0.71080  0.11760  1.0000 0.1539310733
H   H37       1.0  0.66650  0.78550  0.04460  1.0000 0.1078825638
H   H38       1.0  0.58360  0.85370  0.07690  1.0000 0.1256544411
H   H39       1.0  0.53940  0.84010  0.17550  1.0000 0.0983516339
H   H40       1.0  0.70490  0.67940  0.23030  1.0000 0.2815320338
H   H41       1.0  0.10200  0.03200  0.45360  1.0000 0.1256544411
H   H42       1.0  0.09730  0.98530  0.31880  1.0000 0.1078825638
H   H43       1.0  0.88710  0.75110  0.21820  1.0000 0.1256544411
H   H44       1.0  0.89590  0.79170  0.35380  1.0000 0.1242507169
H   H45       1.0  0.93320  0.78090  0.11890  1.0000 0.1078825638
H   H46       1.0  0.00760  0.79680  0.91440  1.0000 0.1539310733
H   H47       1.0  0.11900  0.83350  0.87810  1.0000 0.1078825638
H   H48       1.0  0.27010  0.91640  0.99330  1.0000 0.1256544411
H   H49       1.0  0.30070  0.96060  0.13610  1.0000 0.0983516339
H   H50       1.0  0.97450  0.79510  0.02540  1.0000 0.2815320338
H   H51       1.0  0.39800  0.85160  0.93000  1.0000 0.1256544411
H   H52       1.0  0.40270  0.72150  0.88800  1.0000 0.1078825638
H   H53       1.0  0.61290  0.83110  0.86400  1.0000 0.1256544411
H   H54       1.0  0.60410  0.95790  0.89580  1.0000 0.1242507169
H   H55       1.0  0.56680  0.68570  0.84770  1.0000 0.1078825638
H   H56       1.0  0.49240  0.40680  0.78920  1.0000 0.1539310733
H   H57       1.0  0.38100  0.25910  0.71450  1.0000 0.1078825638
H   H58       1.0  0.22990  0.22320  0.64630  1.0000 0.1256544411
H   H59       1.0  0.19930  0.33540  0.65990  1.0000 0.0983516339
H   H60       1.0  0.52550  0.55090  0.82060  1.0000 0.2815320338
H   H61       1.0  0.07840  0.64840  0.04640  1.0000 0.1256544411
H   H62       1.0  0.16650  0.77850  0.18120  1.0000 0.1078825638
H   H63       1.0  0.03290  0.66890  0.28180  1.0000 0.1256544411
H   H64       1.0  0.93790  0.54210  0.14620  1.0000 0.1242507169
H   H65       1.0  0.16200  0.81430  0.38110  1.0000 0.1078825638
H   H66       1.0  0.38240  0.09320  0.58560  1.0000 0.1539310733
H   H67       1.0  0.45540  0.24090  0.62190  1.0000 0.1078825638
H   H68       1.0  0.42310  0.27680  0.50670  1.0000 0.1256544411
H   H69       1.0  0.32450  0.16460  0.36390  1.0000 0.0983516339
H   H70       1.0  0.26970  0.94910  0.47460  1.0000 0.2815320338
H   H71       1.0  0.42160  0.46800  0.57000  1.0000 0.1256544411
H   H72       1.0  0.33350  0.51470  0.61200  1.0000 0.1078825638
H   H73       1.0  0.46710  0.74890  0.63600  1.0000 0.1256544411
H   H74       1.0  0.56210  0.70830  0.60420  1.0000 0.1242507169
H   H75       1.0  0.33800  0.71910  0.65230  1.0000 0.1078825638
H   H76       1.0  0.11760  0.70320  0.71080  1.0000 0.1539310733
H   H77       1.0  0.04460  0.66650  0.78550  1.0000 0.1078825638
H   H78       1.0  0.07690  0.58360  0.85370  1.0000 0.1256544411
H   H79       1.0  0.17550  0.53940  0.84010  1.0000 0.0983516339
H   H80       1.0  0.23030  0.70490  0.67940  1.0000 0.2815320338
H   H81       1.0  0.45360  0.10200  0.03200  1.0000 0.1256544411
H   H82       1.0  0.31880  0.09730  0.98530  1.0000 0.1078825638
H   H83       1.0  0.21820  0.88710  0.75110  1.0000 0.1256544411
H   H84       1.0  0.35380  0.89590  0.79170  1.0000 0.1242507169
H   H85       1.0  0.11890  0.93320  0.78090  1.0000 0.1078825638
H   H86       1.0  0.91440  0.00760  0.79680  1.0000 0.1539310733
H   H87       1.0  0.87810  0.11900  0.83350  1.0000 0.1078825638
H   H88       1.0  0.99330  0.27010  0.91640  1.0000 0.1256544411
H   H89       1.0  0.13610  0.30070  0.96060  1.0000 0.0983516339
H   H90       1.0  0.02540  0.97450  0.79510  1.0000 0.2815320338
H   H91       1.0  0.93000  0.39800  0.85160  1.0000 0.1256544411
H   H92       1.0  0.88800  0.40270  0.72150  1.0000 0.1078825638
H   H93       1.0  0.86400  0.61290  0.83110  1.0000 0.1256544411
H   H94       1.0  0.89580  0.60410  0.95790  1.0000 0.1242507169
H   H95       1.0  0.84770  0.56680  0.68570  1.0000 0.1078825638
H   H96       1.0  0.78920  0.49240  0.40680  1.0000 0.1539310733
H   H97       1.0  0.71450  0.38100  0.25910  1.0000 0.1078825638
H   H98       1.0  0.64630  0.22990  0.22320  1.0000 0.1256544411
H   H99       1.0  0.65990  0.19930  0.33540  1.0000 0.0983516339
H   H100      1.0  0.82060  0.52550  0.55090  1.0000 0.2815320338
H   H101      1.0  0.04640  0.07840  0.64840  1.0000 0.1256544411
H   H102      1.0  0.18120  0.16650  0.77850  1.0000 0.1078825638
H   H103      1.0  0.28180  0.03290  0.66890  1.0000 0.1256544411
H   H104      1.0  0.14620  0.93790  0.54210  1.0000 0.1242507169
H   H105      1.0  0.38110  0.16200  0.81430  1.0000 0.1078825638
H   H106      1.0  0.58560  0.38240  0.09320  1.0000 0.1539310733
H   H107      1.0  0.62190  0.45540  0.24090  1.0000 0.1078825638
H   H108      1.0  0.50670  0.42310  0.27680  1.0000 0.1256544411
H   H109      1.0  0.36390  0.32450  0.16460  1.0000 0.0983516339
H   H110      1.0  0.47460  0.26970  0.94910  1.0000 0.2815320338
H   H111      1.0  0.57000  0.42160  0.46800  1.0000 0.1256544411
H   H112      1.0  0.61200  0.33350  0.51470  1.0000 0.1078825638
H   H113      1.0  0.63600  0.46710  0.74890  1.0000 0.1256544411
H   H114      1.0  0.60420  0.56210  0.70830  1.0000 0.1242507169
H   H115      1.0  0.65230  0.33800  0.71910  1.0000 0.1078825638
H   H116      1.0  0.71080  0.11760  0.70320  1.0000 0.1539310733
H   H117      1.0  0.78550  0.04460  0.66650  1.0000 0.1078825638
H   H118      1.0  0.85370  0.07690  0.58360  1.0000 0.1256544411
H   H119      1.0  0.84010  0.17550  0.53940  1.0000 0.0983516339
H   H120      1.0  0.67940  0.23030  0.70490  1.0000 0.2815320338
C   C1        1.0  0.91720  0.41820  0.99740  1.0000 0.1794873471
C   C2        1.0  0.97440  0.40630  0.05870  1.0000 -0.1982595162
C   C3        1.0  0.94660  0.32570  0.05550  1.0000 -0.1382469763
C   C4        1.0  0.86360  0.25560  0.99240  1.0000 0.0566031032
C   C5        1.0  0.80760  0.26670  0.93190  1.0000 -0.1264040376
C   C6        1.0  0.83260  0.34690  0.93570  1.0000 -0.1872153287
C   C7        1.0  0.83180  0.16760  0.98580  1.0000 -0.0113347355
C   C8        1.0  0.85810  0.04800  0.09230  1.0000 0.3415480822
C   C9        1.0  0.82980  0.95860  0.06760  1.0000 -0.2364802813
C   C10       1.0  0.85140  0.93730  0.13350  1.0000 -0.0113347355
C   C11       1.0  0.90140  0.00610  0.22390  1.0000 -0.1982595162
C   C12       1.0  0.92660  0.09030  0.24130  1.0000 0.0566031032
C   C13       1.0  0.92080  0.91980  0.50260  1.0000 0.1794873471
C   C14       1.0  0.84760  0.91570  0.44130  1.0000 -0.1982595162
C   C15       1.0  0.77020  0.89110  0.44450  1.0000 -0.1382469763
C   C16       1.0  0.76320  0.87120  0.50760  1.0000 0.0566031032
C   C17       1.0  0.83480  0.87570  0.56810  1.0000 -0.1264040376
C   C18       1.0  0.91120  0.89690  0.56430  1.0000 -0.1872153287
C   C19       1.0  0.68180  0.84600  0.51420  1.0000 -0.0113347355
C   C20       1.0  0.45570  0.76580  0.40770  1.0000 0.3415480822
C   C21       1.0  0.39100  0.76220  0.43240  1.0000 -0.2364802813
C   C22       1.0  0.30380  0.71790  0.36650  1.0000 -0.0113347355
C   C23       1.0  0.28220  0.67750  0.27610  1.0000 -0.1982595162
C   C24       1.0  0.34900  0.68530  0.25870  1.0000 0.0566031032
C   C25       1.0  0.57920  0.08180  0.99900  1.0000 0.1794873471
C   C26       1.0  0.65240  0.09370  0.06810  1.0000 -0.1982595162
C   C27       1.0  0.72980  0.17430  0.12090  1.0000 -0.1382469763
C   C28       1.0  0.73680  0.24440  0.10800  1.0000 0.0566031032
C   C29       1.0  0.66520  0.23330  0.04090  1.0000 -0.1264040376
C   C30       1.0  0.58880  0.15310  0.98570  1.0000 -0.1872153287
C   C31       1.0  0.81820  0.33240  0.16420  1.0000 -0.0113347355
C   C32       1.0  0.04430  0.45200  0.31010  1.0000 0.3415480822
C   C33       1.0  0.10900  0.54140  0.37120  1.0000 -0.2364802813
C   C34       1.0  0.19620  0.56270  0.41410  1.0000 -0.0113347355
C   C35       1.0  0.21780  0.49390  0.39530  1.0000 -0.1982595162
C   C36       1.0  0.15100  0.40970  0.33630  1.0000 0.0566031032
C   C37       1.0  0.58280  0.58020  0.50100  1.0000 0.1794873471
C   C38       1.0  0.52560  0.58430  0.43190  1.0000 -0.1982595162
C   C39       1.0  0.55340  0.60890  0.37910  1.0000 -0.1382469763
C   C40       1.0  0.63640  0.62880  0.39200  1.0000 0.0566031032
C   C41       1.0  0.69240  0.62430  0.45910  1.0000 -0.1264040376
C   C42       1.0  0.66740  0.60310  0.51430  1.0000 -0.1872153287
C   C43       1.0  0.66820  0.65400  0.33580  1.0000 -0.0113347355
C   C44       1.0  0.64190  0.73420  0.18990  1.0000 0.3415480822
C   C45       1.0  0.67020  0.73780  0.12880  1.0000 -0.2364802813
C   C46       1.0  0.64860  0.78210  0.08590  1.0000 -0.0113347355
C   C47       1.0  0.59860  0.82250  0.10470  1.0000 -0.1982595162
C   C48       1.0  0.57340  0.81470  0.16370  1.0000 0.0566031032
C   C49       1.0  0.99740  0.91720  0.41820  1.0000 0.1794873471
C   C50       1.0  0.05870  0.97440  0.40630  1.0000 -0.1982595162
C   C51       1.0  0.05550  0.94660  0.32570  1.0000 -0.1382469763
C   C52       1.0  0.99240  0.86360  0.25560  1.0000 0.0566031032
C   C53       1.0  0.93190  0.80760  0.26670  1.0000 -0.1264040376
C   C54       1.0  0.93570  0.83260  0.34690  1.0000 -0.1872153287
C   C55       1.0  0.98580  0.83180  0.16760  1.0000 -0.0113347355
C   C56       1.0  0.09230  0.85810  0.04800  1.0000 0.3415480822
C   C57       1.0  0.06760  0.82980  0.95860  1.0000 -0.2364802813
C   C58       1.0  0.13350  0.85140  0.93730  1.0000 -0.0113347355
C   C59       1.0  0.22390  0.90140  0.00610  1.0000 -0.1982595162
C   C60       1.0  0.24130  0.92660  0.09030  1.0000 0.0566031032
C   C61       1.0  0.50260  0.92080  0.91980  1.0000 0.1794873471
C   C62       1.0  0.44130  0.84760  0.91570  1.0000 -0.1982595162
C   C63       1.0  0.44450  0.77020  0.89110  1.0000 -0.1382469763
C   C64       1.0  0.50760  0.76320  0.87120  1.0000 0.0566031032
C   C65       1.0  0.56810  0.83480  0.87570  1.0000 -0.1264040376
C   C66       1.0  0.56430  0.91120  0.89690  1.0000 -0.1872153287
C   C67       1.0  0.51420  0.68180  0.84600  1.0000 -0.0113347355
C   C68       1.0  0.40770  0.45570  0.76580  1.0000 0.3415480822
C   C69       1.0  0.43240  0.39100  0.76220  1.0000 -0.2364802813
C   C70       1.0  0.36650  0.30380  0.71790  1.0000 -0.0113347355
C   C71       1.0  0.27610  0.28220  0.67750  1.0000 -0.1982595162
C   C72       1.0  0.25870  0.34900  0.68530  1.0000 0.0566031032
C   C73       1.0  0.99900  0.57920  0.08180  1.0000 0.1794873471
C   C74       1.0  0.06810  0.65240  0.09370  1.0000 -0.1982595162
C   C75       1.0  0.12090  0.72980  0.17430  1.0000 -0.1382469763
C   C76       1.0  0.10800  0.73680  0.24440  1.0000 0.0566031032
C   C77       1.0  0.04090  0.66520  0.23330  1.0000 -0.1264040376
C   C78       1.0  0.98570  0.58880  0.15310  1.0000 -0.1872153287
C   C79       1.0  0.16420  0.81820  0.33240  1.0000 -0.0113347355
C   C80       1.0  0.31010  0.04430  0.45200  1.0000 0.3415480822
C   C81       1.0  0.37120  0.10900  0.54140  1.0000 -0.2364802813
C   C82       1.0  0.41410  0.19620  0.56270  1.0000 -0.0113347355
C   C83       1.0  0.39530  0.21780  0.49390  1.0000 -0.1982595162
C   C84       1.0  0.33630  0.15100  0.40970  1.0000 0.0566031032
C   C85       1.0  0.50100  0.58280  0.58020  1.0000 0.1794873471
C   C86       1.0  0.43190  0.52560  0.58430  1.0000 -0.1982595162
C   C87       1.0  0.37910  0.55340  0.60890  1.0000 -0.1382469763
C   C88       1.0  0.39200  0.63640  0.62880  1.0000 0.0566031032
C   C89       1.0  0.45910  0.69240  0.62430  1.0000 -0.1264040376
C   C90       1.0  0.51430  0.66740  0.60310  1.0000 -0.1872153287
C   C91       1.0  0.33580  0.66820  0.65400  1.0000 -0.0113347355
C   C92       1.0  0.18990  0.64190  0.73420  1.0000 0.3415480822
C   C93       1.0  0.12880  0.67020  0.73780  1.0000 -0.2364802813
C   C94       1.0  0.08590  0.64860  0.78210  1.0000 -0.0113347355
C   C95       1.0  0.10470  0.59860  0.82250  1.0000 -0.1982595162
C   C96       1.0  0.16370  0.57340  0.81470  1.0000 0.0566031032
C   C97       1.0  0.41820  0.99740  0.91720  1.0000 0.1794873471
C   C98       1.0  0.40630  0.05870  0.97440  1.0000 -0.1982595162
C   C99       1.0  0.32570  0.05550  0.94660  1.0000 -0.1382469763
C   C100      1.0  0.25560  0.99240  0.86360  1.0000 0.0566031032
C   C101      1.0  0.26670  0.93190  0.80760  1.0000 -0.1264040376
C   C102      1.0  0.34690  0.93570  0.83260  1.0000 -0.1872153287
C   C103      1.0  0.16760  0.98580  0.83180  1.0000 -0.0113347355
C   C104      1.0  0.04800  0.09230  0.85810  1.0000 0.3415480822
C   C105      1.0  0.95860  0.06760  0.82980  1.0000 -0.2364802813
C   C106      1.0  0.93730  0.13350  0.85140  1.0000 -0.0113347355
C   C107      1.0  0.00610  0.22390  0.90140  1.0000 -0.1982595162
C   C108      1.0  0.09030  0.24130  0.92660  1.0000 0.0566031032
C   C109      1.0  0.91980  0.50260  0.92080  1.0000 0.1794873471
C   C110      1.0  0.91570  0.44130  0.84760  1.0000 -0.1982595162
C   C111      1.0  0.89110  0.44450  0.77020  1.0000 -0.1382469763
C   C112      1.0  0.87120  0.50760  0.76320  1.0000 0.0566031032
C   C113      1.0  0.87570  0.56810  0.83480  1.0000 -0.1264040376
C   C114      1.0  0.89690  0.56430  0.91120  1.0000 -0.1872153287
C   C115      1.0  0.84600  0.51420  0.68180  1.0000 -0.0113347355
C   C116      1.0  0.76580  0.40770  0.45570  1.0000 0.3415480822
C   C117      1.0  0.76220  0.43240  0.39100  1.0000 -0.2364802813
C   C118      1.0  0.71790  0.36650  0.30380  1.0000 -0.0113347355
C   C119      1.0  0.67750  0.27610  0.28220  1.0000 -0.1982595162
C   C120      1.0  0.68530  0.25870  0.34900  1.0000 0.0566031032
C   C121      1.0  0.08180  0.99900  0.57920  1.0000 0.1794873471
C   C122      1.0  0.09370  0.06810  0.65240  1.0000 -0.1982595162
C   C123      1.0  0.17430  0.12090  0.72980  1.0000 -0.1382469763
C   C124      1.0  0.24440  0.10800  0.73680  1.0000 0.0566031032
C   C125      1.0  0.23330  0.04090  0.66520  1.0000 -0.1264040376
C   C126      1.0  0.15310  0.98570  0.58880  1.0000 -0.1872153287
C   C127      1.0  0.33240  0.16420  0.81820  1.0000 -0.0113347355
C   C128      1.0  0.45200  0.31010  0.04430  1.0000 0.3415480822
C   C129      1.0  0.54140  0.37120  0.10900  1.0000 -0.2364802813
C   C130      1.0  0.56270  0.41410  0.19620  1.0000 -0.0113347355
C   C131      1.0  0.49390  0.39530  0.21780  1.0000 -0.1982595162
C   C132      1.0  0.40970  0.33630  0.15100  1.0000 0.0566031032
C   C133      1.0  0.58020  0.50100  0.58280  1.0000 0.1794873471
C   C134      1.0  0.58430  0.43190  0.52560  1.0000 -0.1982595162
C   C135      1.0  0.60890  0.37910  0.55340  1.0000 -0.1382469763
C   C136      1.0  0.62880  0.39200  0.63640  1.0000 0.0566031032
C   C137      1.0  0.62430  0.45910  0.69240  1.0000 -0.1264040376
C   C138      1.0  0.60310  0.51430  0.66740  1.0000 -0.1872153287
C   C139      1.0  0.65400  0.33580  0.66820  1.0000 -0.0113347355
C   C140      1.0  0.73420  0.18990  0.64190  1.0000 0.3415480822
C   C141      1.0  0.73780  0.12880  0.67020  1.0000 -0.2364802813
C   C142      1.0  0.78210  0.08590  0.64860  1.0000 -0.0113347355
C   C143      1.0  0.82250  0.10470  0.59860  1.0000 -0.1982595162
C   C144      1.0  0.81470  0.16370  0.57340  1.0000 0.0566031032
N   N1        1.0  0.86920  0.15460  0.04660  1.0000 -0.1264040376
N   N2        1.0  0.83410  0.06800  0.02870  1.0000 -0.2074717611
N   N3        1.0  0.90530  0.11190  0.17700  1.0000 -0.281021608
N   N4        1.0  0.60800  0.82260  0.45340  1.0000 -0.1264040376
N   N5        1.0  0.53930  0.80540  0.47130  1.0000 -0.2074717611
N   N6        1.0  0.43490  0.72830  0.32300  1.0000 -0.281021608
N   N7        1.0  0.89200  0.34540  0.21460  1.0000 -0.1264040376
N   N8        1.0  0.96070  0.43200  0.26610  1.0000 -0.2074717611
N   N9        1.0  0.06510  0.38810  0.29340  1.0000 -0.281021608
N   N10       1.0  0.63080  0.67740  0.28540  1.0000 -0.1264040376
N   N11       1.0  0.66590  0.69460  0.23390  1.0000 -0.2074717611
N   N12       1.0  0.59470  0.77170  0.20660  1.0000 -0.281021608
N   N13       1.0  0.04660  0.86920  0.15460  1.0000 -0.1264040376
N   N14       1.0  0.02870  0.83410  0.06800  1.0000 -0.2074717611
N   N15       1.0  0.17700  0.90530  0.11190  1.0000 -0.281021608
N   N16       1.0  0.45340  0.60800  0.82260  1.0000 -0.1264040376
N   N17       1.0  0.47130  0.53930  0.80540  1.0000 -0.2074717611
N   N18       1.0  0.32300  0.43490  0.72830  1.0000 -0.281021608
N   N19       1.0  0.21460  0.89200  0.34540  1.0000 -0.1264040376
N   N20       1.0  0.26610  0.96070  0.43200  1.0000 -0.2074717611
N   N21       1.0  0.29340  0.06510  0.38810  1.0000 -0.281021608
N   N22       1.0  0.28540  0.63080  0.67740  1.0000 -0.1264040376
N   N23       1.0  0.23390  0.66590  0.69460  1.0000 -0.2074717611
N   N24       1.0  0.20660  0.59470  0.77170  1.0000 -0.281021608
N   N25       1.0  0.15460  0.04660  0.86920  1.0000 -0.1264040376
N   N26       1.0  0.06800  0.02870  0.83410  1.0000 -0.2074717611
N   N27       1.0  0.11190  0.17700  0.90530  1.0000 -0.281021608
N   N28       1.0  0.82260  0.45340  0.60800  1.0000 -0.1264040376
N   N29       1.0  0.80540  0.47130  0.53930  1.0000 -0.2074717611
N   N30       1.0  0.72830  0.32300  0.43490  1.0000 -0.281021608
N   N31       1.0  0.34540  0.21460  0.89200  1.0000 -0.1264040376
N   N32       1.0  0.43200  0.26610  0.96070  1.0000 -0.2074717611
N   N33       1.0  0.38810  0.29340  0.06510  1.0000 -0.281021608
N   N34       1.0  0.67740  0.28540  0.63080  1.0000 -0.1264040376
N   N35       1.0  0.69460  0.23390  0.66590  1.0000 -0.2074717611
N   N36       1.0  0.77170  0.20660  0.59470  1.0000 -0.281021608
N   N37       1.0  0.94500  0.50000  0.00000  1.0000 -0.1690132921
N   N38       1.0  0.00000  0.94500  0.50000  1.0000 -0.1690132921
N   N39       1.0  0.50000  0.00000  0.94500  1.0000 -0.1690132921
N   N40       1.0  0.55500  0.55500  0.55500  1.0000 -0.1690132921
Cl  Cl1       1.0  0.55913  0.25000  0.80913  1.0000 1.2545429538
Cl  Cl2       1.0  0.94087  0.75000  0.69087  1.0000 1.2545429538
Cl  Cl3       1.0  0.25000  0.80913  0.55913  1.0000 1.2545429538
Cl  Cl4       1.0  0.75000  0.69087  0.94087  1.0000 1.2545429538
Cl  Cl5       1.0  0.80913  0.55913  0.25000  1.0000 1.2545429538
Cl  Cl6       1.0  0.69087  0.94087  0.75000  1.0000 1.2545429538
O   O1        1.0  0.57160  0.32360  0.79760  1.0000 -0.4873112669
O   O2        1.0  0.62080  0.22730  0.79690  1.0000 -0.4828253319
O   O3        1.0  0.47400  0.17640  0.74800  1.0000 -0.4873112669
O   O4        1.0  0.56960  0.27270  0.89350  1.0000 -0.4828253319
O   O5        1.0  0.92840  0.72600  0.75200  1.0000 -0.4873112669
O   O6        1.0  0.87920  0.67610  0.60650  1.0000 -0.4828253319
O   O7        1.0  0.02600  0.77400  0.70240  1.0000 -0.4873112669
O   O8        1.0  0.93040  0.82390  0.70310  1.0000 -0.4828253319
O   O9        1.0  0.32360  0.79760  0.57160  1.0000 -0.4873112669
O   O10       1.0  0.22730  0.79690  0.62080  1.0000 -0.4828253319
O   O11       1.0  0.17640  0.74800  0.47400  1.0000 -0.4873112669
O   O12       1.0  0.27270  0.89350  0.56960  1.0000 -0.4828253319
O   O13       1.0  0.72600  0.75200  0.92840  1.0000 -0.4873112669
O   O14       1.0  0.67610  0.60650  0.87920  1.0000 -0.4828253319
O   O15       1.0  0.77400  0.70240  0.02600  1.0000 -0.4873112669
O   O16       1.0  0.82390  0.70310  0.93040  1.0000 -0.4828253319
O   O17       1.0  0.79760  0.57160  0.32360  1.0000 -0.4873112669
O   O18       1.0  0.79690  0.62080  0.22730  1.0000 -0.4828253319
O   O19       1.0  0.74800  0.47400  0.17640  1.0000 -0.4873112669
O   O20       1.0  0.89350  0.56960  0.27270  1.0000 -0.4828253319
O   O21       1.0  0.75200  0.92840  0.72600  1.0000 -0.4873112669
O   O22       1.0  0.60650  0.87920  0.67610  1.0000 -0.4828253319
O   O23       1.0  0.70240  0.02600  0.77400  1.0000 -0.4873112669
O   O24       1.0  0.70310  0.93040  0.82390  1.0000 -0.4828253319
