# DDEC6 charges by PACMAN v1.1 (https://github.com/mtap-research/PACMAN-charge/)
data_2017[Ag][srs]3[ION]41
_chemical_formula_sum              "Ag6 H120 C144 N40 Cl6 O24"
_cell_length_a       18.4463
_cell_length_b       18.4463
_cell_length_c       18.4463
_cell_angle_alpha    109.471
_cell_angle_beta     109.471
_cell_angle_gamma    109.471

_symmetry_space_group_name_H-M    "P 1"
_symmetry_Int_Tables_number       1

loop_
  _symmetry_equiv_pos_as_xyz
  'x, y, z'

loop_
  _atom_site_type_symbol
  _atom_site_label
  _atom_site_symmetry_multiplicity
  _atom_site_fract_x
  _atom_site_fract_y
  _atom_site_fract_z
  _atom_site_occupancy
  _atom_site_charge
Ag  Ag1       1.0  0.95812  0.25000  0.20812  1.0000 0.2722006427
Ag  Ag2       1.0  0.54188  0.75000  0.29188  1.0000 0.2722006427
Ag  Ag3       1.0  0.20812  0.95812  0.25000  1.0000 0.2722006427
Ag  Ag4       1.0  0.29188  0.54188  0.75000  1.0000 0.2722006427
Ag  Ag5       1.0  0.25000  0.20812  0.95812  1.0000 0.2722006427
Ag  Ag6       1.0  0.75000  0.29188  0.54188  1.0000 0.2722006427
H   H1        1.0  0.03450  0.45410  0.10300  1.0000 0.1248164314
H   H2        1.0  0.98670  0.31980  0.09830  1.0000 0.1015742036
H   H3        1.0  0.75130  0.21850  0.88820  1.0000 0.1264175611
H   H4        1.0  0.79260  0.35310  0.89530  1.0000 0.1264175611
H   H5        1.0  0.78220  0.11920  0.93360  1.0000 0.1100289126
H   H6        1.0  0.79870  0.91430  0.01100  1.0000 0.1546627704
H   H7        1.0  0.83510  0.87850  0.12020  1.0000 0.1100289126
H   H8        1.0  0.91360  0.99290  0.27150  1.0000 0.1264175611
H   H9        1.0  0.95960  0.13470  0.30110  1.0000 0.1015742036
H   H10       1.0  0.79740  0.02490  0.97450  1.0000 0.2814152973
H   H11       1.0  0.85110  0.93150  0.39700  1.0000 0.1248164314
H   H12       1.0  0.72150  0.88840  0.40170  1.0000 0.1015742036
H   H13       1.0  0.83030  0.86310  0.61180  1.0000 0.1264175611
H   H14       1.0  0.95780  0.89730  0.60470  1.0000 0.1264175611
H   H15       1.0  0.68560  0.84860  0.56640  1.0000 0.1100289126
H   H16       1.0  0.40330  0.78770  0.48900  1.0000 0.1546627704
H   H17       1.0  0.25830  0.71490  0.37980  1.0000 0.1100289126
H   H18       1.0  0.22140  0.64210  0.22850  1.0000 0.1264175611
H   H19       1.0  0.33360  0.65850  0.19890  1.0000 0.1015742036
H   H20       1.0  0.55040  0.82290  0.52550  1.0000 0.2814152973
H   H21       1.0  0.64890  0.04590  0.08040  1.0000 0.1248164314
H   H22       1.0  0.77850  0.18020  0.16690  1.0000 0.1015742036
H   H23       1.0  0.66970  0.28150  0.03280  1.0000 0.1264175611
H   H24       1.0  0.54220  0.14690  0.93950  1.0000 0.1264175611
H   H25       1.0  0.81440  0.38080  0.16300  1.0000 0.1100289126
H   H26       1.0  0.09670  0.58570  0.38440  1.0000 0.1546627704
H   H27       1.0  0.24170  0.62150  0.45660  1.0000 0.1100289126
H   H28       1.0  0.27860  0.50710  0.42070  1.0000 0.1264175611
H   H29       1.0  0.16640  0.36530  0.32490  1.0000 0.1015742036
H   H30       1.0  0.94960  0.47510  0.27250  1.0000 0.2814152973
H   H31       1.0  0.46550  0.56850  0.41960  1.0000 0.1248164314
H   H32       1.0  0.51330  0.61160  0.33310  1.0000 0.1015742036
H   H33       1.0  0.74870  0.63690  0.46720  1.0000 0.1264175611
H   H34       1.0  0.70740  0.60270  0.56050  1.0000 0.1264175611
H   H35       1.0  0.71780  0.65140  0.33700  1.0000 0.1100289126
H   H36       1.0  0.70130  0.71230  0.11560  1.0000 0.1546627704
H   H37       1.0  0.66490  0.78510  0.04340  1.0000 0.1100289126
H   H38       1.0  0.58640  0.85790  0.07930  1.0000 0.1264175611
H   H39       1.0  0.54040  0.84150  0.17510  1.0000 0.1015742036
H   H40       1.0  0.70260  0.67710  0.22750  1.0000 0.2814152973
H   H41       1.0  0.10300  0.03450  0.45410  1.0000 0.1248164314
H   H42       1.0  0.09830  0.98670  0.31980  1.0000 0.1015742036
H   H43       1.0  0.88820  0.75130  0.21850  1.0000 0.1264175611
H   H44       1.0  0.89530  0.79260  0.35310  1.0000 0.1264175611
H   H45       1.0  0.93360  0.78220  0.11920  1.0000 0.1100289126
H   H46       1.0  0.01100  0.79870  0.91430  1.0000 0.1546627704
H   H47       1.0  0.12020  0.83510  0.87850  1.0000 0.1100289126
H   H48       1.0  0.27150  0.91360  0.99290  1.0000 0.1264175611
H   H49       1.0  0.30110  0.95960  0.13470  1.0000 0.1015742036
H   H50       1.0  0.97450  0.79740  0.02490  1.0000 0.2814152973
H   H51       1.0  0.39700  0.85110  0.93150  1.0000 0.1248164314
H   H52       1.0  0.40170  0.72150  0.88840  1.0000 0.1015742036
H   H53       1.0  0.61180  0.83030  0.86310  1.0000 0.1264175611
H   H54       1.0  0.60470  0.95780  0.89730  1.0000 0.1264175611
H   H55       1.0  0.56640  0.68560  0.84860  1.0000 0.1100289126
H   H56       1.0  0.48900  0.40330  0.78770  1.0000 0.1546627704
H   H57       1.0  0.37980  0.25830  0.71490  1.0000 0.1100289126
H   H58       1.0  0.22850  0.22140  0.64210  1.0000 0.1264175611
H   H59       1.0  0.19890  0.33360  0.65850  1.0000 0.1015742036
H   H60       1.0  0.52550  0.55040  0.82290  1.0000 0.2814152973
H   H61       1.0  0.08040  0.64890  0.04590  1.0000 0.1248164314
H   H62       1.0  0.16690  0.77850  0.18020  1.0000 0.1015742036
H   H63       1.0  0.03280  0.66970  0.28150  1.0000 0.1264175611
H   H64       1.0  0.93950  0.54220  0.14690  1.0000 0.1264175611
H   H65       1.0  0.16300  0.81440  0.38080  1.0000 0.1100289126
H   H66       1.0  0.38440  0.09670  0.58570  1.0000 0.1546627704
H   H67       1.0  0.45660  0.24170  0.62150  1.0000 0.1100289126
H   H68       1.0  0.42070  0.27860  0.50710  1.0000 0.1264175611
H   H69       1.0  0.32490  0.16640  0.36530  1.0000 0.1015742036
H   H70       1.0  0.27250  0.94960  0.47510  1.0000 0.2814152973
H   H71       1.0  0.41960  0.46550  0.56850  1.0000 0.1248164314
H   H72       1.0  0.33310  0.51330  0.61160  1.0000 0.1015742036
H   H73       1.0  0.46720  0.74870  0.63690  1.0000 0.1264175611
H   H74       1.0  0.56050  0.70740  0.60270  1.0000 0.1264175611
H   H75       1.0  0.33700  0.71780  0.65140  1.0000 0.1100289126
H   H76       1.0  0.11560  0.70130  0.71230  1.0000 0.1546627704
H   H77       1.0  0.04340  0.66490  0.78510  1.0000 0.1100289126
H   H78       1.0  0.07930  0.58640  0.85790  1.0000 0.1264175611
H   H79       1.0  0.17510  0.54040  0.84150  1.0000 0.1015742036
H   H80       1.0  0.22750  0.70260  0.67710  1.0000 0.2814152973
H   H81       1.0  0.45410  0.10300  0.03450  1.0000 0.1248164314
H   H82       1.0  0.31980  0.09830  0.98670  1.0000 0.1015742036
H   H83       1.0  0.21850  0.88820  0.75130  1.0000 0.1264175611
H   H84       1.0  0.35310  0.89530  0.79260  1.0000 0.1264175611
H   H85       1.0  0.11920  0.93360  0.78220  1.0000 0.1100289126
H   H86       1.0  0.91430  0.01100  0.79870  1.0000 0.1546627704
H   H87       1.0  0.87850  0.12020  0.83510  1.0000 0.1100289126
H   H88       1.0  0.99290  0.27150  0.91360  1.0000 0.1264175611
H   H89       1.0  0.13470  0.30110  0.95960  1.0000 0.1015742036
H   H90       1.0  0.02490  0.97450  0.79740  1.0000 0.2814152973
H   H91       1.0  0.93150  0.39700  0.85110  1.0000 0.1248164314
H   H92       1.0  0.88840  0.40170  0.72150  1.0000 0.1015742036
H   H93       1.0  0.86310  0.61180  0.83030  1.0000 0.1264175611
H   H94       1.0  0.89730  0.60470  0.95780  1.0000 0.1264175611
H   H95       1.0  0.84860  0.56640  0.68560  1.0000 0.1100289126
H   H96       1.0  0.78770  0.48900  0.40330  1.0000 0.1552576261
H   H97       1.0  0.71490  0.37980  0.25830  1.0000 0.1100289126
H   H98       1.0  0.64210  0.22850  0.22140  1.0000 0.1264175611
H   H99       1.0  0.65850  0.19890  0.33360  1.0000 0.1015742036
H   H100      1.0  0.82290  0.52550  0.55040  1.0000 0.2814152973
H   H101      1.0  0.04590  0.08040  0.64890  1.0000 0.1248164314
H   H102      1.0  0.18020  0.16690  0.77850  1.0000 0.1015742036
H   H103      1.0  0.28150  0.03280  0.66970  1.0000 0.1264175611
H   H104      1.0  0.14690  0.93950  0.54220  1.0000 0.1264175611
H   H105      1.0  0.38080  0.16300  0.81440  1.0000 0.1100289126
H   H106      1.0  0.58570  0.38440  0.09670  1.0000 0.1546627704
H   H107      1.0  0.62150  0.45660  0.24170  1.0000 0.1100289126
H   H108      1.0  0.50710  0.42070  0.27860  1.0000 0.1264175611
H   H109      1.0  0.36530  0.32490  0.16640  1.0000 0.1015742036
H   H110      1.0  0.47510  0.27250  0.94960  1.0000 0.2814152973
H   H111      1.0  0.56850  0.41960  0.46550  1.0000 0.1248164314
H   H112      1.0  0.61160  0.33310  0.51330  1.0000 0.1015742036
H   H113      1.0  0.63690  0.46720  0.74870  1.0000 0.1264175611
H   H114      1.0  0.60270  0.56050  0.70740  1.0000 0.1264175611
H   H115      1.0  0.65140  0.33700  0.71780  1.0000 0.1100289126
H   H116      1.0  0.71230  0.11560  0.70130  1.0000 0.1546627704
H   H117      1.0  0.78510  0.04340  0.66490  1.0000 0.1100289126
H   H118      1.0  0.85790  0.07930  0.58640  1.0000 0.1264175611
H   H119      1.0  0.84150  0.17510  0.54040  1.0000 0.1015742036
H   H120      1.0  0.67710  0.22750  0.70260  1.0000 0.2814152973
C   C1        1.0  0.91920  0.41880  0.99800  1.0000 0.1814836798
C   C2        1.0  0.97660  0.40700  0.05960  1.0000 -0.2097589619
C   C3        1.0  0.94790  0.32650  0.05620  1.0000 -0.1381255189
C   C4        1.0  0.86500  0.25540  0.99380  1.0000 0.0523305555
C   C5        1.0  0.80820  0.26680  0.93260  1.0000 -0.1242471573
C   C6        1.0  0.83340  0.34650  0.93570  1.0000 -0.1907050125
C   C7        1.0  0.83320  0.16800  0.98660  1.0000 -0.0223769617
C   C8        1.0  0.85940  0.04830  0.09450  1.0000 0.329372514
C   C9        1.0  0.83160  0.95890  0.07110  1.0000 -0.2219266892
C   C10       1.0  0.85220  0.93770  0.13490  1.0000 -0.0137111646
C   C11       1.0  0.90020  0.00570  0.22510  1.0000 -0.1907050125
C   C12       1.0  0.92570  0.08910  0.24140  1.0000 0.0523305555
C   C13       1.0  0.92080  0.92120  0.50200  1.0000 0.1814836798
C   C14       1.0  0.84740  0.91700  0.44040  1.0000 -0.2097589619
C   C15       1.0  0.77030  0.89170  0.44380  1.0000 -0.1381255189
C   C16       1.0  0.76160  0.87120  0.50620  1.0000 0.0523305555
C   C17       1.0  0.83420  0.87560  0.56740  1.0000 -0.1242471573
C   C18       1.0  0.91080  0.89770  0.56430  1.0000 -0.1907050125
C   C19       1.0  0.68140  0.84660  0.51340  1.0000 -0.0223769617
C   C20       1.0  0.45380  0.76490  0.40550  1.0000 0.329372514
C   C21       1.0  0.38780  0.76050  0.42890  1.0000 -0.2219266892
C   C22       1.0  0.30280  0.71730  0.36510  1.0000 -0.0137111646
C   C23       1.0  0.28060  0.67510  0.27490  1.0000 -0.1907050125
C   C24       1.0  0.34770  0.68430  0.25860  1.0000 0.0523305555
C   C25       1.0  0.57920  0.08120  0.00040  1.0000 0.1814836798
C   C26       1.0  0.65260  0.09300  0.06960  1.0000 -0.2097589619
C   C27       1.0  0.72970  0.17350  0.12140  1.0000 -0.1381255189
C   C28       1.0  0.73840  0.24460  0.10960  1.0000 0.0523305555
C   C29       1.0  0.66580  0.23320  0.04140  1.0000 -0.1242471573
C   C30       1.0  0.58920  0.15350  0.98690  1.0000 -0.1907050125
C   C31       1.0  0.81860  0.33200  0.16520  1.0000 -0.0223769617
C   C32       1.0  0.04620  0.45170  0.31110  1.0000 0.329372514
C   C33       1.0  0.11220  0.54110  0.37270  1.0000 -0.2219266892
C   C34       1.0  0.19720  0.56230  0.41450  1.0000 -0.0137111646
C   C35       1.0  0.21940  0.49430  0.39450  1.0000 -0.1907050125
C   C36       1.0  0.15230  0.41090  0.33660  1.0000 0.0523305555
C   C37       1.0  0.58080  0.57880  0.49960  1.0000 0.1814836798
C   C38       1.0  0.52340  0.58300  0.43040  1.0000 -0.2097589619
C   C39       1.0  0.55210  0.60830  0.37860  1.0000 -0.1381255189
C   C40       1.0  0.63500  0.62880  0.39040  1.0000 0.0523305555
C   C41       1.0  0.69180  0.62440  0.45860  1.0000 -0.1242471573
C   C42       1.0  0.66667  0.60230  0.51310  1.0000 -0.1907050125
C   C43       1.0  0.66680  0.65340  0.33480  1.0000 -0.0223769617
C   C44       1.0  0.64060  0.73510  0.18890  1.0000 0.329372514
C   C45       1.0  0.66840  0.73950  0.12730  1.0000 -0.2219266892
C   C46       1.0  0.64780  0.78270  0.08550  1.0000 -0.0137111646
C   C47       1.0  0.59980  0.82490  0.10550  1.0000 -0.1907050125
C   C48       1.0  0.57430  0.81570  0.16340  1.0000 0.0523305555
C   C49       1.0  0.99800  0.91920  0.41880  1.0000 0.1814836798
C   C50       1.0  0.05960  0.97660  0.40700  1.0000 -0.2097589619
C   C51       1.0  0.05620  0.94790  0.32650  1.0000 -0.1381255189
C   C52       1.0  0.99380  0.86500  0.25540  1.0000 0.0523305555
C   C53       1.0  0.93260  0.80820  0.26680  1.0000 -0.1242471573
C   C54       1.0  0.93570  0.83340  0.34650  1.0000 -0.1907050125
C   C55       1.0  0.98660  0.83320  0.16800  1.0000 -0.0223769617
C   C56       1.0  0.09450  0.85940  0.04830  1.0000 0.329372514
C   C57       1.0  0.07110  0.83160  0.95890  1.0000 -0.2219266892
C   C58       1.0  0.13490  0.85220  0.93770  1.0000 -0.0137111646
C   C59       1.0  0.22510  0.90020  0.00570  1.0000 -0.1907050125
C   C60       1.0  0.24140  0.92570  0.08910  1.0000 0.0523305555
C   C61       1.0  0.50200  0.92080  0.92120  1.0000 0.1814836798
C   C62       1.0  0.44040  0.84740  0.91700  1.0000 -0.2097589619
C   C63       1.0  0.44380  0.77030  0.89170  1.0000 -0.1381255189
C   C64       1.0  0.50620  0.76160  0.87120  1.0000 0.0523305555
C   C65       1.0  0.56740  0.83420  0.87560  1.0000 -0.1242471573
C   C66       1.0  0.56430  0.91080  0.89770  1.0000 -0.1907050125
C   C67       1.0  0.51340  0.68140  0.84660  1.0000 -0.0223769617
C   C68       1.0  0.40550  0.45380  0.76490  1.0000 0.329372514
C   C69       1.0  0.42890  0.38780  0.76050  1.0000 -0.2219266892
C   C70       1.0  0.36510  0.30280  0.71730  1.0000 -0.0137111646
C   C71       1.0  0.27490  0.28060  0.67510  1.0000 -0.1907050125
C   C72       1.0  0.25860  0.34770  0.68430  1.0000 0.0523305555
C   C73       1.0  0.00040  0.57920  0.08120  1.0000 0.1814836798
C   C74       1.0  0.06960  0.65260  0.09300  1.0000 -0.2097589619
C   C75       1.0  0.12140  0.72970  0.17350  1.0000 -0.1381255189
C   C76       1.0  0.10960  0.73840  0.24460  1.0000 0.0523305555
C   C77       1.0  0.04140  0.66580  0.23320  1.0000 -0.1242471573
C   C78       1.0  0.98690  0.58920  0.15350  1.0000 -0.1907050125
C   C79       1.0  0.16520  0.81860  0.33200  1.0000 -0.0223769617
C   C80       1.0  0.31110  0.04620  0.45170  1.0000 0.329372514
C   C81       1.0  0.37270  0.11220  0.54110  1.0000 -0.2219266892
C   C82       1.0  0.41450  0.19720  0.56230  1.0000 -0.0137111646
C   C83       1.0  0.39450  0.21940  0.49430  1.0000 -0.1907050125
C   C84       1.0  0.33660  0.15230  0.41090  1.0000 0.0523305555
C   C85       1.0  0.49960  0.58080  0.57880  1.0000 0.1814836798
C   C86       1.0  0.43040  0.52340  0.58300  1.0000 -0.2097589619
C   C87       1.0  0.37860  0.55210  0.60830  1.0000 -0.1381255189
C   C88       1.0  0.39040  0.63500  0.62880  1.0000 0.0523305555
C   C89       1.0  0.45860  0.69180  0.62440  1.0000 -0.1242471573
C   C90       1.0  0.51310  0.66667  0.60230  1.0000 -0.1907050125
C   C91       1.0  0.33480  0.66680  0.65340  1.0000 -0.0223769617
C   C92       1.0  0.18890  0.64060  0.73510  1.0000 0.329372514
C   C93       1.0  0.12730  0.66840  0.73950  1.0000 -0.2219266892
C   C94       1.0  0.08550  0.64780  0.78270  1.0000 -0.0137111646
C   C95       1.0  0.10550  0.59980  0.82490  1.0000 -0.1907050125
C   C96       1.0  0.16340  0.57430  0.81570  1.0000 0.0523305555
C   C97       1.0  0.41880  0.99800  0.91920  1.0000 0.1814836798
C   C98       1.0  0.40700  0.05960  0.97660  1.0000 -0.2097589619
C   C99       1.0  0.32650  0.05620  0.94790  1.0000 -0.1381255189
C   C100      1.0  0.25540  0.99380  0.86500  1.0000 0.0523305555
C   C101      1.0  0.26680  0.93260  0.80820  1.0000 -0.1277210731
C   C102      1.0  0.34650  0.93570  0.83340  1.0000 -0.1907050125
C   C103      1.0  0.16800  0.98660  0.83320  1.0000 -0.0223769617
C   C104      1.0  0.04830  0.09450  0.85940  1.0000 0.329372514
C   C105      1.0  0.95890  0.07110  0.83160  1.0000 -0.2219266892
C   C106      1.0  0.93770  0.13490  0.85220  1.0000 -0.0137111646
C   C107      1.0  0.00570  0.22510  0.90020  1.0000 -0.1907050125
C   C108      1.0  0.08910  0.24140  0.92570  1.0000 0.0523305555
C   C109      1.0  0.92120  0.50200  0.92080  1.0000 0.1814836798
C   C110      1.0  0.91700  0.44040  0.84740  1.0000 -0.2097589619
C   C111      1.0  0.89170  0.44380  0.77030  1.0000 -0.1381255189
C   C112      1.0  0.87120  0.50620  0.76160  1.0000 0.0523305555
C   C113      1.0  0.87560  0.56740  0.83420  1.0000 -0.1242471573
C   C114      1.0  0.89770  0.56430  0.91080  1.0000 -0.1907050125
C   C115      1.0  0.84660  0.51340  0.68140  1.0000 -0.0223769617
C   C116      1.0  0.76490  0.40550  0.45380  1.0000 0.329372514
C   C117      1.0  0.76050  0.42890  0.38780  1.0000 -0.2219266892
C   C118      1.0  0.71730  0.36510  0.30280  1.0000 -0.0137111646
C   C119      1.0  0.67510  0.27490  0.28060  1.0000 -0.1907050125
C   C120      1.0  0.68430  0.25860  0.34770  1.0000 0.0523305555
C   C121      1.0  0.08120  0.00040  0.57920  1.0000 0.1814836798
C   C122      1.0  0.09300  0.06960  0.65260  1.0000 -0.2097589619
C   C123      1.0  0.17350  0.12140  0.72970  1.0000 -0.1381255189
C   C124      1.0  0.24460  0.10960  0.73840  1.0000 0.0523305555
C   C125      1.0  0.23320  0.04140  0.66580  1.0000 -0.1242471573
C   C126      1.0  0.15350  0.98690  0.58920  1.0000 -0.1907050125
C   C127      1.0  0.33200  0.16520  0.81860  1.0000 -0.0223769617
C   C128      1.0  0.45170  0.31110  0.04620  1.0000 0.329372514
C   C129      1.0  0.54110  0.37270  0.11220  1.0000 -0.2219266892
C   C130      1.0  0.56230  0.41450  0.19720  1.0000 -0.0137111646
C   C131      1.0  0.49430  0.39450  0.21940  1.0000 -0.1907050125
C   C132      1.0  0.41090  0.33660  0.15230  1.0000 0.0523305555
C   C133      1.0  0.57880  0.49960  0.58080  1.0000 0.1814836798
C   C134      1.0  0.58300  0.43040  0.52340  1.0000 -0.2097589619
C   C135      1.0  0.60830  0.37860  0.55210  1.0000 -0.1381255189
C   C136      1.0  0.62880  0.39040  0.63500  1.0000 0.0523305555
C   C137      1.0  0.62440  0.45860  0.69180  1.0000 -0.1242471573
C   C138      1.0  0.60230  0.51310  0.66667  1.0000 -0.1907050125
C   C139      1.0  0.65340  0.33480  0.66680  1.0000 -0.0223769617
C   C140      1.0  0.73510  0.18890  0.64060  1.0000 0.329372514
C   C141      1.0  0.73950  0.12730  0.66840  1.0000 -0.2219266892
C   C142      1.0  0.78270  0.08550  0.64780  1.0000 -0.0137111646
C   C143      1.0  0.82490  0.10550  0.59980  1.0000 -0.1907050125
C   C144      1.0  0.81570  0.16340  0.57430  1.0000 0.0523305555
N   N1        1.0  0.87040  0.15440  0.04760  1.0000 -0.1277210731
N   N2        1.0  0.83540  0.06770  0.02910  1.0000 -0.2097589619
N   N3        1.0  0.90630  0.11250  0.17920  1.0000 -0.263648618
N   N4        1.0  0.60680  0.82280  0.45240  1.0000 -0.1277210731
N   N5        1.0  0.53860  0.80630  0.47090  1.0000 -0.2097589619
N   N6        1.0  0.43330  0.72710  0.32080  1.0000 -0.263648618
N   N7        1.0  0.89320  0.34560  0.21600  1.0000 -0.1277210731
N   N8        1.0  0.96140  0.43230  0.26770  1.0000 -0.2097589619
N   N9        1.0  0.06670  0.38750  0.29380  1.0000 -0.263648618
N   N10       1.0  0.62960  0.67720  0.28400  1.0000 -0.1277210731
N   N11       1.0  0.66460  0.69370  0.23230  1.0000 -0.2219266892
N   N12       1.0  0.59370  0.77290  0.20620  1.0000 -0.263648618
N   N13       1.0  0.04760  0.87040  0.15440  1.0000 -0.1277210731
N   N14       1.0  0.02910  0.83540  0.06770  1.0000 -0.2097589619
N   N15       1.0  0.17920  0.90630  0.11250  1.0000 -0.263648618
N   N16       1.0  0.45240  0.60680  0.82280  1.0000 -0.1277210731
N   N17       1.0  0.47090  0.53860  0.80630  1.0000 -0.2097589619
N   N18       1.0  0.32080  0.43330  0.72710  1.0000 -0.263648618
N   N19       1.0  0.21600  0.89320  0.34560  1.0000 -0.1277210731
N   N20       1.0  0.26770  0.96140  0.43230  1.0000 -0.2097589619
N   N21       1.0  0.29380  0.06670  0.38750  1.0000 -0.263648618
N   N22       1.0  0.28400  0.62960  0.67720  1.0000 -0.1277210731
N   N23       1.0  0.23230  0.66460  0.69370  1.0000 -0.2097589619
N   N24       1.0  0.20620  0.59370  0.77290  1.0000 -0.263648618
N   N25       1.0  0.15440  0.04760  0.87040  1.0000 -0.1277210731
N   N26       1.0  0.06770  0.02910  0.83540  1.0000 -0.2097589619
N   N27       1.0  0.11250  0.17920  0.90630  1.0000 -0.263648618
N   N28       1.0  0.82280  0.45240  0.60680  1.0000 -0.1277210731
N   N29       1.0  0.80630  0.47090  0.53860  1.0000 -0.2097589619
N   N30       1.0  0.72710  0.32080  0.43330  1.0000 -0.263648618
N   N31       1.0  0.34560  0.21600  0.89320  1.0000 -0.1277210731
N   N32       1.0  0.43230  0.26770  0.96140  1.0000 -0.2097589619
N   N33       1.0  0.38750  0.29380  0.06670  1.0000 -0.263648618
N   N34       1.0  0.67720  0.28400  0.62960  1.0000 -0.1277210731
N   N35       1.0  0.69370  0.23230  0.66460  1.0000 -0.2097589619
N   N36       1.0  0.77290  0.20620  0.59370  1.0000 -0.263648618
N   N37       1.0  0.94640  0.50000  0.00000  1.0000 -0.1574958091
N   N38       1.0  0.00000  0.94640  0.50000  1.0000 -0.1574958091
N   N39       1.0  0.50000  0.00000  0.94640  1.0000 -0.1574958091
N   N40       1.0  0.55360  0.55360  0.55360  1.0000 -0.1574958091
Cl  Cl1       1.0  0.55959  0.25000  0.80959  1.0000 1.2548538583
Cl  Cl2       1.0  0.94041  0.75000  0.69041  1.0000 1.2548538583
Cl  Cl3       1.0  0.25000  0.80959  0.55959  1.0000 1.2557627993
Cl  Cl4       1.0  0.75000  0.69041  0.94041  1.0000 1.2557627993
Cl  Cl5       1.0  0.80959  0.55959  0.25000  1.0000 1.2557627993
Cl  Cl6       1.0  0.69041  0.94041  0.75000  1.0000 1.2557627993
O   O1        1.0  0.57180  0.32340  0.79700  1.0000 -0.4931593798
O   O2        1.0  0.62110  0.22650  0.79760  1.0000 -0.4831039372
O   O3        1.0  0.47360  0.17660  0.74840  1.0000 -0.4931593798
O   O4        1.0  0.57110  0.27350  0.89460  1.0000 -0.4831039372
O   O5        1.0  0.92820  0.72520  0.75160  1.0000 -0.4931593798
O   O6        1.0  0.87890  0.67650  0.60540  1.0000 -0.4831039372
O   O7        1.0  0.02640  0.77480  0.70300  1.0000 -0.4931593798
O   O8        1.0  0.92890  0.82350  0.70240  1.0000 -0.4831039372
O   O9        1.0  0.32340  0.79700  0.57180  1.0000 -0.4931593798
O   O10       1.0  0.22650  0.79760  0.62110  1.0000 -0.4831039372
O   O11       1.0  0.17660  0.74840  0.47360  1.0000 -0.4931593798
O   O12       1.0  0.27350  0.89460  0.57110  1.0000 -0.4831039372
O   O13       1.0  0.72520  0.75160  0.92820  1.0000 -0.4931593798
O   O14       1.0  0.67650  0.60540  0.87890  1.0000 -0.4831039372
O   O15       1.0  0.77480  0.70300  0.02640  1.0000 -0.4931593798
O   O16       1.0  0.82350  0.70240  0.92890  1.0000 -0.4831039372
O   O17       1.0  0.79700  0.57180  0.32340  1.0000 -0.4931593798
O   O18       1.0  0.79760  0.62110  0.22650  1.0000 -0.4831039372
O   O19       1.0  0.74840  0.47360  0.17660  1.0000 -0.4931593798
O   O20       1.0  0.89460  0.57110  0.27350  1.0000 -0.4831039372
O   O21       1.0  0.75160  0.92820  0.72520  1.0000 -0.4931593798
O   O22       1.0  0.60540  0.87890  0.67650  1.0000 -0.4831039372
O   O23       1.0  0.70300  0.02640  0.77480  1.0000 -0.4931593798
O   O24       1.0  0.70240  0.92890  0.82350  1.0000 -0.4831039372
