# DDEC6 charges by PACMAN v1.1 (https://github.com/mtap-research/PACMAN-charge/)
data_2017[Ag][srs]3[ION]3
_chemical_formula_sum              "Ag6 H108 C144 N40 Cl18 O24"
_cell_length_a       18.4597
_cell_length_b       18.4597
_cell_length_c       18.4597
_cell_angle_alpha    109.471
_cell_angle_beta     109.471
_cell_angle_gamma    109.471

_symmetry_space_group_name_H-M    "P 1"
_symmetry_Int_Tables_number       1

loop_
  _symmetry_equiv_pos_as_xyz
  'x, y, z'

loop_
  _atom_site_type_symbol
  _atom_site_label
  _atom_site_symmetry_multiplicity
  _atom_site_fract_x
  _atom_site_fract_y
  _atom_site_fract_z
  _atom_site_occupancy
  _atom_site_charge
Ag  Ag1       1.0  0.25000  0.71124  0.46124  1.0000 0.3007864899
Ag  Ag2       1.0  0.75000  0.78876  0.03876  1.0000 0.3007864899
Ag  Ag3       1.0  0.78876  0.03876  0.75000  1.0000 0.3007864899
Ag  Ag4       1.0  0.71124  0.46124  0.25000  1.0000 0.3007864899
Ag  Ag5       1.0  0.46124  0.25000  0.71124  1.0000 0.3007864899
Ag  Ag6       1.0  0.03876  0.75000  0.78876  1.0000 0.3007864899
H   H1        1.0  0.06210  0.60320  0.14910  1.0000 0.1302631643
H   H2        1.0  0.10940  0.60190  0.28190  1.0000 0.1104655858
H   H3        1.0  0.13630  0.39240  0.17170  1.0000 0.1302631643
H   H4        1.0  0.09370  0.39520  0.04090  1.0000 0.1198196345
H   H5        1.0  0.15200  0.43690  0.31610  1.0000 0.1198196345
H   H6        1.0  0.21220  0.50780  0.59620  1.0000 0.1559886333
H   H7        1.0  0.28460  0.61930  0.74370  1.0000 0.1104655858
H   H8        1.0  0.35300  0.76540  0.78120  1.0000 0.1302631643
H   H9        1.0  0.17980  0.47640  0.44940  1.0000 0.2797493087
H   H10       1.0  0.95410  0.91300  0.35090  1.0000 0.1302631643
H   H11       1.0  0.82000  0.82750  0.21810  1.0000 0.1104655858
H   H12       1.0  0.72070  0.96460  0.32830  1.0000 0.1302631643
H   H13       1.0  0.85430  0.05280  0.45910  1.0000 0.1198196345
H   H14       1.0  0.62080  0.83590  0.18390  1.0000 0.1198196345
H   H15       1.0  0.41160  0.61600  0.90380  1.0000 0.1559886333
H   H16       1.0  0.37560  0.54090  0.75630  1.0000 0.1104655858
H   H17       1.0  0.48420  0.57180  0.71880  1.0000 0.1302631643
H   H18       1.0  0.52700  0.73040  0.05060  1.0000 0.2797493087
H   H19       1.0  0.43790  0.58700  0.54110  1.0000 0.1302631643
H   H20       1.0  0.39060  0.67250  0.49250  1.0000 0.1104655858
H   H21       1.0  0.36370  0.53540  0.25610  1.0000 0.1302631643
H   H22       1.0  0.40630  0.44720  0.30150  1.0000 0.1198196345
H   H23       1.0  0.34800  0.66410  0.28490  1.0000 0.1198196345
H   H24       1.0  0.28780  0.88400  0.29560  1.0000 0.1559886333
H   H25       1.0  0.21540  0.95910  0.33470  1.0000 0.1104655858
H   H26       1.0  0.14700  0.92820  0.41240  1.0000 0.1302631643
H   H27       1.0  0.32020  0.76960  0.29660  1.0000 0.2797493087
H   H28       1.0  0.54590  0.89680  0.95890  1.0000 0.1302631643
H   H29       1.0  0.68000  0.89810  0.00750  1.0000 0.1104655858
H   H30       1.0  0.77930  0.10760  0.24390  1.0000 0.1302631643
H   H31       1.0  0.64570  0.10480  0.19850  1.0000 0.1198196345
H   H32       1.0  0.87920  0.06310  0.21510  1.0000 0.1198196345
H   H33       1.0  0.08840  0.99220  0.20440  1.0000 0.1559886333
H   H34       1.0  0.12440  0.88070  0.16530  1.0000 0.1104655858
H   H35       1.0  0.01580  0.73460  0.08760  1.0000 0.1302631643
H   H36       1.0  0.97300  0.02360  0.20340  1.0000 0.2797493087
H   H37       1.0  0.89680  0.95890  0.54590  1.0000 0.1302631643
H   H38       1.0  0.89810  0.00750  0.68000  1.0000 0.1104655858
H   H39       1.0  0.10760  0.24390  0.77930  1.0000 0.1302631643
H   H40       1.0  0.10480  0.19850  0.64570  1.0000 0.1198196345
H   H41       1.0  0.06310  0.21510  0.87920  1.0000 0.1198196345
H   H42       1.0  0.99220  0.20440  0.08840  1.0000 0.1559886333
H   H43       1.0  0.88070  0.16530  0.12440  1.0000 0.1104655858
H   H44       1.0  0.73460  0.08760  0.01580  1.0000 0.1302631643
H   H45       1.0  0.02360  0.20340  0.97300  1.0000 0.2797493087
H   H46       1.0  0.58700  0.54110  0.43790  1.0000 0.1302631643
H   H47       1.0  0.67250  0.49250  0.39060  1.0000 0.1104655858
H   H48       1.0  0.53540  0.25610  0.36370  1.0000 0.1302631643
H   H49       1.0  0.44720  0.30150  0.40630  1.0000 0.1198196345
H   H50       1.0  0.66410  0.28490  0.34800  1.0000 0.1198196345
H   H51       1.0  0.88400  0.29560  0.28780  1.0000 0.1559886333
H   H52       1.0  0.95910  0.33470  0.21540  1.0000 0.1104655858
H   H53       1.0  0.92820  0.41240  0.14700  1.0000 0.1302631643
H   H54       1.0  0.76960  0.29660  0.32020  1.0000 0.2797493087
H   H55       1.0  0.91300  0.35090  0.95410  1.0000 0.1302631643
H   H56       1.0  0.82750  0.21810  0.82000  1.0000 0.1104655858
H   H57       1.0  0.96460  0.32830  0.72070  1.0000 0.1302631643
H   H58       1.0  0.05280  0.45910  0.85430  1.0000 0.1198196345
H   H59       1.0  0.83590  0.18390  0.62080  1.0000 0.1198196345
H   H60       1.0  0.61600  0.90380  0.41160  1.0000 0.1559886333
H   H61       1.0  0.54090  0.75630  0.37560  1.0000 0.1104655858
H   H62       1.0  0.57180  0.71880  0.48420  1.0000 0.1302631643
H   H63       1.0  0.73040  0.05060  0.52700  1.0000 0.2797493087
H   H64       1.0  0.60320  0.14910  0.06210  1.0000 0.1302631643
H   H65       1.0  0.60190  0.28190  0.10940  1.0000 0.1104655858
H   H66       1.0  0.39240  0.17170  0.13630  1.0000 0.1302631643
H   H67       1.0  0.39520  0.04090  0.09370  1.0000 0.1198196345
H   H68       1.0  0.43690  0.31610  0.15200  1.0000 0.1198196345
H   H69       1.0  0.50780  0.59620  0.21220  1.0000 0.1559886333
H   H70       1.0  0.61930  0.74370  0.28460  1.0000 0.1104655858
H   H71       1.0  0.76540  0.78120  0.35300  1.0000 0.1302631643
H   H72       1.0  0.47640  0.44940  0.17980  1.0000 0.2797493087
H   H73       1.0  0.54110  0.43790  0.58700  1.0000 0.1302631643
H   H74       1.0  0.49250  0.39060  0.67250  1.0000 0.1104655858
H   H75       1.0  0.25610  0.36370  0.53540  1.0000 0.1302631643
H   H76       1.0  0.30150  0.40630  0.44720  1.0000 0.1198196345
H   H77       1.0  0.28490  0.34800  0.66410  1.0000 0.1198196345
H   H78       1.0  0.29560  0.28780  0.88400  1.0000 0.1559886333
H   H79       1.0  0.33470  0.21540  0.95910  1.0000 0.1104655858
H   H80       1.0  0.41240  0.14700  0.92820  1.0000 0.1302631643
H   H81       1.0  0.29660  0.32020  0.76960  1.0000 0.2797493087
H   H82       1.0  0.95890  0.54590  0.89680  1.0000 0.1302631643
H   H83       1.0  0.00750  0.68000  0.89810  1.0000 0.1104655858
H   H84       1.0  0.24390  0.77930  0.10760  1.0000 0.1302631643
H   H85       1.0  0.19850  0.64570  0.10480  1.0000 0.1198196345
H   H86       1.0  0.21510  0.87920  0.06310  1.0000 0.1198196345
H   H87       1.0  0.20440  0.08840  0.99220  1.0000 0.1559886333
H   H88       1.0  0.16530  0.12440  0.88070  1.0000 0.1104655858
H   H89       1.0  0.08760  0.01580  0.73460  1.0000 0.1302631643
H   H90       1.0  0.20340  0.97300  0.02360  1.0000 0.2797493087
H   H91       1.0  0.14910  0.06210  0.60320  1.0000 0.1302631643
H   H92       1.0  0.28190  0.10940  0.60190  1.0000 0.1104655858
H   H93       1.0  0.17170  0.13630  0.39240  1.0000 0.1302631643
H   H94       1.0  0.04090  0.09370  0.39520  1.0000 0.1198196345
H   H95       1.0  0.31610  0.15200  0.43690  1.0000 0.1198196345
H   H96       1.0  0.59620  0.21220  0.50780  1.0000 0.1559886333
H   H97       1.0  0.74370  0.28460  0.61930  1.0000 0.1104655858
H   H98       1.0  0.78120  0.35300  0.76540  1.0000 0.1302631643
H   H99       1.0  0.44940  0.17980  0.47640  1.0000 0.2797493087
H   H100      1.0  0.35090  0.95410  0.91300  1.0000 0.1302631643
H   H101      1.0  0.21810  0.82000  0.82750  1.0000 0.1104655858
H   H102      1.0  0.32830  0.72070  0.96460  1.0000 0.1302631643
H   H103      1.0  0.45910  0.85430  0.05280  1.0000 0.1198196345
H   H104      1.0  0.18390  0.62080  0.83590  1.0000 0.1198196345
H   H105      1.0  0.90380  0.41160  0.61600  1.0000 0.1559886333
H   H106      1.0  0.75630  0.37560  0.54090  1.0000 0.1104655858
H   H107      1.0  0.71880  0.48420  0.57180  1.0000 0.1302631643
H   H108      1.0  0.05060  0.52700  0.73040  1.0000 0.2797493087
C   C1        1.0  0.07330  0.49910  0.08120  1.0000 0.1778695133
C   C2        1.0  0.07780  0.56080  0.15380  1.0000 -0.1925437454
C   C3        1.0  0.10540  0.55950  0.23270  1.0000 -0.1371323395
C   C4        1.0  0.12700  0.49670  0.23990  1.0000 0.0621560336
C   C5        1.0  0.12180  0.43550  0.16730  1.0000 -0.1214884597
C   C6        1.0  0.09600  0.43680  0.08920  1.0000 -0.1817460045
C   C7        1.0  0.15370  0.48980  0.32070  1.0000 -0.008212171
C   C8        1.0  0.23600  0.59440  0.54860  1.0000 0.3437670317
C   C9        1.0  0.23890  0.56810  0.61240  1.0000 -0.2401110384
C   C10       1.0  0.28230  0.63420  0.69930  1.0000 -0.008212171
C   C11       1.0  0.32140  0.72000  0.72160  1.0000 -0.2320077373
C   C12       1.0  0.31410  0.73920  0.65550  1.0000 0.2797493087
C   C13       1.0  0.91790  0.99210  0.41880  1.0000 0.1778695133
C   C14       1.0  0.90700  0.92400  0.34620  1.0000 -0.1925437454
C   C15       1.0  0.82680  0.87270  0.26730  1.0000 -0.1371323395
C   C16       1.0  0.75680  0.88710  0.26010  1.0000 0.0621560336
C   C17       1.0  0.76820  0.95450  0.33270  1.0000 -0.1214884597
C   C18       1.0  0.84760  0.00680  0.41080  1.0000 -0.1817460045
C   C19       1.0  0.66910  0.83300  0.17930  1.0000 -0.008212171
C   C20       1.0  0.54580  0.68740  0.95140  1.0000 0.3437670317
C   C21       1.0  0.45570  0.62650  0.88760  1.0000 -0.2401110384
C   C22       1.0  0.43490  0.58300  0.80070  1.0000 -0.008212171
C   C23       1.0  0.49840  0.59980  0.77840  1.0000 -0.2320077373
C   C24       1.0  0.58370  0.65860  0.84450  1.0000 0.2797493087
C   C25       1.0  0.42670  0.50790  0.42580  1.0000 0.1778695133
C   C26       1.0  0.42220  0.57600  0.48300  1.0000 -0.1925437454
C   C27       1.0  0.39460  0.62730  0.45410  1.0000 -0.1371323395
C   C28       1.0  0.37300  0.61290  0.36970  1.0000 0.0621560336
C   C29       1.0  0.37820  0.54550  0.31370  1.0000 -0.1214884597
C   C30       1.0  0.40400  0.49320  0.34080  1.0000 -0.1817460045
C   C31       1.0  0.34630  0.66700  0.33610  1.0000 -0.008212171
C   C32       1.0  0.26400  0.81260  0.35840  1.0000 0.3437670317
C   C33       1.0  0.26110  0.87350  0.32920  1.0000 -0.2401110384
C   C34       1.0  0.21770  0.91700  0.35190  1.0000 -0.008212171
C   C35       1.0  0.17860  0.90020  0.39860  1.0000 -0.2320077373
C   C36       1.0  0.18590  0.84140  0.42510  1.0000 0.2797493087
C   C37       1.0  0.58210  0.00090  0.07420  1.0000 0.1778695133
C   C38       1.0  0.59300  0.93920  0.01700  1.0000 -0.1925437454
C   C39       1.0  0.67320  0.94050  0.04590  1.0000 -0.1371323395
C   C40       1.0  0.74320  0.00330  0.13030  1.0000 0.0621560336
C   C41       1.0  0.73180  0.06450  0.18630  1.0000 -0.1214884597
C   C42       1.0  0.65240  0.06320  0.15920  1.0000 -0.1817460045
C   C43       1.0  0.83090  0.01020  0.16390  1.0000 -0.008212171
C   C44       1.0  0.95420  0.90560  0.14160  1.0000 0.3437670317
C   C45       1.0  0.04430  0.93190  0.17080  1.0000 -0.2401110384
C   C46       1.0  0.06510  0.86580  0.14810  1.0000 -0.008212171
C   C47       1.0  0.00160  0.78000  0.10140  1.0000 -0.2320077373
C   C48       1.0  0.91630  0.76080  0.07490  1.0000 0.2797493087
C   C49       1.0  0.00090  0.07420  0.58210  1.0000 0.1778695133
C   C50       1.0  0.93920  0.01700  0.59300  1.0000 -0.1925437454
C   C51       1.0  0.94050  0.04590  0.67320  1.0000 -0.1371323395
C   C52       1.0  0.00330  0.13030  0.74320  1.0000 0.0621560336
C   C53       1.0  0.06450  0.18630  0.73180  1.0000 -0.1214884597
C   C54       1.0  0.06320  0.15920  0.65240  1.0000 -0.1817460045
C   C55       1.0  0.01020  0.16390  0.83090  1.0000 -0.008212171
C   C56       1.0  0.90560  0.14160  0.95420  1.0000 0.3437670317
C   C57       1.0  0.93190  0.17080  0.04430  1.0000 -0.2401110384
C   C58       1.0  0.86580  0.14810  0.06510  1.0000 -0.008212171
C   C59       1.0  0.78000  0.10140  0.00160  1.0000 -0.2320077373
C   C60       1.0  0.76080  0.07490  0.91630  1.0000 0.2797493087
C   C61       1.0  0.50790  0.42580  0.42670  1.0000 0.1778695133
C   C62       1.0  0.57600  0.48300  0.42220  1.0000 -0.1925437454
C   C63       1.0  0.62730  0.45410  0.39460  1.0000 -0.1371323395
C   C64       1.0  0.61290  0.36970  0.37300  1.0000 0.0621560336
C   C65       1.0  0.54550  0.31370  0.37820  1.0000 -0.1214884597
C   C66       1.0  0.49320  0.34080  0.40400  1.0000 -0.1817460045
C   C67       1.0  0.66700  0.33610  0.34630  1.0000 -0.008212171
C   C68       1.0  0.81260  0.35840  0.26400  1.0000 0.3437670317
C   C69       1.0  0.87350  0.32920  0.26110  1.0000 -0.2401110384
C   C70       1.0  0.91700  0.35190  0.21770  1.0000 -0.008212171
C   C71       1.0  0.90020  0.39860  0.17860  1.0000 -0.2320077373
C   C72       1.0  0.84140  0.42510  0.18590  1.0000 0.2797493087
C   C73       1.0  0.99210  0.41880  0.91790  1.0000 0.1778695133
C   C74       1.0  0.92400  0.34620  0.90700  1.0000 -0.1925437454
C   C75       1.0  0.87270  0.26730  0.82680  1.0000 -0.1371323395
C   C76       1.0  0.88710  0.26010  0.75680  1.0000 0.0621560336
C   C77       1.0  0.95450  0.33270  0.76820  1.0000 -0.1214884597
C   C78       1.0  0.00680  0.41080  0.84760  1.0000 -0.1817460045
C   C79       1.0  0.83300  0.17930  0.66910  1.0000 -0.008212171
C   C80       1.0  0.68740  0.95140  0.54580  1.0000 0.3437670317
C   C81       1.0  0.62650  0.88760  0.45570  1.0000 -0.2401110384
C   C82       1.0  0.58300  0.80070  0.43490  1.0000 -0.008212171
C   C83       1.0  0.59980  0.77840  0.49840  1.0000 -0.2320077373
C   C84       1.0  0.65860  0.84450  0.58370  1.0000 0.2797493087
C   C85       1.0  0.49910  0.08120  0.07330  1.0000 0.1778695133
C   C86       1.0  0.56080  0.15380  0.07780  1.0000 -0.1925437454
C   C87       1.0  0.55950  0.23270  0.10540  1.0000 -0.1371323395
C   C88       1.0  0.49670  0.23990  0.12700  1.0000 0.0621560336
C   C89       1.0  0.43550  0.16730  0.12180  1.0000 -0.1214884597
C   C90       1.0  0.43680  0.08920  0.09600  1.0000 -0.1817460045
C   C91       1.0  0.48980  0.32070  0.15370  1.0000 -0.008212171
C   C92       1.0  0.59440  0.54860  0.23600  1.0000 0.3437670317
C   C93       1.0  0.56810  0.61240  0.23890  1.0000 -0.2401110384
C   C94       1.0  0.63420  0.69930  0.28230  1.0000 -0.008212171
C   C95       1.0  0.72000  0.72160  0.32140  1.0000 -0.2320077373
C   C96       1.0  0.73920  0.65550  0.31410  1.0000 0.2797493087
C   C97       1.0  0.42580  0.42670  0.50790  1.0000 0.1778695133
C   C98       1.0  0.48300  0.42220  0.57600  1.0000 -0.1925437454
C   C99       1.0  0.45410  0.39460  0.62730  1.0000 -0.1371323395
C   C100      1.0  0.36970  0.37300  0.61290  1.0000 0.0621560336
C   C101      1.0  0.31370  0.37820  0.54550  1.0000 -0.1214884597
C   C102      1.0  0.34080  0.40400  0.49320  1.0000 -0.1817460045
C   C103      1.0  0.33610  0.34630  0.66700  1.0000 -0.008212171
C   C104      1.0  0.35840  0.26400  0.81260  1.0000 0.3437670317
C   C105      1.0  0.32920  0.26110  0.87350  1.0000 -0.2401110384
C   C106      1.0  0.35190  0.21770  0.91700  1.0000 -0.008212171
C   C107      1.0  0.39860  0.17860  0.90020  1.0000 -0.2320077373
C   C108      1.0  0.42510  0.18590  0.84140  1.0000 0.2797493087
C   C109      1.0  0.07420  0.58210  0.00090  1.0000 0.1778695133
C   C110      1.0  0.01700  0.59300  0.93920  1.0000 -0.1925437454
C   C111      1.0  0.04590  0.67320  0.94050  1.0000 -0.1371323395
C   C112      1.0  0.13030  0.74320  0.00330  1.0000 0.0621560336
C   C113      1.0  0.18630  0.73180  0.06450  1.0000 -0.1214884597
C   C114      1.0  0.15920  0.65240  0.06320  1.0000 -0.1817460045
C   C115      1.0  0.16390  0.83090  0.01020  1.0000 -0.008212171
C   C116      1.0  0.14160  0.95420  0.90560  1.0000 0.3437670317
C   C117      1.0  0.17080  0.04430  0.93190  1.0000 -0.2401110384
C   C118      1.0  0.14810  0.06510  0.86580  1.0000 -0.008212171
C   C119      1.0  0.10140  0.00160  0.78000  1.0000 -0.2320077373
C   C120      1.0  0.07490  0.91630  0.76080  1.0000 0.2797493087
C   C121      1.0  0.08120  0.07330  0.49910  1.0000 0.1778695133
C   C122      1.0  0.15380  0.07780  0.56080  1.0000 -0.1925437454
C   C123      1.0  0.23270  0.10540  0.55950  1.0000 -0.1371323395
C   C124      1.0  0.23990  0.12700  0.49670  1.0000 0.0621560336
C   C125      1.0  0.16730  0.12180  0.43550  1.0000 -0.1214884597
C   C126      1.0  0.08920  0.09600  0.43680  1.0000 -0.1817460045
C   C127      1.0  0.32070  0.15370  0.48980  1.0000 -0.008212171
C   C128      1.0  0.54860  0.23600  0.59440  1.0000 0.3437670317
C   C129      1.0  0.61240  0.23890  0.56810  1.0000 -0.2401110384
C   C130      1.0  0.69930  0.28230  0.63420  1.0000 -0.008212171
C   C131      1.0  0.72160  0.32140  0.72000  1.0000 -0.2320077373
C   C132      1.0  0.65550  0.31410  0.73920  1.0000 0.2797493087
C   C133      1.0  0.41880  0.91790  0.99210  1.0000 0.1778695133
C   C134      1.0  0.34620  0.90700  0.92400  1.0000 -0.1925437454
C   C135      1.0  0.26730  0.82680  0.87270  1.0000 -0.1371323395
C   C136      1.0  0.26010  0.75680  0.88710  1.0000 0.0621560336
C   C137      1.0  0.33270  0.76820  0.95450  1.0000 -0.1214884597
C   C138      1.0  0.41080  0.84760  0.00680  1.0000 -0.1817460045
C   C139      1.0  0.17930  0.66910  0.83300  1.0000 -0.008212171
C   C140      1.0  0.95140  0.54580  0.68740  1.0000 0.3437670317
C   C141      1.0  0.88760  0.45570  0.62650  1.0000 -0.2401110384
C   C142      1.0  0.80070  0.43490  0.58300  1.0000 -0.008212171
C   C143      1.0  0.77840  0.49840  0.59980  1.0000 -0.2320077373
C   C144      1.0  0.84450  0.58370  0.65860  1.0000 0.2797493087
N   N1        1.0  0.17870  0.55110  0.39580  1.0000 -0.1120511231
N   N2        1.0  0.19560  0.53120  0.46260  1.0000 -0.1960098498
N   N3        1.0  0.27320  0.68010  0.57090  1.0000 -0.3285076522
N   N4        1.0  0.65530  0.78290  0.10420  1.0000 -0.1120511231
N   N5        1.0  0.56860  0.73300  0.03740  1.0000 -0.1960098498
N   N6        1.0  0.60920  0.70230  0.92910  1.0000 -0.3285076522
N   N7        1.0  0.32130  0.71710  0.37240  1.0000 -0.1120511231
N   N8        1.0  0.30440  0.76700  0.33560  1.0000 -0.1960098498
N   N9        1.0  0.22680  0.79770  0.40690  1.0000 -0.3285076522
N   N10       1.0  0.84470  0.94890  0.12760  1.0000 -0.1120511231
N   N11       1.0  0.93140  0.96880  0.16440  1.0000 -0.1960098498
N   N12       1.0  0.89080  0.81990  0.09310  1.0000 -0.3285076522
N   N13       1.0  0.94890  0.12760  0.84470  1.0000 -0.1120511231
N   N14       1.0  0.96880  0.16440  0.93140  1.0000 -0.1960098498
N   N15       1.0  0.81990  0.09310  0.89080  1.0000 -0.3285076522
N   N16       1.0  0.71710  0.37240  0.32130  1.0000 -0.1120511231
N   N17       1.0  0.76700  0.33560  0.30440  1.0000 -0.1960098498
N   N18       1.0  0.79770  0.40690  0.22680  1.0000 -0.3285076522
N   N19       1.0  0.78290  0.10420  0.65530  1.0000 -0.1120511231
N   N20       1.0  0.73300  0.03740  0.56860  1.0000 -0.1960098498
N   N21       1.0  0.70230  0.92910  0.60920  1.0000 -0.3285076522
N   N22       1.0  0.55110  0.39580  0.17870  1.0000 -0.1120511231
N   N23       1.0  0.53120  0.46260  0.19560  1.0000 -0.1960098498
N   N24       1.0  0.68010  0.57090  0.27320  1.0000 -0.3285076522
N   N25       1.0  0.37240  0.32130  0.71710  1.0000 -0.1120511231
N   N26       1.0  0.33560  0.30440  0.76700  1.0000 -0.1960098498
N   N27       1.0  0.40690  0.22680  0.79770  1.0000 -0.3285076522
N   N28       1.0  0.12760  0.84470  0.94890  1.0000 -0.1120511231
N   N29       1.0  0.16440  0.93140  0.96880  1.0000 -0.1960098498
N   N30       1.0  0.09310  0.89080  0.81990  1.0000 -0.3285076522
N   N31       1.0  0.39580  0.17870  0.55110  1.0000 -0.1120511231
N   N32       1.0  0.46260  0.19560  0.53120  1.0000 -0.1960098498
N   N33       1.0  0.57090  0.27320  0.68010  1.0000 -0.3285076522
N   N34       1.0  0.10420  0.65530  0.78290  1.0000 -0.1120511231
N   N35       1.0  0.03740  0.56860  0.73300  1.0000 -0.1960098498
N   N36       1.0  0.92910  0.60920  0.70230  1.0000 -0.3285076522
N   N37       1.0  0.04400  0.50000  0.00000  1.0000 -0.1817460045
N   N38       1.0  0.00000  0.04400  0.50000  1.0000 -0.1817460045
N   N39       1.0  0.45600  0.45600  0.45600  1.0000 -0.1817460045
N   N40       1.0  0.50000  0.00000  0.04400  1.0000 -0.1817460045
Cl  Cl1       1.0  0.36009  0.84858  0.67971  1.0000 -0.1120511231
Cl  Cl2       1.0  0.66887  0.68038  0.82029  1.0000 -0.1120511231
Cl  Cl3       1.0  0.13991  0.81962  0.48849  1.0000 -0.1120511231
Cl  Cl4       1.0  0.83113  0.65142  0.01151  1.0000 -0.1120511231
Cl  Cl5       1.0  0.65142  0.01151  0.83113  1.0000 -0.1120511231
Cl  Cl6       1.0  0.81962  0.48849  0.13991  1.0000 -0.1120511231
Cl  Cl7       1.0  0.68038  0.82029  0.66887  1.0000 -0.1120511231
Cl  Cl8       1.0  0.84858  0.67971  0.36009  1.0000 -0.1120511231
Cl  Cl9       1.0  0.48849  0.13991  0.81962  1.0000 -0.1120511231
Cl  Cl10      1.0  0.01151  0.83113  0.65142  1.0000 -0.1120511231
Cl  Cl11      1.0  0.67971  0.36009  0.84858  1.0000 -0.1120511231
Cl  Cl12      1.0  0.82029  0.66887  0.68038  1.0000 -0.1120511231
Cl  Cl13      1.0  0.75000  0.18770  0.43770  1.0000 1.2648888078
Cl  Cl14      1.0  0.25000  0.31230  0.06230  1.0000 1.2648888078
Cl  Cl15      1.0  0.43770  0.75000  0.18770  1.0000 1.2648888078
Cl  Cl16      1.0  0.06230  0.25000  0.31230  1.0000 1.2659212198
Cl  Cl17      1.0  0.31230  0.06230  0.25000  1.0000 1.2648888078
Cl  Cl18      1.0  0.18770  0.43770  0.75000  1.0000 1.2659212198
O   O1        1.0  0.82330  0.24950  0.52500  1.0000 -0.5014970318
O   O2        1.0  0.77590  0.20090  0.37680  1.0000 -0.5014970318
O   O3        1.0  0.67670  0.20170  0.42620  1.0000 -0.5014970318
O   O4        1.0  0.72410  0.10090  0.42500  1.0000 -0.5014970318
O   O5        1.0  0.27550  0.25050  0.07380  1.0000 -0.5014970318
O   O6        1.0  0.17590  0.29910  0.07500  1.0000 -0.5014970318
O   O7        1.0  0.22450  0.29830  0.97500  1.0000 -0.5014970318
O   O8        1.0  0.32410  0.39910  0.12320  1.0000 -0.5014970318
O   O9        1.0  0.42620  0.67670  0.20170  1.0000 -0.5014970318
O   O10       1.0  0.42500  0.72410  0.10090  1.0000 -0.5014970318
O   O11       1.0  0.52500  0.82330  0.24950  1.0000 -0.5014970318
O   O12       1.0  0.37680  0.77590  0.20090  1.0000 -0.5014970318
O   O13       1.0  0.97500  0.22450  0.29830  1.0000 -0.5014970318
O   O14       1.0  0.12320  0.32410  0.39910  1.0000 -0.5014970318
O   O15       1.0  0.07380  0.27550  0.25050  1.0000 -0.5014970318
O   O16       1.0  0.07500  0.17590  0.29910  1.0000 -0.5014970318
O   O17       1.0  0.25050  0.07380  0.27550  1.0000 -0.5014970318
O   O18       1.0  0.29910  0.07500  0.17590  1.0000 -0.5014970318
O   O19       1.0  0.29830  0.97500  0.22450  1.0000 -0.5014970318
O   O20       1.0  0.39910  0.12320  0.32410  1.0000 -0.5014970318
O   O21       1.0  0.24950  0.52500  0.82330  1.0000 -0.5014970318
O   O22       1.0  0.20090  0.37680  0.77590  1.0000 -0.5014970318
O   O23       1.0  0.20170  0.42620  0.67670  1.0000 -0.5014970318
O   O24       1.0  0.10090  0.42500  0.72410  1.0000 -0.5014970318
