# DDEC6 charges by PACMAN v1.1 (https://github.com/mtap-research/PACMAN-charge/)
data_2017[Ag][bex]2[ION]1
_chemical_formula_sum              "Ag4 H48 C52 N8 Cl4 O26"
_cell_length_a       13.163
_cell_length_b       13.458
_cell_length_c       13.955
_cell_angle_alpha    88.54
_cell_angle_beta     118.09
_cell_angle_gamma    117.81

_symmetry_space_group_name_H-M    "P 1"
_symmetry_Int_Tables_number       1

loop_
  _symmetry_equiv_pos_as_xyz
  'x, y, z'

loop_
  _atom_site_type_symbol
  _atom_site_label
  _atom_site_symmetry_multiplicity
  _atom_site_fract_x
  _atom_site_fract_y
  _atom_site_fract_z
  _atom_site_occupancy
  _atom_site_charge
Ag  Ag1       1.0  0.27755  0.84254  0.32721  1.0000 0.5280136367
Ag  Ag2       1.0  0.41172  0.14343  0.02070  1.0000 0.5564954181
Ag  Ag3       1.0  0.72245  0.15746  0.67279  1.0000 0.5280136367
Ag  Ag4       1.0  0.58828  0.85657  0.97930  1.0000 0.5564954181
H   H1        1.0  0.20840  0.97450  0.49370  1.0000 0.1292374631
H   H2        1.0  0.75510  0.75370  0.29980  1.0000 0.1292374631
H   H3        1.0  0.69350  0.73390  0.43190  1.0000 0.1184694506
H   H4        1.0  0.93720  0.36760  0.33040  1.0000 0.1292374631
H   H5        1.0  0.07830  0.92120  0.67850  1.0000 0.1109608927
H   H6        1.0  0.85550  0.86000  0.19490  1.0000 0.0994987755
H   H7        1.0  0.84620  0.73920  0.20050  1.0000 0.0994987755
H   H8        1.0  0.02100  0.37790  0.61710  1.0000 0.1109608927
H   H9        1.0  0.85470  0.81650  0.62190  1.0000 0.1184694506
H   H10       1.0  0.92750  0.83340  0.08280  1.0000 0.0994987755
H   H11       1.0  0.05520  0.93020  0.19010  1.0000 0.1292374631
H   H12       1.0  0.25410  0.59770  0.21310  1.0000 0.1109608927
H   H13       1.0  0.12670  0.47690  0.18520  1.0000 0.0994987755
H   H14       1.0  0.41570  0.57150  0.74450  1.0000 0.1184694506
H   H15       1.0  0.90900  0.66830  0.03390  1.0000 0.0994987755
H   H16       1.0  0.90000  0.62120  0.13550  1.0000 0.1184694506
H   H17       1.0  0.23750  0.48020  0.77060  1.0000 0.1184694506
H   H18       1.0  0.38410  0.57380  0.56850  1.0000 0.1292374631
H   H19       1.0  0.31590  0.52000  0.36780  1.0000 0.1184694506
H   H20       1.0  0.31000  0.62580  0.40500  1.0000 0.1109608927
H   H21       1.0  0.97620  0.53470  0.06880  1.0000 0.0994987755
H   H22       1.0  0.09540  0.65650  0.08680  1.0000 0.0994987755
H   H23       1.0  0.34100  0.33500  0.04500  1.0000 0.3603575577
H   H24       1.0  0.31100  0.26900  0.11600  1.0000 0.3603575577
H   H25       1.0  0.79160  0.02550  0.50630  1.0000 0.1292374631
H   H26       1.0  0.24490  0.24630  0.70020  1.0000 0.1292374631
H   H27       1.0  0.30650  0.26610  0.56810  1.0000 0.1184694506
H   H28       1.0  0.06280  0.63240  0.66960  1.0000 0.1292374631
H   H29       1.0  0.92170  0.07880  0.32150  1.0000 0.1109608927
H   H30       1.0  0.14450  0.14000  0.80510  1.0000 0.0994987755
H   H31       1.0  0.15380  0.26080  0.79950  1.0000 0.0994987755
H   H32       1.0  0.97900  0.62210  0.38290  1.0000 0.1109608927
H   H33       1.0  0.14530  0.18350  0.37810  1.0000 0.1184694506
H   H34       1.0  0.07250  0.16660  0.91720  1.0000 0.0994987755
H   H35       1.0  0.94480  0.06980  0.80990  1.0000 0.1292374631
H   H36       1.0  0.74590  0.40230  0.78690  1.0000 0.1109608927
H   H37       1.0  0.87330  0.52310  0.81480  1.0000 0.0994987755
H   H38       1.0  0.58430  0.42850  0.25550  1.0000 0.1184694506
H   H39       1.0  0.09100  0.33170  0.96610  1.0000 0.0994987755
H   H40       1.0  0.10000  0.37880  0.86450  1.0000 0.1184694506
H   H41       1.0  0.76250  0.51980  0.22940  1.0000 0.1184694506
H   H42       1.0  0.61590  0.42620  0.43150  1.0000 0.1292374631
H   H43       1.0  0.68410  0.48000  0.63220  1.0000 0.1184694506
H   H44       1.0  0.69000  0.37420  0.59500  1.0000 0.1109608927
H   H45       1.0  0.02380  0.46530  0.93120  1.0000 0.0994987755
H   H46       1.0  0.90460  0.34350  0.91320  1.0000 0.0994987755
H   H47       1.0  0.65900  0.66500  0.95500  1.0000 0.3603575577
H   H48       1.0  0.68900  0.73100  0.88400  1.0000 0.3603575577
C   C1        1.0  0.05700  0.90350  0.52510  1.0000 9.87498e-05
C   C2        1.0  0.95740  0.85100  0.41010  1.0000 0.2177756478
C   C3        1.0  0.06890  0.41460  0.49700  1.0000 0.0100588932
C   C4        1.0  0.81280  0.28440  0.38080  1.0000 -0.0803542522
C   C5        1.0  0.19590  0.96970  0.55430  1.0000 -0.0967312257
C   C6        1.0  0.82050  0.78750  0.37550  1.0000 -0.2297900717
C   C7        1.0  0.31140  0.02600  0.65700  1.0000 -0.0931225966
C   C8        1.0  0.43920  0.07860  0.66390  1.0000 0.3255483409
C   C9        1.0  0.78410  0.77580  0.45480  1.0000 -0.0615630268
C   C10       1.0  0.93700  0.35520  0.39620  1.0000 -0.1121673329
C   C11       1.0  0.01430  0.88810  0.60260  1.0000 -0.1406799729
C   C12       1.0  0.18020  0.47530  0.48350  1.0000 0.2082115312
C   C13       1.0  0.32200  0.03900  0.76340  1.0000 0.3155065303
C   C14       1.0  0.90740  0.82210  0.21920  1.0000 -0.0660012725
C   C15       1.0  0.09300  0.41720  0.60620  1.0000 -0.1406799729
C   C16       1.0  0.88070  0.82560  0.56930  1.0000 -0.1121673329
C   C17       1.0  0.98700  0.84840  0.16270  1.0000 -0.0477032109
C   C18       1.0  0.18810  0.55450  0.23420  1.0000 -0.0660012725
C   C19       1.0  0.32880  0.53320  0.68240  1.0000 -0.0615630268
C   C20       1.0  0.96150  0.66680  0.11070  1.0000 -0.0803542522
C   C21       1.0  0.22270  0.47760  0.69840  1.0000 -0.1228479097
C   C22       1.0  0.31040  0.53420  0.57730  1.0000 -0.2191508512
C   C23       1.0  0.25690  0.54920  0.35520  1.0000 -0.0477032109
C   C24       1.0  0.03790  0.61330  0.11580  1.0000 -0.0803542522
C   C25       1.0  0.78440  0.25030  0.46700  1.0000 0.3091477503
C   C26       1.0  0.69630  0.23550  0.26960  1.0000 0.3155065303
C   C27       1.0  0.94300  0.09650  0.47490  1.0000 -0.0002931372
C   C28       1.0  0.04260  0.14900  0.58990  1.0000 0.2177756478
C   C29       1.0  0.93110  0.58540  0.50300  1.0000 0.0100588932
C   C30       1.0  0.18720  0.71560  0.61920  1.0000 -0.0803542522
C   C31       1.0  0.80410  0.03030  0.44570  1.0000 -0.0931225966
C   C32       1.0  0.17950  0.21250  0.62450  1.0000 -0.2297900717
C   C33       1.0  0.68860  0.97400  0.34300  1.0000 -0.0931225966
C   C34       1.0  0.56080  0.92140  0.33610  1.0000 0.3255483409
C   C35       1.0  0.21590  0.22420  0.54520  1.0000 -0.0615630268
C   C36       1.0  0.06300  0.64480  0.60380  1.0000 -0.1121673329
C   C37       1.0  0.98570  0.11190  0.39740  1.0000 -0.1406799729
C   C38       1.0  0.81980  0.52470  0.51650  1.0000 0.2082115312
C   C39       1.0  0.67800  0.96100  0.23660  1.0000 0.3155065303
C   C40       1.0  0.09260  0.17790  0.78080  1.0000 -0.0660012725
C   C41       1.0  0.90700  0.58280  0.39380  1.0000 -0.1406799729
C   C42       1.0  0.11930  0.17440  0.43070  1.0000 -0.1121673329
C   C43       1.0  0.01300  0.15160  0.83730  1.0000 -0.0477032109
C   C44       1.0  0.81190  0.44550  0.76580  1.0000 -0.0660012725
C   C45       1.0  0.67120  0.46680  0.31760  1.0000 -0.0615630268
C   C46       1.0  0.03850  0.33320  0.88930  1.0000 -0.0803542522
C   C47       1.0  0.77730  0.52240  0.30160  1.0000 -0.1228479097
C   C48       1.0  0.68960  0.46580  0.42270  1.0000 -0.2191508512
C   C49       1.0  0.74310  0.45080  0.64480  1.0000 -0.0477032109
C   C50       1.0  0.96210  0.38670  0.88420  1.0000 -0.0803542522
C   C51       1.0  0.21560  0.74970  0.53300  1.0000 0.3091477503
C   C52       1.0  0.30370  0.76450  0.73040  1.0000 0.3155065303
N   N1        1.0  0.54050  0.11620  0.67180  1.0000 -0.3826005483
N   N2        1.0  0.33690  0.05420  0.84980  1.0000 -0.3987669547
N   N3        1.0  0.76070  0.21770  0.53380  1.0000 -0.3987669547
N   N4        1.0  0.60520  0.19630  0.18120  1.0000 -0.3826005483
N   N5        1.0  0.45950  0.88380  0.32820  1.0000 -0.3826005483
N   N6        1.0  0.66310  0.94580  0.15020  1.0000 -0.4050422112
N   N7        1.0  0.23930  0.78230  0.46620  1.0000 -0.3987669547
N   N8        1.0  0.39480  0.80370  0.81880  1.0000 -0.3826005483
Cl  Cl1       1.0  0.36913  0.15252  0.35197  1.0000 1.2656539579
Cl  Cl2       1.0  0.63087  0.84748  0.64803  1.0000 1.2656539579
Cl  Cl3       1.0  0.56683  0.39418  0.90621  1.0000 1.210875084
Cl  Cl4       1.0  0.43317  0.60582  0.09379  1.0000 1.210875084
O   O1        1.0  0.00280  0.86520  0.33830  1.0000 -0.1662002603
O   O2        1.0  0.05060  0.78260  0.18050  1.0000 -0.1960461388
O   O3        1.0  0.15210  0.47190  0.37610  1.0000 -0.1574654083
O   O4        1.0  0.11610  0.61110  0.22490  1.0000 -0.1960461388
O   O5        1.0  0.30530  0.04200  0.37180  1.0000 -0.4916751484
O   O6        1.0  0.42580  0.24120  0.44500  1.0000 -0.4691295425
O   O7        1.0  0.46650  0.16510  0.33090  1.0000 -0.44545723
O   O8        1.0  0.26670  0.15810  0.25590  1.0000 -0.4691295425
O   O9        1.0  0.33760  0.25890  0.06100  1.0000 -0.711323152
O   O10       1.0  0.99720  0.13480  0.66170  1.0000 -0.1662002603
O   O11       1.0  0.94940  0.21740  0.81950  1.0000 -0.1960461388
O   O12       1.0  0.84790  0.52810  0.62390  1.0000 -0.1574654083
O   O13       1.0  0.88390  0.38890  0.77510  1.0000 -0.1960461388
O   O14       1.0  0.69470  0.95800  0.62820  1.0000 -0.4916751484
O   O15       1.0  0.57420  0.75880  0.55500  1.0000 -0.4691295425
O   O16       1.0  0.53350  0.83490  0.66910  1.0000 -0.44545723
O   O17       1.0  0.73330  0.84190  0.74410  1.0000 -0.4691295425
O   O18       1.0  0.66240  0.74110  0.93900  1.0000 -0.711323152
O   O19       1.0  0.52420  0.32300  0.81110  1.0000 -0.431178237
O   O20       1.0  0.44410  0.35710  0.90280  1.0000 -0.4767307589
O   O21       1.0  0.62190  0.50400  0.90350  1.0000 -0.431178237
O   O22       1.0  0.65890  0.38440  0.99430  1.0000 -0.4161871026
O   O23       1.0  0.47580  0.67700  0.18890  1.0000 -0.431178237
O   O24       1.0  0.55590  0.64290  0.09720  1.0000 -0.4767307589
O   O25       1.0  0.37810  0.49600  0.09650  1.0000 -0.431178237
O   O26       1.0  0.34110  0.61560  0.00570  1.0000 -0.4161871026
