# DDEC6 charges by PACMAN v1.1 (https://github.com/mtap-research/PACMAN-charge/)
data_2017[Ag][srs]3[ION]20
_chemical_formula_sum              "Ag6 H108 C144 N40 Cl18 O24"
_cell_length_a       18.4619
_cell_length_b       18.4619
_cell_length_c       18.4619
_cell_angle_alpha    109.471
_cell_angle_beta     109.471
_cell_angle_gamma    109.471

_symmetry_space_group_name_H-M    "P 1"
_symmetry_Int_Tables_number       1

loop_
  _symmetry_equiv_pos_as_xyz
  'x, y, z'

loop_
  _atom_site_type_symbol
  _atom_site_label
  _atom_site_symmetry_multiplicity
  _atom_site_fract_x
  _atom_site_fract_y
  _atom_site_fract_z
  _atom_site_occupancy
  _atom_site_charge
Ag  Ag1       1.0  0.25000  0.53949  0.28949  1.0000 0.307509645
Ag  Ag2       1.0  0.75000  0.96051  0.21051  1.0000 0.307509645
Ag  Ag3       1.0  0.96051  0.21051  0.75000  1.0000 0.307509645
Ag  Ag4       1.0  0.53949  0.28949  0.25000  1.0000 0.307509645
Ag  Ag5       1.0  0.28949  0.25000  0.53949  1.0000 0.307509645
Ag  Ag6       1.0  0.21051  0.75000  0.96051  1.0000 0.307509645
H   H1        1.0  0.04500  0.46070  0.39630  1.0000 0.1292228541
H   H2        1.0  0.17930  0.50820  0.39830  1.0000 0.1110535182
H   H3        1.0  0.27930  0.74460  0.60790  1.0000 0.1292228541
H   H4        1.0  0.14580  0.69980  0.60480  1.0000 0.1200867325
H   H5        1.0  0.37940  0.71530  0.56370  1.0000 0.1200867325
H   H6        1.0  0.58810  0.70570  0.49300  1.0000 0.155115616
H   H7        1.0  0.62440  0.66490  0.38170  1.0000 0.1110535182
H   H8        1.0  0.51510  0.58610  0.23460  1.0000 0.1292228541
H   H9        1.0  0.47280  0.70360  0.52380  1.0000 0.2814572694
H   H10       1.0  0.56440  0.64870  0.10370  1.0000 0.1292228541
H   H11       1.0  0.60990  0.78100  0.10170  1.0000 0.1110535182
H   H12       1.0  0.63670  0.67140  0.89210  1.0000 0.1292228541
H   H13       1.0  0.59500  0.54100  0.89520  1.0000 0.1200867325
H   H14       1.0  0.65160  0.81570  0.93630  1.0000 0.1200867325
H   H15       1.0  0.71270  0.09510  0.00700  1.0000 0.155115616
H   H16       1.0  0.78320  0.24270  0.11830  1.0000 0.1110535182
H   H17       1.0  0.85150  0.28050  0.26540  1.0000 0.1292228541
H   H18       1.0  0.67980  0.94900  0.97620  1.0000 0.2814572694
H   H19       1.0  0.45500  0.85130  0.41570  1.0000 0.1292228541
H   H20       1.0  0.32070  0.71900  0.32890  1.0000 0.1110535182
H   H21       1.0  0.22070  0.82860  0.46530  1.0000 0.1292228541
H   H22       1.0  0.35420  0.95900  0.55400  1.0000 0.1200867325
H   H23       1.0  0.12060  0.68430  0.33590  1.0000 0.1200867325
H   H24       1.0  0.91190  0.40490  0.11760  1.0000 0.155115616
H   H25       1.0  0.87560  0.25730  0.04050  1.0000 0.1110535182
H   H26       1.0  0.98490  0.21950  0.07100  1.0000 0.1292228541
H   H27       1.0  0.02720  0.55100  0.23080  1.0000 0.2814572694
H   H28       1.0  0.93560  0.03930  0.08430  1.0000 0.1292228541
H   H29       1.0  0.89010  0.99180  0.17110  1.0000 0.1110535182
H   H30       1.0  0.86330  0.75540  0.03470  1.0000 0.1292228541
H   H31       1.0  0.90500  0.80020  0.94600  1.0000 0.1200867325
H   H32       1.0  0.84840  0.78470  0.16410  1.0000 0.1200867325
H   H33       1.0  0.78730  0.79430  0.38240  1.0000 0.155115616
H   H34       1.0  0.71680  0.83510  0.45950  1.0000 0.1110535182
H   H35       1.0  0.64850  0.91390  0.42900  1.0000 0.1292228541
H   H36       1.0  0.82020  0.79640  0.26920  1.0000 0.2814572694
H   H37       1.0  0.03930  0.08430  0.93560  1.0000 0.1292228541
H   H38       1.0  0.99180  0.17110  0.89010  1.0000 0.1110535182
H   H39       1.0  0.75540  0.03470  0.86330  1.0000 0.1292228541
H   H40       1.0  0.80020  0.94600  0.90500  1.0000 0.1200867325
H   H41       1.0  0.78470  0.16410  0.84840  1.0000 0.1200867325
H   H42       1.0  0.79430  0.38240  0.78730  1.0000 0.155115616
H   H43       1.0  0.83510  0.45950  0.71680  1.0000 0.1110535182
H   H44       1.0  0.91390  0.42900  0.64850  1.0000 0.1292228541
H   H45       1.0  0.79640  0.26920  0.82020  1.0000 0.2814572694
H   H46       1.0  0.85130  0.41570  0.45500  1.0000 0.1292228541
H   H47       1.0  0.71900  0.32890  0.32070  1.0000 0.1110535182
H   H48       1.0  0.82860  0.46530  0.22070  1.0000 0.1292228541
H   H49       1.0  0.95900  0.55400  0.35420  1.0000 0.1200867325
H   H50       1.0  0.68430  0.33590  0.12060  1.0000 0.1200867325
H   H51       1.0  0.40490  0.11760  0.91190  1.0000 0.155115616
H   H52       1.0  0.25730  0.04050  0.87560  1.0000 0.1110535182
H   H53       1.0  0.21950  0.07100  0.98490  1.0000 0.1292228541
H   H54       1.0  0.55100  0.23080  0.02720  1.0000 0.2814572694
H   H55       1.0  0.64870  0.10370  0.56440  1.0000 0.1292228541
H   H56       1.0  0.78100  0.10170  0.60990  1.0000 0.1110535182
H   H57       1.0  0.67140  0.89210  0.63670  1.0000 0.1292228541
H   H58       1.0  0.54100  0.89520  0.59500  1.0000 0.1200867325
H   H59       1.0  0.81570  0.93630  0.65160  1.0000 0.1200867325
H   H60       1.0  0.09510  0.00700  0.71270  1.0000 0.155115616
H   H61       1.0  0.24270  0.11830  0.78320  1.0000 0.1110535182
H   H62       1.0  0.28050  0.26540  0.85150  1.0000 0.1292228541
H   H63       1.0  0.94900  0.97620  0.67980  1.0000 0.2814572694
H   H64       1.0  0.46070  0.39630  0.04500  1.0000 0.1292228541
H   H65       1.0  0.50820  0.39830  0.17930  1.0000 0.1110535182
H   H66       1.0  0.74460  0.60790  0.27930  1.0000 0.1292228541
H   H67       1.0  0.69980  0.60480  0.14580  1.0000 0.1200867325
H   H68       1.0  0.71530  0.56370  0.37940  1.0000 0.1200867325
H   H69       1.0  0.70570  0.49300  0.58810  1.0000 0.155115616
H   H70       1.0  0.66490  0.38170  0.62440  1.0000 0.1110535182
H   H71       1.0  0.58610  0.23460  0.51510  1.0000 0.1292228541
H   H72       1.0  0.70360  0.52380  0.47280  1.0000 0.2814572694
H   H73       1.0  0.41570  0.45500  0.85130  1.0000 0.1292228541
H   H74       1.0  0.32890  0.32070  0.71900  1.0000 0.1110535182
H   H75       1.0  0.46530  0.22070  0.82860  1.0000 0.1292228541
H   H76       1.0  0.55400  0.35420  0.95900  1.0000 0.1200867325
H   H77       1.0  0.33590  0.12060  0.68430  1.0000 0.1200867325
H   H78       1.0  0.11760  0.91190  0.40490  1.0000 0.155115616
H   H79       1.0  0.04050  0.87560  0.25730  1.0000 0.1110535182
H   H80       1.0  0.07100  0.98490  0.21950  1.0000 0.1292228541
H   H81       1.0  0.23080  0.02720  0.55100  1.0000 0.2814572694
H   H82       1.0  0.08430  0.93560  0.03930  1.0000 0.1292228541
H   H83       1.0  0.17110  0.89010  0.99180  1.0000 0.1110535182
H   H84       1.0  0.03470  0.86330  0.75540  1.0000 0.1292228541
H   H85       1.0  0.94600  0.90500  0.80020  1.0000 0.1200867325
H   H86       1.0  0.16410  0.84840  0.78470  1.0000 0.1200867325
H   H87       1.0  0.38240  0.78730  0.79430  1.0000 0.155115616
H   H88       1.0  0.45950  0.71680  0.83510  1.0000 0.1110535182
H   H89       1.0  0.42900  0.64850  0.91390  1.0000 0.1292228541
H   H90       1.0  0.26920  0.82020  0.79640  1.0000 0.2814572694
H   H91       1.0  0.39630  0.04500  0.46070  1.0000 0.1292228541
H   H92       1.0  0.39830  0.17930  0.50820  1.0000 0.1110535182
H   H93       1.0  0.60790  0.27930  0.74460  1.0000 0.1292228541
H   H94       1.0  0.60480  0.14580  0.69980  1.0000 0.1200867325
H   H95       1.0  0.56370  0.37940  0.71530  1.0000 0.1200867325
H   H96       1.0  0.49300  0.58810  0.70570  1.0000 0.155115616
H   H97       1.0  0.38170  0.62440  0.66490  1.0000 0.1110535182
H   H98       1.0  0.23460  0.51510  0.58610  1.0000 0.1292228541
H   H99       1.0  0.52380  0.47280  0.70360  1.0000 0.2814572694
H   H100      1.0  0.10370  0.56440  0.64870  1.0000 0.1292228541
H   H101      1.0  0.10170  0.60990  0.78100  1.0000 0.1110535182
H   H102      1.0  0.89210  0.63670  0.67140  1.0000 0.1292228541
H   H103      1.0  0.89520  0.59500  0.54100  1.0000 0.1200867325
H   H104      1.0  0.93630  0.65160  0.81570  1.0000 0.1200867325
H   H105      1.0  0.00700  0.71270  0.09510  1.0000 0.155115616
H   H106      1.0  0.11830  0.78320  0.24270  1.0000 0.1110535182
H   H107      1.0  0.26540  0.85150  0.28050  1.0000 0.1292228541
H   H108      1.0  0.97620  0.67980  0.94900  1.0000 0.2814572694
C   C1        1.0  0.08197  0.57517  0.50100  1.0000 0.1724900595
C   C2        1.0  0.09240  0.51850  0.43930  1.0000 -0.1922225364
C   C3        1.0  0.17280  0.54680  0.44080  1.0000 -0.1367852845
C   C4        1.0  0.24350  0.63120  0.50410  1.0000 0.0601966373
C   C5        1.0  0.23180  0.68700  0.56460  1.0000 -0.1190738379
C   C6        1.0  0.15250  0.66030  0.56340  1.0000 -0.182017814
C   C7        1.0  0.33090  0.66420  0.51090  1.0000 -0.006168324
C   C8        1.0  0.45430  0.64190  0.40700  1.0000 0.3384579561
C   C9        1.0  0.54390  0.67130  0.43280  1.0000 -0.2391138538
C   C10       1.0  0.56510  0.64790  0.36660  1.0000 -0.0047187335
C   C11       1.0  0.50110  0.60060  0.28010  1.0000 -0.2391138538
C   C12       1.0  0.41610  0.57500  0.26130  1.0000 0.2814572694
C   C13       1.0  0.57417  0.58097  0.99900  1.0000 0.1724900595
C   C14       1.0  0.57920  0.65310  0.06070  1.0000 -0.1922225364
C   C15       1.0  0.60600  0.73200  0.05920  1.0000 -0.1367852845
C   C16       1.0  0.62710  0.73940  0.99590  1.0000 0.0601966373
C   C17       1.0  0.62240  0.66720  0.93540  1.0000 -0.1190738379
C   C18       1.0  0.59690  0.58910  0.93660  1.0000 -0.182017814
C   C19       1.0  0.65330  0.82000  0.98910  1.0000 -0.006168324
C   C20       1.0  0.73490  0.04730  0.09300  1.0000 0.3384579561
C   C21       1.0  0.73850  0.11110  0.06720  1.0000 -0.2391138538
C   C22       1.0  0.78130  0.19850  0.13340  1.0000 -0.0047187335
C   C23       1.0  0.82050  0.22100  0.21990  1.0000 -0.2391138538
C   C24       1.0  0.81370  0.15480  0.23870  1.0000 0.2814572694
C   C25       1.0  0.41803  0.91903  0.49320  1.0000 0.1724900595
C   C26       1.0  0.40760  0.84690  0.42610  1.0000 -0.1922225364
C   C27       1.0  0.32720  0.76800  0.37400  1.0000 -0.1367852845
C   C28       1.0  0.25650  0.76060  0.38770  1.0000 0.0601966373
C   C29       1.0  0.26820  0.83280  0.45520  1.0000 -0.1190738379
C   C30       1.0  0.34750  0.91090  0.50780  1.0000 -0.182017814
C   C31       1.0  0.16910  0.68000  0.33333  1.0000 -0.006168324
C   C32       1.0  0.04570  0.45270  0.18760  1.0000 0.3384579561
C   C33       1.0  0.95610  0.38890  0.12740  1.0000 -0.2391138538
C   C34       1.0  0.93490  0.30150  0.08280  1.0000 -0.0047187335
C   C35       1.0  0.99890  0.27900  0.09950  1.0000 -0.2391138538
C   C36       1.0  0.08390  0.34520  0.15890  1.0000 0.2814572694
C   C37       1.0  0.92583  0.92483  0.00680  1.0000 0.1724900595
C   C38       1.0  0.92080  0.98150  0.07390  1.0000 -0.1922225364
C   C39       1.0  0.89400  0.95320  0.12600  1.0000 -0.1367852845
C   C40       1.0  0.87290  0.86880  0.11230  1.0000 0.0601966373
C   C41       1.0  0.87760  0.81300  0.04480  1.0000 -0.1190738379
C   C42       1.0  0.90310  0.83970  0.99220  1.0000 -0.182017814
C   C43       1.0  0.84670  0.83580  0.16670  1.0000 -0.006168324
C   C44       1.0  0.76510  0.85810  0.31240  1.0000 0.3384579561
C   C45       1.0  0.76150  0.82870  0.37260  1.0000 -0.2391138538
C   C46       1.0  0.71870  0.85210  0.41720  1.0000 -0.0047187335
C   C47       1.0  0.67950  0.89940  0.40050  1.0000 -0.2391138538
C   C48       1.0  0.68630  0.92500  0.34110  1.0000 0.2814572694
C   C49       1.0  0.92483  0.00680  0.92583  1.0000 0.1724900595
C   C50       1.0  0.98150  0.07390  0.92080  1.0000 -0.1922225364
C   C51       1.0  0.95320  0.12600  0.89400  1.0000 -0.1367852845
C   C52       1.0  0.86880  0.11230  0.87290  1.0000 0.0601966373
C   C53       1.0  0.81300  0.04480  0.87760  1.0000 -0.1190738379
C   C54       1.0  0.83970  0.99220  0.90310  1.0000 -0.182017814
C   C55       1.0  0.83580  0.16670  0.84670  1.0000 -0.006168324
C   C56       1.0  0.85810  0.31240  0.76510  1.0000 0.3384579561
C   C57       1.0  0.82870  0.37260  0.76150  1.0000 -0.2391138538
C   C58       1.0  0.85210  0.41720  0.71870  1.0000 -0.0047187335
C   C59       1.0  0.89940  0.40050  0.67950  1.0000 -0.2391138538
C   C60       1.0  0.92500  0.34110  0.68630  1.0000 0.2814572694
C   C61       1.0  0.91903  0.49320  0.41803  1.0000 0.1724900595
C   C62       1.0  0.84690  0.42610  0.40760  1.0000 -0.1922225364
C   C63       1.0  0.76800  0.37400  0.32720  1.0000 -0.1367852845
C   C64       1.0  0.76060  0.38770  0.25650  1.0000 0.0601966373
C   C65       1.0  0.83280  0.45520  0.26820  1.0000 -0.1190738379
C   C66       1.0  0.91090  0.50780  0.34750  1.0000 -0.182017814
C   C67       1.0  0.68000  0.33333  0.16910  1.0000 -0.006168324
C   C68       1.0  0.45270  0.18760  0.04570  1.0000 0.3384579561
C   C69       1.0  0.38890  0.12740  0.95610  1.0000 -0.2391138538
C   C70       1.0  0.30150  0.08280  0.93490  1.0000 -0.0047187335
C   C71       1.0  0.27900  0.09950  0.99890  1.0000 -0.2391138538
C   C72       1.0  0.34520  0.15890  0.08390  1.0000 0.2814572694
C   C73       1.0  0.58097  0.99900  0.57417  1.0000 0.1724900595
C   C74       1.0  0.65310  0.06070  0.57920  1.0000 -0.1922225364
C   C75       1.0  0.73200  0.05920  0.60600  1.0000 -0.1367852845
C   C76       1.0  0.73940  0.99590  0.62710  1.0000 0.0601966373
C   C77       1.0  0.66720  0.93540  0.62240  1.0000 -0.1190738379
C   C78       1.0  0.58910  0.93660  0.59690  1.0000 -0.182017814
C   C79       1.0  0.82000  0.98910  0.65330  1.0000 -0.006168324
C   C80       1.0  0.04730  0.09300  0.73490  1.0000 0.3384579561
C   C81       1.0  0.11110  0.06720  0.73850  1.0000 -0.2391138538
C   C82       1.0  0.19850  0.13340  0.78130  1.0000 -0.0047187335
C   C83       1.0  0.22100  0.21990  0.82050  1.0000 -0.2391138538
C   C84       1.0  0.15480  0.23870  0.81370  1.0000 0.2814572694
C   C85       1.0  0.57517  0.50100  0.08197  1.0000 0.1724900595
C   C86       1.0  0.51850  0.43930  0.09240  1.0000 -0.1922225364
C   C87       1.0  0.54680  0.44080  0.17280  1.0000 -0.1367852845
C   C88       1.0  0.63120  0.50410  0.24350  1.0000 0.0601966373
C   C89       1.0  0.68700  0.56460  0.23180  1.0000 -0.1190738379
C   C90       1.0  0.66030  0.56340  0.15250  1.0000 -0.182017814
C   C91       1.0  0.66420  0.51090  0.33090  1.0000 -0.006168324
C   C92       1.0  0.64190  0.40700  0.45430  1.0000 0.3384579561
C   C93       1.0  0.67130  0.43280  0.54390  1.0000 -0.2391138538
C   C94       1.0  0.64790  0.36660  0.56510  1.0000 -0.0047187335
C   C95       1.0  0.60060  0.28010  0.50110  1.0000 -0.2391138538
C   C96       1.0  0.57500  0.26130  0.41610  1.0000 0.2814572694
C   C97       1.0  0.49320  0.41803  0.91903  1.0000 0.1724900595
C   C98       1.0  0.42610  0.40760  0.84690  1.0000 -0.1922225364
C   C99       1.0  0.37400  0.32720  0.76800  1.0000 -0.1367852845
C   C100      1.0  0.38770  0.25650  0.76060  1.0000 0.0601966373
C   C101      1.0  0.45520  0.26820  0.83280  1.0000 -0.1190738379
C   C102      1.0  0.50780  0.34750  0.91090  1.0000 -0.182017814
C   C103      1.0  0.33333  0.16910  0.68000  1.0000 -0.006168324
C   C104      1.0  0.18760  0.04570  0.45270  1.0000 0.3384579561
C   C105      1.0  0.12740  0.95610  0.38890  1.0000 -0.2391138538
C   C106      1.0  0.08280  0.93490  0.30150  1.0000 -0.0047187335
C   C107      1.0  0.09950  0.99890  0.27900  1.0000 -0.2391138538
C   C108      1.0  0.15890  0.08390  0.34520  1.0000 0.2814572694
C   C109      1.0  0.00680  0.92583  0.92483  1.0000 0.1724900595
C   C110      1.0  0.07390  0.92080  0.98150  1.0000 -0.1922225364
C   C111      1.0  0.12600  0.89400  0.95320  1.0000 -0.1367852845
C   C112      1.0  0.11230  0.87290  0.86880  1.0000 0.0601966373
C   C113      1.0  0.04480  0.87760  0.81300  1.0000 -0.1190738379
C   C114      1.0  0.99220  0.90310  0.83970  1.0000 -0.182017814
C   C115      1.0  0.16670  0.84670  0.83580  1.0000 -0.006168324
C   C116      1.0  0.31240  0.76510  0.85810  1.0000 0.3384579561
C   C117      1.0  0.37260  0.76150  0.82870  1.0000 -0.2391138538
C   C118      1.0  0.41720  0.71870  0.85210  1.0000 -0.0047187335
C   C119      1.0  0.40050  0.67950  0.89940  1.0000 -0.2391138538
C   C120      1.0  0.34110  0.68630  0.92500  1.0000 0.2814572694
C   C121      1.0  0.50100  0.08197  0.57517  1.0000 0.1724900595
C   C122      1.0  0.43930  0.09240  0.51850  1.0000 -0.1922225364
C   C123      1.0  0.44080  0.17280  0.54680  1.0000 -0.1367852845
C   C124      1.0  0.50410  0.24350  0.63120  1.0000 0.0601966373
C   C125      1.0  0.56460  0.23180  0.68700  1.0000 -0.1190738379
C   C126      1.0  0.56340  0.15250  0.66030  1.0000 -0.182017814
C   C127      1.0  0.51090  0.33090  0.66420  1.0000 -0.006168324
C   C128      1.0  0.40700  0.45430  0.64190  1.0000 0.3384579561
C   C129      1.0  0.43280  0.54390  0.67130  1.0000 -0.2391138538
C   C130      1.0  0.36660  0.56510  0.64790  1.0000 -0.0047187335
C   C131      1.0  0.28010  0.50110  0.60060  1.0000 -0.2391138538
C   C132      1.0  0.26130  0.41610  0.57500  1.0000 0.2814572694
C   C133      1.0  0.99900  0.57417  0.58097  1.0000 0.1724900595
C   C134      1.0  0.06070  0.57920  0.65310  1.0000 -0.1922225364
C   C135      1.0  0.05920  0.60600  0.73200  1.0000 -0.1367852845
C   C136      1.0  0.99590  0.62710  0.73940  1.0000 0.0601966373
C   C137      1.0  0.93540  0.62240  0.66720  1.0000 -0.1190738379
C   C138      1.0  0.93660  0.59690  0.58910  1.0000 -0.182017814
C   C139      1.0  0.98910  0.65330  0.82000  1.0000 -0.006168324
C   C140      1.0  0.09300  0.73490  0.04730  1.0000 0.3384579561
C   C141      1.0  0.06720  0.73850  0.11110  1.0000 -0.2391138538
C   C142      1.0  0.13340  0.78130  0.19850  1.0000 -0.0047187335
C   C143      1.0  0.21990  0.82050  0.22100  1.0000 -0.2391138538
C   C144      1.0  0.23870  0.81370  0.15480  1.0000 0.2814572694
N   N1        1.0  0.34441  0.62784  0.44985  1.0000 -0.1190738379
N   N2        1.0  0.43121  0.66441  0.46920  1.0000 -0.1922225364
N   N3        1.0  0.39038  0.59329  0.32049  1.0000 -0.3399671845
N   N4        1.0  0.67799  0.89456  0.05015  1.0000 -0.1190738379
N   N5        1.0  0.69521  0.96201  0.03080  1.0000 -0.1922225364
N   N6        1.0  0.77280  0.06989  0.17951  1.0000 -0.3399671845
N   N7        1.0  0.15559  0.60544  0.28343  1.0000 -0.1190738379
N   N8        1.0  0.06879  0.53799  0.23320  1.0000 -0.1922225364
N   N9        1.0  0.10962  0.43011  0.20291  1.0000 -0.3399671845
N   N10       1.0  0.82201  0.87216  0.21657  1.0000 -0.1190738379
N   N11       1.0  0.80479  0.83559  0.26680  1.0000 -0.1922225364
N   N12       1.0  0.72720  0.90671  0.29709  1.0000 -0.3399671845
N   N13       1.0  0.87216  0.21657  0.82201  1.0000 -0.1190738379
N   N14       1.0  0.83559  0.26680  0.80479  1.0000 -0.1922225364
N   N15       1.0  0.90671  0.29709  0.72720  1.0000 -0.3399671845
N   N16       1.0  0.60544  0.28343  0.15559  1.0000 -0.1190738379
N   N17       1.0  0.53799  0.23320  0.06879  1.0000 -0.1922225364
N   N18       1.0  0.43011  0.20291  0.10962  1.0000 -0.3399671845
N   N19       1.0  0.89456  0.05015  0.67799  1.0000 -0.1190738379
N   N20       1.0  0.96201  0.03080  0.69521  1.0000 -0.1922225364
N   N21       1.0  0.06989  0.17951  0.77280  1.0000 -0.3399671845
N   N22       1.0  0.62784  0.44985  0.34441  1.0000 -0.1190738379
N   N23       1.0  0.66441  0.46920  0.43121  1.0000 -0.1922225364
N   N24       1.0  0.59329  0.32049  0.39038  1.0000 -0.3399671845
N   N25       1.0  0.28343  0.15559  0.60544  1.0000 -0.1190738379
N   N26       1.0  0.23320  0.06879  0.53799  1.0000 -0.1922225364
N   N27       1.0  0.20291  0.10962  0.43011  1.0000 -0.3399671845
N   N28       1.0  0.21657  0.82201  0.87216  1.0000 -0.1190738379
N   N29       1.0  0.26680  0.80479  0.83559  1.0000 -0.1922225364
N   N30       1.0  0.29709  0.72720  0.90671  1.0000 -0.3399671845
N   N31       1.0  0.44985  0.34441  0.62784  1.0000 -0.1190738379
N   N32       1.0  0.46920  0.43121  0.66441  1.0000 -0.1922225364
N   N33       1.0  0.32049  0.39038  0.59329  1.0000 -0.3399671845
N   N34       1.0  0.05015  0.67799  0.89456  1.0000 -0.1190738379
N   N35       1.0  0.03080  0.69521  0.96201  1.0000 -0.1922225364
N   N36       1.0  0.17951  0.77280  0.06989  1.0000 -0.3399671845
N   N37       1.0  0.00000  0.54540  0.50000  1.0000 -0.1600006044
N   N38       1.0  0.54540  0.50000  0.00000  1.0000 -0.1600006044
N   N39       1.0  0.50000  0.00000  0.54540  1.0000 -0.1600006044
N   N40       1.0  0.95460  0.95460  0.95460  1.0000 -0.1600006044
Cl  Cl1       1.0  0.33104  0.51161  0.15243  1.0000 -0.1121445623
Cl  Cl2       1.0  0.85918  0.17861  0.34757  1.0000 -0.1121445623
Cl  Cl3       1.0  0.16896  0.32139  0.18057  1.0000 -0.1121445623
Cl  Cl4       1.0  0.64082  0.98839  0.31943  1.0000 -0.1121445623
Cl  Cl5       1.0  0.98839  0.31943  0.64082  1.0000 -0.1121445623
Cl  Cl6       1.0  0.32139  0.18057  0.16896  1.0000 -0.1121445623
Cl  Cl7       1.0  0.17861  0.34757  0.85918  1.0000 -0.1121445623
Cl  Cl8       1.0  0.51161  0.15243  0.33104  1.0000 -0.1121445623
Cl  Cl9       1.0  0.18057  0.16896  0.32139  1.0000 -0.1121445623
Cl  Cl10      1.0  0.31943  0.64082  0.98839  1.0000 -0.1121445623
Cl  Cl11      1.0  0.15243  0.33104  0.51161  1.0000 -0.1121445623
Cl  Cl12      1.0  0.34757  0.85918  0.17861  1.0000 -0.1121445623
Cl  Cl13      1.0  0.93815  0.68815  0.25000  1.0000 1.2622316919
Cl  Cl14      1.0  0.56185  0.81185  0.75000  1.0000 1.2622316919
Cl  Cl15      1.0  0.75000  0.56185  0.81185  1.0000 1.2622316919
Cl  Cl16      1.0  0.25000  0.93815  0.68815  1.0000 1.2622316919
Cl  Cl17      1.0  0.81185  0.75000  0.56185  1.0000 1.2622316919
Cl  Cl18      1.0  0.68815  0.25000  0.93815  1.0000 1.2622316919
O   O1        1.0  0.02527  0.74994  0.32281  1.0000 -0.4940193229
O   O2        1.0  0.92498  0.60128  0.22430  1.0000 -0.4940193229
O   O3        1.0  0.92713  0.70246  0.17719  1.0000 -0.4940193229
O   O4        1.0  0.87698  0.70068  0.27570  1.0000 -0.4940193229
O   O5        1.0  0.47473  0.79754  0.72467  1.0000 -0.4940193229
O   O6        1.0  0.57502  0.79932  0.67630  1.0000 -0.4940193229
O   O7        1.0  0.57287  0.75006  0.77533  1.0000 -0.4940193229
O   O8        1.0  0.62302  0.89872  0.82370  1.0000 -0.4940193229
O   O9        1.0  0.72467  0.47473  0.79754  1.0000 -0.4940193229
O   O10       1.0  0.67630  0.57502  0.79932  1.0000 -0.4940193229
O   O11       1.0  0.77533  0.57287  0.75006  1.0000 -0.4940193229
O   O12       1.0  0.82370  0.62302  0.89872  1.0000 -0.4940193229
O   O13       1.0  0.32281  0.02527  0.74994  1.0000 -0.4940193229
O   O14       1.0  0.22430  0.92498  0.60128  1.0000 -0.4940193229
O   O15       1.0  0.17719  0.92713  0.70246  1.0000 -0.4940193229
O   O16       1.0  0.27570  0.87698  0.70068  1.0000 -0.4940193229
O   O17       1.0  0.75006  0.77533  0.57287  1.0000 -0.4940193229
O   O18       1.0  0.89872  0.82370  0.62302  1.0000 -0.4940193229
O   O19       1.0  0.79754  0.72467  0.47473  1.0000 -0.4940193229
O   O20       1.0  0.79932  0.67630  0.57502  1.0000 -0.4940193229
O   O21       1.0  0.70246  0.17719  0.92713  1.0000 -0.4940193229
O   O22       1.0  0.70068  0.27570  0.87698  1.0000 -0.4940193229
O   O23       1.0  0.74994  0.32281  0.02527  1.0000 -0.4940193229
O   O24       1.0  0.60128  0.22430  0.92498  1.0000 -0.4940193229
