# DDEC6 charges by PACMAN v1.1 (https://github.com/mtap-research/PACMAN-charge/)
data_2017[Ag][hcb]2[ION]4
_chemical_formula_sum              "Ag2 H42 C56 S2 N6 O18 F6"
_cell_length_a       9.7537
_cell_length_b       12.8842
_cell_length_c       15.2614
_cell_angle_alpha    103.619
_cell_angle_beta     94.687
_cell_angle_gamma    101.651

_symmetry_space_group_name_H-M    "P 1"
_symmetry_Int_Tables_number       1

loop_
  _symmetry_equiv_pos_as_xyz
  'x, y, z'

loop_
  _atom_site_type_symbol
  _atom_site_label
  _atom_site_symmetry_multiplicity
  _atom_site_fract_x
  _atom_site_fract_y
  _atom_site_fract_z
  _atom_site_occupancy
  _atom_site_charge
Ag  Ag1       1.0  0.78225  0.58050  0.71085  1.0000 0.2937267701
Ag  Ag2       1.0  0.21775  0.41950  0.28915  1.0000 0.2937267701
H   H1        1.0  0.95110  0.39310  0.65530  1.0000 0.1024643858
H   H2        1.0  0.98470  0.26060  0.53330  1.0000 0.1311236387
H   H3        1.0  0.76270  0.38820  0.36860  1.0000 0.1383292711
H   H4        1.0  0.73060  0.51390  0.49460  1.0000 0.1098387453
H   H5        1.0  0.89160  0.01870  0.27400  1.0000 0.1197243511
H   H6        1.0  0.02510  0.10280  0.25580  1.0000 0.1098387453
H   H7        1.0  0.73210  0.81590  0.81730  1.0000 0.1024643858
H   H8        1.0  0.61010  0.94810  0.80190  1.0000 0.1383292711
H   H9        1.0  0.47860  0.77840  0.54000  1.0000 0.1311236387
H   H10       1.0  0.60030  0.64920  0.56400  1.0000 0.1098387453
H   H11       1.0  0.23350  0.02710  0.59690  1.0000 0.1024643858
H   H12       1.0  0.37260  0.09220  0.56680  1.0000 0.1098387453
H   H13       1.0  0.07390  0.66330  0.83770  1.0000 0.1098387453
H   H14       1.0  0.17770  0.69950  0.98690  1.0000 0.1383292711
H   H15       1.0  0.79890  0.57130  0.04900  1.0000 0.1383292711
H   H16       1.0  0.70790  0.53650  0.89750  1.0000 0.1197243511
H   H17       1.0  0.23250  0.70250  0.26800  1.0000 0.1098387453
H   H18       1.0  0.35640  0.78850  0.24300  1.0000 0.1197243511
H   H19       1.0  0.33350  0.85480  0.41540  1.0000 0.1311236387
H   H20       1.0  0.12280  0.09610  0.47000  1.0000 0.1197243511
H   H21       1.0  0.07050  0.89730  0.21750  1.0000 0.1197243511
H   H22       1.0  0.04890  0.60690  0.34470  1.0000 0.1024643858
H   H23       1.0  0.01530  0.73940  0.46670  1.0000 0.1311236387
H   H24       1.0  0.23730  0.61180  0.63140  1.0000 0.1383292711
H   H25       1.0  0.26940  0.48610  0.50540  1.0000 0.1098387453
H   H26       1.0  0.10840  0.98130  0.72600  1.0000 0.1197243511
H   H27       1.0  0.97490  0.89720  0.74420  1.0000 0.1098387453
H   H28       1.0  0.26790  0.18410  0.18270  1.0000 0.1024643858
H   H29       1.0  0.38990  0.05190  0.19810  1.0000 0.1383292711
H   H30       1.0  0.52140  0.22160  0.46000  1.0000 0.1311236387
H   H31       1.0  0.39970  0.35080  0.43600  1.0000 0.1098387453
H   H32       1.0  0.76650  0.97290  0.40310  1.0000 0.1024643858
H   H33       1.0  0.62740  0.90780  0.43320  1.0000 0.1098387453
H   H34       1.0  0.92610  0.33670  0.16230  1.0000 0.1098387453
H   H35       1.0  0.82230  0.30050  0.01310  1.0000 0.1383292711
H   H36       1.0  0.20110  0.42870  0.95100  1.0000 0.1383292711
H   H37       1.0  0.29210  0.46350  0.10250  1.0000 0.1197243511
H   H38       1.0  0.76750  0.29750  0.73200  1.0000 0.1098387453
H   H39       1.0  0.64360  0.21150  0.75700  1.0000 0.1197243511
H   H40       1.0  0.66650  0.14520  0.58460  1.0000 0.1311236387
H   H41       1.0  0.87720  0.90390  0.53000  1.0000 0.1311236387
H   H42       1.0  0.92950  0.10270  0.78250  1.0000 0.1197243511
C   C1        1.0  0.91130  0.39110  0.59590  1.0000 0.0617130156
C   C2        1.0  0.93230  0.31240  0.52330  1.0000 -0.160585778
C   C3        1.0  0.87800  0.30840  0.43710  1.0000 0.007256878
C   C4        1.0  0.80170  0.38700  0.42740  1.0000 -0.160585778
C   C5        1.0  0.78380  0.46180  0.50250  1.0000 0.0862799565
C   C6        1.0  0.89410  0.22560  0.35460  1.0000 0.4903481285
C   C7        1.0  0.98300  0.06960  0.30250  1.0000 -0.0720813605
C   C8        1.0  0.67870  0.80790  0.76020  1.0000 0.0617130156
C   C9        1.0  0.60550  0.88670  0.75210  1.0000 -0.160585778
C   C10       1.0  0.52520  0.87450  0.67000  1.0000 0.007256878
C   C11       1.0  0.52790  0.78660  0.59840  1.0000 -0.1501553675
C   C12       1.0  0.60280  0.71110  0.61290  1.0000 0.0862799565
C   C13       1.0  0.44090  0.95860  0.66000  1.0000 0.4903481285
C   C14       1.0  0.30690  0.01960  0.55620  1.0000 -0.0720813605
C   C15       1.0  0.01680  0.64480  0.88180  1.0000 0.0862799565
C   C16       1.0  0.07950  0.66740  0.97100  1.0000 -0.160585778
C   C17       1.0  0.99900  0.64320  0.03640  1.0000 -0.0037114912
C   C18       1.0  0.85860  0.59220  0.00690  1.0000 -0.160585778
C   C19       1.0  0.80470  0.57170  0.91650  1.0000 0.0728439371
C   C20       1.0  0.05780  0.66870  0.13370  1.0000 0.4958013574
C   C21       1.0  0.25320  0.76800  0.24380  1.0000 -0.0720813605
C   C22       1.0  0.20670  0.86310  0.30630  1.0000 0.1098387453
C   C23       1.0  0.26910  0.89390  0.39610  1.0000 -0.2033997459
C   C24       1.0  0.23900  0.98030  0.45800  1.0000 0.1098387453
C   C25       1.0  0.14470  0.03630  0.42810  1.0000 -0.2097563205
C   C26       1.0  0.08260  0.00690  0.33940  1.0000 0.1098387453
C   C27       1.0  0.11420  0.91880  0.27890  1.0000 -0.2097563205
C   C28       1.0  0.08870  0.60890  0.40410  1.0000 0.0617130156
C   C29       1.0  0.06770  0.68760  0.47670  1.0000 -0.160585778
C   C30       1.0  0.12200  0.69160  0.56290  1.0000 0.007256878
C   C31       1.0  0.19830  0.61300  0.57260  1.0000 -0.160585778
C   C32       1.0  0.21620  0.53820  0.49750  1.0000 0.0862799565
C   C33       1.0  0.10590  0.77440  0.64540  1.0000 0.4903481285
C   C34       1.0  0.01700  0.93040  0.69750  1.0000 -0.0720813605
C   C35       1.0  0.32130  0.19210  0.23980  1.0000 0.0617130156
C   C36       1.0  0.39450  0.11330  0.24790  1.0000 -0.160585778
C   C37       1.0  0.47480  0.12550  0.33000  1.0000 0.007256878
C   C38       1.0  0.47210  0.21340  0.40160  1.0000 -0.1501553675
C   C39       1.0  0.39720  0.28890  0.38710  1.0000 0.0862799565
C   C40       1.0  0.55910  0.04140  0.34000  1.0000 0.4903481285
C   C41       1.0  0.69310  0.98040  0.44380  1.0000 -0.0720813605
C   C42       1.0  0.98320  0.35520  0.11820  1.0000 0.0862799565
C   C43       1.0  0.92050  0.33260  0.02900  1.0000 -0.160585778
C   C44       1.0  0.00100  0.35680  0.96360  1.0000 -0.0037114912
C   C45       1.0  0.14140  0.40780  0.99310  1.0000 -0.160585778
C   C46       1.0  0.19530  0.42830  0.08350  1.0000 0.0728439371
C   C47       1.0  0.94220  0.33130  0.86630  1.0000 0.4958013574
C   C48       1.0  0.74680  0.23200  0.75620  1.0000 -0.0720813605
C   C49       1.0  0.79330  0.13690  0.69370  1.0000 0.1098387453
C   C50       1.0  0.73090  0.10610  0.60390  1.0000 -0.2033997459
C   C51       1.0  0.76100  0.01970  0.54200  1.0000 0.1098387453
C   C52       1.0  0.85530  0.96370  0.57190  1.0000 -0.2097563205
C   C53       1.0  0.91740  0.99310  0.66060  1.0000 0.1098387453
C   C54       1.0  0.88580  0.08120  0.72110  1.0000 -0.2097563205
C   C55       1.0  0.31170  0.34820  0.69840  1.0000 0.4663152973
C   C56       1.0  0.68830  0.65180  0.30160  1.0000 0.4663152973
S   S1        1.0  0.47921  0.38668  0.66529  1.0000 0.9661612789
S   S2        1.0  0.52079  0.61332  0.33471  1.0000 0.9661612789
N   N1        1.0  0.83650  0.46520  0.58560  1.0000 -0.1908624813
N   N2        1.0  0.67910  0.72060  0.69250  1.0000 -0.1908624813
N   N3        1.0  0.88330  0.59930  0.85550  1.0000 -0.1908624813
N   N4        1.0  0.16350  0.53480  0.41440  1.0000 -0.1908624813
N   N5        1.0  0.32090  0.27940  0.30750  1.0000 -0.1908624813
N   N6        1.0  0.11670  0.40070  0.14450  1.0000 -0.1908624813
O   O1        1.0  0.85150  0.22100  0.27840  1.0000 -0.4589055349
O   O2        1.0  0.96130  0.15330  0.37630  1.0000 -0.2033997459
O   O3        1.0  0.00070  0.62880  0.18750  1.0000 -0.4499655982
O   O4        1.0  0.18040  0.74180  0.15160  1.0000 -0.2097563205
O   O5        1.0  0.42950  0.03040  0.72150  1.0000 -0.4305496832
O   O6        1.0  0.38300  0.94050  0.57530  1.0000 -0.2097563205
O   O7        1.0  0.14850  0.77900  0.72160  1.0000 -0.4589055349
O   O8        1.0  0.03870  0.84670  0.62370  1.0000 -0.2033997459
O   O9        1.0  0.99930  0.37120  0.81250  1.0000 -0.4499655982
O   O10       1.0  0.81960  0.25820  0.84840  1.0000 -0.2097563205
O   O11       1.0  0.57050  0.96960  0.27850  1.0000 -0.4305496832
O   O12       1.0  0.61700  0.05950  0.42470  1.0000 -0.2097563205
O   O13       1.0  0.56580  0.44610  0.74940  1.0000 -0.5589288046
O   O14       1.0  0.45970  0.45160  0.60410  1.0000 -0.5539251884
O   O15       1.0  0.51000  0.28430  0.62340  1.0000 -0.5589288046
O   O16       1.0  0.43420  0.55390  0.25060  1.0000 -0.5589288046
O   O17       1.0  0.54030  0.54840  0.39590  1.0000 -0.5539251884
O   O18       1.0  0.49000  0.71570  0.37660  1.0000 -0.5589288046
F   F1        1.0  0.31270  0.29520  0.76090  1.0000 -0.160585778
F   F2        1.0  0.26100  0.43640  0.73180  1.0000 -0.1780171898
F   F3        1.0  0.21790  0.28430  0.63100  1.0000 -0.1780171898
F   F4        1.0  0.68730  0.70480  0.23910  1.0000 -0.160585778
F   F5        1.0  0.73900  0.56360  0.26820  1.0000 -0.1780171898
F   F6        1.0  0.78210  0.71570  0.36900  1.0000 -0.1780171898
