# DDEC6 charges by PACMAN v1.1 (https://github.com/mtap-research/PACMAN-charge/)
data_2017[Ag][srs]3[ION]25
_chemical_formula_sum              "Ag6 H120 C144 N40 Cl6 O24"
_cell_length_a       18.4639
_cell_length_b       18.4639
_cell_length_c       18.4639
_cell_angle_alpha    109.471
_cell_angle_beta     109.471
_cell_angle_gamma    109.471

_symmetry_space_group_name_H-M    "P 1"
_symmetry_Int_Tables_number       1

loop_
  _symmetry_equiv_pos_as_xyz
  'x, y, z'

loop_
  _atom_site_type_symbol
  _atom_site_label
  _atom_site_symmetry_multiplicity
  _atom_site_fract_x
  _atom_site_fract_y
  _atom_site_fract_z
  _atom_site_occupancy
  _atom_site_charge
Ag  Ag1       1.0  0.04212  0.75000  0.79212  1.0000 0.2591695487
Ag  Ag2       1.0  0.45788  0.25000  0.70788  1.0000 0.2591695487
Ag  Ag3       1.0  0.79212  0.04212  0.75000  1.0000 0.2591695487
Ag  Ag4       1.0  0.70788  0.45788  0.25000  1.0000 0.2591695487
Ag  Ag5       1.0  0.75000  0.79212  0.04212  1.0000 0.2591695487
Ag  Ag6       1.0  0.25000  0.70788  0.45788  1.0000 0.2591695487
H   H1        1.0  0.96550  0.54500  0.89730  1.0000 0.1245601822
H   H2        1.0  0.01280  0.68010  0.90070  1.0000 0.1017676864
H   H3        1.0  0.24880  0.78140  0.11160  1.0000 0.1264010816
H   H4        1.0  0.20740  0.64700  0.10480  1.0000 0.1264010816
H   H5        1.0  0.21870  0.88080  0.06610  1.0000 0.1112989627
H   H6        1.0  0.20160  0.08540  0.99020  1.0000 0.1544034492
H   H7        1.0  0.16730  0.12220  0.88050  1.0000 0.1112989627
H   H8        1.0  0.08560  0.00750  0.72770  1.0000 0.1264010816
H   H9        1.0  0.04050  0.86450  0.69860  1.0000 0.1017676864
H   H10       1.0  0.20310  0.97460  0.02490  1.0000 0.2809038012
H   H11       1.0  0.14770  0.06820  0.60270  1.0000 0.1245601822
H   H12       1.0  0.27940  0.11210  0.59930  1.0000 0.1017676864
H   H13       1.0  0.16980  0.13720  0.38840  1.0000 0.1264010816
H   H14       1.0  0.04220  0.10260  0.39520  1.0000 0.1264010816
H   H15       1.0  0.31470  0.15260  0.43390  1.0000 0.1112989627
H   H16       1.0  0.59520  0.21140  0.50980  1.0000 0.1544034492
H   H17       1.0  0.74170  0.28680  0.61950  1.0000 0.1112989627
H   H18       1.0  0.77980  0.35790  0.77230  1.0000 0.1264010816
H   H19       1.0  0.66590  0.34190  0.80140  1.0000 0.1017676864
H   H20       1.0  0.44970  0.17820  0.47510  1.0000 0.2809038012
H   H21       1.0  0.35230  0.95500  0.92050  1.0000 0.1245601822
H   H22       1.0  0.22060  0.81990  0.83270  1.0000 0.1017676864
H   H23       1.0  0.33020  0.71860  0.96740  1.0000 0.1264010816
H   H24       1.0  0.45780  0.85300  0.06040  1.0000 0.1264010816
H   H25       1.0  0.18530  0.61920  0.83790  1.0000 0.1112989627
H   H26       1.0  0.90480  0.41460  0.61620  1.0000 0.1544034492
H   H27       1.0  0.75830  0.37780  0.54510  1.0000 0.1112989627
H   H28       1.0  0.72020  0.49250  0.57810  1.0000 0.1264010816
H   H29       1.0  0.83410  0.63550  0.67600  1.0000 0.1017676864
H   H30       1.0  0.05030  0.52540  0.72850  1.0000 0.2809038012
H   H31       1.0  0.53450  0.43180  0.57950  1.0000 0.1245601822
H   H32       1.0  0.48720  0.38790  0.66730  1.0000 0.1017676864
H   H33       1.0  0.25120  0.36280  0.53260  1.0000 0.1264010816
H   H34       1.0  0.29260  0.39740  0.43960  1.0000 0.1264010816
H   H35       1.0  0.28130  0.34740  0.66210  1.0000 0.1112989627
H   H36       1.0  0.29840  0.28860  0.88380  1.0000 0.1544034492
H   H37       1.0  0.33270  0.21320  0.95490  1.0000 0.1112989627
H   H38       1.0  0.41440  0.14210  0.92190  1.0000 0.1264010816
H   H39       1.0  0.45950  0.15810  0.82400  1.0000 0.1017676864
H   H40       1.0  0.29690  0.32180  0.77150  1.0000 0.2809038012
H   H41       1.0  0.89730  0.96550  0.54500  1.0000 0.1245601822
H   H42       1.0  0.90070  0.01280  0.68010  1.0000 0.1017676864
H   H43       1.0  0.11160  0.24880  0.78140  1.0000 0.1264010816
H   H44       1.0  0.10480  0.20740  0.64700  1.0000 0.1264010816
H   H45       1.0  0.06610  0.21870  0.88080  1.0000 0.1112989627
H   H46       1.0  0.99020  0.20160  0.08540  1.0000 0.1544034492
H   H47       1.0  0.88050  0.16730  0.12220  1.0000 0.1112989627
H   H48       1.0  0.72770  0.08560  0.00750  1.0000 0.1264010816
H   H49       1.0  0.69860  0.04050  0.86450  1.0000 0.1017676864
H   H50       1.0  0.02490  0.20310  0.97460  1.0000 0.2809038012
H   H51       1.0  0.60270  0.14770  0.06820  1.0000 0.1245601822
H   H52       1.0  0.59930  0.27940  0.11210  1.0000 0.1017676864
H   H53       1.0  0.38840  0.16980  0.13720  1.0000 0.1264010816
H   H54       1.0  0.39520  0.04220  0.10260  1.0000 0.1264010816
H   H55       1.0  0.43390  0.31470  0.15260  1.0000 0.1112989627
H   H56       1.0  0.50980  0.59520  0.21140  1.0000 0.1544034492
H   H57       1.0  0.61950  0.74170  0.28680  1.0000 0.1112989627
H   H58       1.0  0.77230  0.77980  0.35790  1.0000 0.1264010816
H   H59       1.0  0.80140  0.66590  0.34190  1.0000 0.1017676864
H   H60       1.0  0.47510  0.44970  0.17820  1.0000 0.2809038012
H   H61       1.0  0.92050  0.35230  0.95500  1.0000 0.1245601822
H   H62       1.0  0.83270  0.22060  0.81990  1.0000 0.1017676864
H   H63       1.0  0.96740  0.33020  0.71860  1.0000 0.1264010816
H   H64       1.0  0.06040  0.45780  0.85300  1.0000 0.1264010816
H   H65       1.0  0.83790  0.18530  0.61920  1.0000 0.1112989627
H   H66       1.0  0.61620  0.90480  0.41460  1.0000 0.1544034492
H   H67       1.0  0.54510  0.75830  0.37780  1.0000 0.1112989627
H   H68       1.0  0.57810  0.72020  0.49250  1.0000 0.1264010816
H   H69       1.0  0.67600  0.83410  0.63550  1.0000 0.1017676864
H   H70       1.0  0.72850  0.05030  0.52540  1.0000 0.2809038012
H   H71       1.0  0.57950  0.53450  0.43180  1.0000 0.1245601822
H   H72       1.0  0.66730  0.48720  0.38790  1.0000 0.1017676864
H   H73       1.0  0.53260  0.25120  0.36280  1.0000 0.1264010816
H   H74       1.0  0.43960  0.29260  0.39740  1.0000 0.1264010816
H   H75       1.0  0.66210  0.28130  0.34740  1.0000 0.1112989627
H   H76       1.0  0.88380  0.29840  0.28860  1.0000 0.1544034492
H   H77       1.0  0.95490  0.33270  0.21320  1.0000 0.1112989627
H   H78       1.0  0.92190  0.41440  0.14210  1.0000 0.1264010816
H   H79       1.0  0.82400  0.45950  0.15810  1.0000 0.1017676864
H   H80       1.0  0.77150  0.29690  0.32180  1.0000 0.2809038012
H   H81       1.0  0.54500  0.89730  0.96550  1.0000 0.1245601822
H   H82       1.0  0.68010  0.90070  0.01280  1.0000 0.1017676864
H   H83       1.0  0.78140  0.11160  0.24880  1.0000 0.1264010816
H   H84       1.0  0.64700  0.10480  0.20740  1.0000 0.1264010816
H   H85       1.0  0.88080  0.06610  0.21870  1.0000 0.1112989627
H   H86       1.0  0.08540  0.99020  0.20160  1.0000 0.1544034492
H   H87       1.0  0.12220  0.88050  0.16730  1.0000 0.1112989627
H   H88       1.0  0.00750  0.72770  0.08560  1.0000 0.1264010816
H   H89       1.0  0.86450  0.69860  0.04050  1.0000 0.1017676864
H   H90       1.0  0.97460  0.02490  0.20310  1.0000 0.2809038012
H   H91       1.0  0.06820  0.60270  0.14770  1.0000 0.1245601822
H   H92       1.0  0.11210  0.59930  0.27940  1.0000 0.1017676864
H   H93       1.0  0.13720  0.38840  0.16980  1.0000 0.1264010816
H   H94       1.0  0.10260  0.39520  0.04220  1.0000 0.1264010816
H   H95       1.0  0.15260  0.43390  0.31470  1.0000 0.1112989627
H   H96       1.0  0.21140  0.50980  0.59520  1.0000 0.1544034492
H   H97       1.0  0.28680  0.61950  0.74170  1.0000 0.1112989627
H   H98       1.0  0.35790  0.77230  0.77980  1.0000 0.1264010816
H   H99       1.0  0.34190  0.80140  0.66590  1.0000 0.1017676864
H   H100      1.0  0.17820  0.47510  0.44970  1.0000 0.2809038012
H   H101      1.0  0.95500  0.92050  0.35230  1.0000 0.1245601822
H   H102      1.0  0.81990  0.83270  0.22060  1.0000 0.1017676864
H   H103      1.0  0.71860  0.96740  0.33020  1.0000 0.1264010816
H   H104      1.0  0.85300  0.06040  0.45780  1.0000 0.1264010816
H   H105      1.0  0.61920  0.83790  0.18530  1.0000 0.1112989627
H   H106      1.0  0.41460  0.61620  0.90480  1.0000 0.1544034492
H   H107      1.0  0.37780  0.54510  0.75830  1.0000 0.1112989627
H   H108      1.0  0.49250  0.57810  0.72020  1.0000 0.1264010816
H   H109      1.0  0.63550  0.67600  0.83410  1.0000 0.1017676864
H   H110      1.0  0.52540  0.72850  0.05030  1.0000 0.2809038012
H   H111      1.0  0.43180  0.57950  0.53450  1.0000 0.1245601822
H   H112      1.0  0.38790  0.66730  0.48720  1.0000 0.1017676864
H   H113      1.0  0.36280  0.53260  0.25120  1.0000 0.1264010816
H   H114      1.0  0.39740  0.43960  0.29260  1.0000 0.1264010816
H   H115      1.0  0.34740  0.66210  0.28130  1.0000 0.1112989627
H   H116      1.0  0.28860  0.88380  0.29840  1.0000 0.1544034492
H   H117      1.0  0.21320  0.95490  0.33270  1.0000 0.1112989627
H   H118      1.0  0.14210  0.92190  0.41440  1.0000 0.1264010816
H   H119      1.0  0.15810  0.82400  0.45950  1.0000 0.1017676864
H   H120      1.0  0.32180  0.77150  0.29690  1.0000 0.2809038012
C   C1        1.0  0.08170  0.58170  0.00240  1.0000 0.1790133813
C   C2        1.0  0.02320  0.59250  0.94030  1.0000 -0.2061718716
C   C3        1.0  0.05140  0.67350  0.94310  1.0000 -0.1399030786
C   C4        1.0  0.13480  0.74420  0.00660  1.0000 0.0614339336
C   C5        1.0  0.19190  0.73320  0.06750  1.0000 -0.1192963385
C   C6        1.0  0.16670  0.65360  0.06450  1.0000 -0.1840130216
C   C7        1.0  0.16740  0.83220  0.01360  1.0000 -0.0164284605
C   C8        1.0  0.14060  0.95190  0.90630  1.0000 0.3334049681
C   C9        1.0  0.16900  0.04110  0.93010  1.0000 -0.2270829021
C   C10       1.0  0.14890  0.06270  0.86540  1.0000 -0.0128387147
C   C11       1.0  0.09960  0.99460  0.77400  1.0000 -0.1967389945
C   C12       1.0  0.07420  0.91040  0.75800  1.0000 0.0614339336
C   C13       1.0  0.07930  0.07930  0.49760  1.0000 0.1790133813
C   C14       1.0  0.15220  0.08290  0.55970  1.0000 -0.2061718716
C   C15       1.0  0.23040  0.10830  0.55690  1.0000 -0.1399030786
C   C16       1.0  0.23760  0.12820  0.49340  1.0000 0.0614339336
C   C17       1.0  0.16570  0.12440  0.43250  1.0000 -0.1192963385
C   C18       1.0  0.08910  0.10220  0.43550  1.0000 -0.1840130216
C   C19       1.0  0.31860  0.15380  0.48640  1.0000 -0.0164284605
C   C20       1.0  0.54560  0.23430  0.59370  1.0000 0.3334049681
C   C21       1.0  0.61100  0.23890  0.56990  1.0000 -0.2270829021
C   C22       1.0  0.69730  0.28350  0.63460  1.0000 -0.0128387147
C   C23       1.0  0.72060  0.32560  0.72600  1.0000 -0.1967389945
C   C24       1.0  0.65240  0.31620  0.74200  1.0000 0.0614339336
C   C25       1.0  0.42070  0.91830  0.00000  1.0000 0.1790133813
C   C26       1.0  0.34780  0.90750  0.93070  1.0000 -0.2061718716
C   C27       1.0  0.26960  0.82650  0.87790  1.0000 -0.1399030786
C   C28       1.0  0.26240  0.75580  0.89060  1.0000 0.0614339336
C   C29       1.0  0.33430  0.76680  0.95870  1.0000 -0.1192963385
C   C30       1.0  0.41090  0.84640  0.01310  1.0000 -0.1840130216
C   C31       1.0  0.18140  0.66780  0.83520  1.0000 -0.0164284605
C   C32       1.0  0.95440  0.54810  0.68870  1.0000 0.3334049681
C   C33       1.0  0.88900  0.45890  0.62790  1.0000 -0.2270829021
C   C34       1.0  0.80270  0.43730  0.58620  1.0000 -0.0128387147
C   C35       1.0  0.77940  0.50540  0.60500  1.0000 -0.1967389945
C   C36       1.0  0.84760  0.58960  0.66380  1.0000 0.0614339336
C   C37       1.0  0.41830  0.42070  0.50000  1.0000 0.1790133813
C   C38       1.0  0.47680  0.41710  0.56930  1.0000 -0.2061718716
C   C39       1.0  0.44860  0.39170  0.62210  1.0000 -0.1399030786
C   C40       1.0  0.36520  0.37180  0.60940  1.0000 0.0614339336
C   C41       1.0  0.30810  0.37560  0.54130  1.0000 -0.1192963385
C   C42       1.0  0.33333  0.39780  0.48690  1.0000 -0.1840130216
C   C43       1.0  0.33260  0.34620  0.66480  1.0000 -0.0164284605
C   C44       1.0  0.35940  0.26570  0.81130  1.0000 0.3334049681
C   C45       1.0  0.33100  0.26110  0.87210  1.0000 -0.2270829021
C   C46       1.0  0.35110  0.21650  0.91380  1.0000 -0.0128387147
C   C47       1.0  0.40040  0.17440  0.89500  1.0000 -0.1967389945
C   C48       1.0  0.42580  0.18380  0.83620  1.0000 0.0614339336
C   C49       1.0  0.00240  0.08170  0.58170  1.0000 0.1790133813
C   C50       1.0  0.94030  0.02320  0.59250  1.0000 -0.2061718716
C   C51       1.0  0.94310  0.05140  0.67350  1.0000 -0.1399030786
C   C52       1.0  0.00660  0.13480  0.74420  1.0000 0.0614339336
C   C53       1.0  0.06750  0.19190  0.73320  1.0000 -0.1192963385
C   C54       1.0  0.06450  0.16670  0.65360  1.0000 -0.1840130216
C   C55       1.0  0.01360  0.16740  0.83220  1.0000 -0.0164284605
C   C56       1.0  0.90630  0.14060  0.95190  1.0000 0.3334049681
C   C57       1.0  0.93010  0.16900  0.04110  1.0000 -0.2270829021
C   C58       1.0  0.86540  0.14890  0.06270  1.0000 -0.0128387147
C   C59       1.0  0.77400  0.09960  0.99460  1.0000 -0.1967389945
C   C60       1.0  0.75800  0.07420  0.91040  1.0000 0.0614339336
C   C61       1.0  0.49760  0.07930  0.07930  1.0000 0.1790133813
C   C62       1.0  0.55970  0.15220  0.08290  1.0000 -0.2061718716
C   C63       1.0  0.55690  0.23040  0.10830  1.0000 -0.1399030786
C   C64       1.0  0.49340  0.23760  0.12820  1.0000 0.0614339336
C   C65       1.0  0.43250  0.16570  0.12440  1.0000 -0.1192963385
C   C66       1.0  0.43550  0.08910  0.10220  1.0000 -0.1840130216
C   C67       1.0  0.48640  0.31860  0.15380  1.0000 -0.0164284605
C   C68       1.0  0.59370  0.54560  0.23430  1.0000 0.3334049681
C   C69       1.0  0.56990  0.61100  0.23890  1.0000 -0.2270829021
C   C70       1.0  0.63460  0.69730  0.28350  1.0000 -0.0128387147
C   C71       1.0  0.72600  0.72060  0.32560  1.0000 -0.1967389945
C   C72       1.0  0.74200  0.65240  0.31620  1.0000 0.0614339336
C   C73       1.0  1.00000  0.42070  0.91830  1.0000 0.1790133813
C   C74       1.0  0.93070  0.34780  0.90750  1.0000 -0.2061718716
C   C75       1.0  0.87790  0.26960  0.82650  1.0000 -0.1399030786
C   C76       1.0  0.89060  0.26240  0.75580  1.0000 0.0614339336
C   C77       1.0  0.95870  0.33430  0.76680  1.0000 -0.1192963385
C   C78       1.0  0.01310  0.41090  0.84640  1.0000 -0.1840130216
C   C79       1.0  0.83520  0.18140  0.66780  1.0000 -0.0164284605
C   C80       1.0  0.68870  0.95440  0.54810  1.0000 0.3334049681
C   C81       1.0  0.62790  0.88900  0.45890  1.0000 -0.2270829021
C   C82       1.0  0.58620  0.80270  0.43730  1.0000 -0.0128387147
C   C83       1.0  0.60500  0.77940  0.50540  1.0000 -0.1967389945
C   C84       1.0  0.66380  0.84760  0.58960  1.0000 0.0614339336
C   C85       1.0  0.50000  0.41830  0.42070  1.0000 0.1790133813
C   C86       1.0  0.56930  0.47680  0.41710  1.0000 -0.2061718716
C   C87       1.0  0.62210  0.44860  0.39170  1.0000 -0.1399030786
C   C88       1.0  0.60940  0.36520  0.37180  1.0000 0.0614339336
C   C89       1.0  0.54130  0.30810  0.37560  1.0000 -0.1192963385
C   C90       1.0  0.48690  0.33333  0.39780  1.0000 -0.1840130216
C   C91       1.0  0.66480  0.33260  0.34620  1.0000 -0.0164284605
C   C92       1.0  0.81130  0.35940  0.26570  1.0000 0.3334049681
C   C93       1.0  0.87210  0.33100  0.26110  1.0000 -0.2270829021
C   C94       1.0  0.91380  0.35110  0.21650  1.0000 -0.0128387147
C   C95       1.0  0.89500  0.40040  0.17440  1.0000 -0.1967389945
C   C96       1.0  0.83620  0.42580  0.18380  1.0000 0.0614339336
C   C97       1.0  0.58170  0.00240  0.08170  1.0000 0.1790133813
C   C98       1.0  0.59250  0.94030  0.02320  1.0000 -0.2061718716
C   C99       1.0  0.67350  0.94310  0.05140  1.0000 -0.1399030786
C   C100      1.0  0.74420  0.00660  0.13480  1.0000 0.0614339336
C   C101      1.0  0.73320  0.06750  0.19190  1.0000 -0.1192963385
C   C102      1.0  0.65360  0.06450  0.16670  1.0000 -0.1840130216
C   C103      1.0  0.83220  0.01360  0.16740  1.0000 -0.0164284605
C   C104      1.0  0.95190  0.90630  0.14060  1.0000 0.3334049681
C   C105      1.0  0.04110  0.93010  0.16900  1.0000 -0.2270829021
C   C106      1.0  0.06270  0.86540  0.14890  1.0000 -0.0128387147
C   C107      1.0  0.99460  0.77400  0.09960  1.0000 -0.1967389945
C   C108      1.0  0.91040  0.75800  0.07420  1.0000 0.0614339336
C   C109      1.0  0.07930  0.49760  0.07930  1.0000 0.1790133813
C   C110      1.0  0.08290  0.55970  0.15220  1.0000 -0.2061718716
C   C111      1.0  0.10830  0.55690  0.23040  1.0000 -0.1399030786
C   C112      1.0  0.12820  0.49340  0.23760  1.0000 0.0614339336
C   C113      1.0  0.12440  0.43250  0.16570  1.0000 -0.1192963385
C   C114      1.0  0.10220  0.43550  0.08910  1.0000 -0.1840130216
C   C115      1.0  0.15380  0.48640  0.31860  1.0000 -0.0164284605
C   C116      1.0  0.23430  0.59370  0.54560  1.0000 0.3334049681
C   C117      1.0  0.23890  0.56990  0.61100  1.0000 -0.2270829021
C   C118      1.0  0.28350  0.63460  0.69730  1.0000 -0.0128387147
C   C119      1.0  0.32560  0.72600  0.72060  1.0000 -0.1967389945
C   C120      1.0  0.31620  0.74200  0.65240  1.0000 0.0614339336
C   C121      1.0  0.91830  0.00000  0.42070  1.0000 0.1790133813
C   C122      1.0  0.90750  0.93070  0.34780  1.0000 -0.2061718716
C   C123      1.0  0.82650  0.87790  0.26960  1.0000 -0.1399030786
C   C124      1.0  0.75580  0.89060  0.26240  1.0000 0.0614339336
C   C125      1.0  0.76680  0.95870  0.33430  1.0000 -0.1192963385
C   C126      1.0  0.84640  0.01310  0.41090  1.0000 -0.1840130216
C   C127      1.0  0.66780  0.83520  0.18140  1.0000 -0.0164284605
C   C128      1.0  0.54810  0.68870  0.95440  1.0000 0.3334049681
C   C129      1.0  0.45890  0.62790  0.88900  1.0000 -0.2270829021
C   C130      1.0  0.43730  0.58620  0.80270  1.0000 -0.0128387147
C   C131      1.0  0.50540  0.60500  0.77940  1.0000 -0.1967389945
C   C132      1.0  0.58960  0.66380  0.84760  1.0000 0.0614339336
C   C133      1.0  0.42070  0.50000  0.41830  1.0000 0.1790133813
C   C134      1.0  0.41710  0.56930  0.47680  1.0000 -0.2061718716
C   C135      1.0  0.39170  0.62210  0.44860  1.0000 -0.1399030786
C   C136      1.0  0.37180  0.60940  0.36520  1.0000 0.0614339336
C   C137      1.0  0.37560  0.54130  0.30810  1.0000 -0.1192963385
C   C138      1.0  0.39780  0.48690  0.33333  1.0000 -0.1840130216
C   C139      1.0  0.34620  0.66480  0.33260  1.0000 -0.0164284605
C   C140      1.0  0.26570  0.81130  0.35940  1.0000 0.3334049681
C   C141      1.0  0.26110  0.87210  0.33100  1.0000 -0.2270829021
C   C142      1.0  0.21650  0.91380  0.35110  1.0000 -0.0128387147
C   C143      1.0  0.17440  0.89500  0.40040  1.0000 -0.1967389945
C   C144      1.0  0.18380  0.83620  0.42580  1.0000 0.0614339336
N   N1        1.0  0.12980  0.84535  0.95255  1.0000 -0.1287100117
N   N2        1.0  0.16460  0.93190  0.97050  1.0000 -0.2061718716
N   N3        1.0  0.09390  0.88820  0.82110  1.0000 -0.2700096891
N   N4        1.0  0.39280  0.17725  0.54745  1.0000 -0.1287100117
N   N5        1.0  0.46140  0.19410  0.52950  1.0000 -0.2061718716
N   N6        1.0  0.56710  0.27280  0.67890  1.0000 -0.2700096891
N   N7        1.0  0.10720  0.65465  0.78445  1.0000 -0.1287100117
N   N8        1.0  0.03860  0.56810  0.73270  1.0000 -0.2061718716
N   N9        1.0  0.93290  0.61180  0.70570  1.0000 -0.2700096891
N   N10       1.0  0.37020  0.32275  0.71555  1.0000 -0.1287100117
N   N11       1.0  0.33540  0.30590  0.76730  1.0000 -0.2061718716
N   N12       1.0  0.40610  0.22720  0.79430  1.0000 -0.2700096891
N   N13       1.0  0.95255  0.12980  0.84535  1.0000 -0.1287100117
N   N14       1.0  0.97050  0.16460  0.93190  1.0000 -0.2061718716
N   N15       1.0  0.82110  0.09390  0.88820  1.0000 -0.2700096891
N   N16       1.0  0.54745  0.39280  0.17725  1.0000 -0.1287100117
N   N17       1.0  0.52950  0.46140  0.19410  1.0000 -0.2061718716
N   N18       1.0  0.67890  0.56710  0.27280  1.0000 -0.2700096891
N   N19       1.0  0.78445  0.10720  0.65465  1.0000 -0.1287100117
N   N20       1.0  0.73270  0.03860  0.56810  1.0000 -0.2061718716
N   N21       1.0  0.70570  0.93290  0.61180  1.0000 -0.2700096891
N   N22       1.0  0.71555  0.37020  0.32275  1.0000 -0.1287100117
N   N23       1.0  0.76730  0.33540  0.30590  1.0000 -0.2061718716
N   N24       1.0  0.79430  0.40610  0.22720  1.0000 -0.2700096891
N   N25       1.0  0.84535  0.95255  0.12980  1.0000 -0.1287100117
N   N26       1.0  0.93190  0.97050  0.16460  1.0000 -0.2061718716
N   N27       1.0  0.88820  0.82110  0.09390  1.0000 -0.2700096891
N   N28       1.0  0.17725  0.54745  0.39280  1.0000 -0.1287100117
N   N29       1.0  0.19410  0.52950  0.46140  1.0000 -0.2061718716
N   N30       1.0  0.27280  0.67890  0.56710  1.0000 -0.2700096891
N   N31       1.0  0.65465  0.78445  0.10720  1.0000 -0.1287100117
N   N32       1.0  0.56810  0.73270  0.03860  1.0000 -0.2061718716
N   N33       1.0  0.61180  0.70570  0.93290  1.0000 -0.2700096891
N   N34       1.0  0.32275  0.71555  0.37020  1.0000 -0.1287100117
N   N35       1.0  0.30590  0.76730  0.33540  1.0000 -0.2061718716
N   N36       1.0  0.22720  0.79430  0.40610  1.0000 -0.2700096891
N   N37       1.0  0.05480  0.50000  0.00000  1.0000 -0.1630433451
N   N38       1.0  0.00000  0.05480  0.50000  1.0000 -0.1630433451
N   N39       1.0  0.50000  0.00000  0.05480  1.0000 -0.1630433451
N   N40       1.0  0.44520  0.44520  0.44520  1.0000 -0.1630433451
Cl  Cl1       1.0  0.44079  0.75000  0.19079  1.0000 1.254650702
Cl  Cl2       1.0  0.05921  0.25000  0.30921  1.0000 1.254650702
Cl  Cl3       1.0  0.75000  0.19079  0.44079  1.0000 1.254650702
Cl  Cl4       1.0  0.25000  0.30921  0.05921  1.0000 1.254650702
Cl  Cl5       1.0  0.19079  0.44079  0.75000  1.0000 1.2553397317
Cl  Cl6       1.0  0.30921  0.05921  0.25000  1.0000 1.254650702
O   O1        1.0  0.42880  0.67620  0.20340  1.0000 -0.5006701897
O   O2        1.0  0.37880  0.77360  0.20280  1.0000 -0.5006701897
O   O3        1.0  0.52720  0.82380  0.25260  1.0000 -0.5006701897
O   O4        1.0  0.42920  0.72640  0.10520  1.0000 -0.5006701897
O   O5        1.0  0.07120  0.27460  0.24740  1.0000 -0.5006701897
O   O6        1.0  0.12120  0.32400  0.39480  1.0000 -0.4939557354
O   O7        1.0  0.97280  0.22540  0.29660  1.0000 -0.5006701897
O   O8        1.0  0.07080  0.17600  0.29720  1.0000 -0.4939557354
O   O9        1.0  0.67620  0.20340  0.42880  1.0000 -0.5006701897
O   O10       1.0  0.77360  0.20280  0.37880  1.0000 -0.4939557354
O   O11       1.0  0.82380  0.25260  0.52720  1.0000 -0.5006701897
O   O12       1.0  0.72640  0.10520  0.42920  1.0000 -0.4939557354
O   O13       1.0  0.27460  0.24740  0.07120  1.0000 -0.5006701897
O   O14       1.0  0.32400  0.39480  0.12120  1.0000 -0.4939557354
O   O15       1.0  0.22540  0.29660  0.97280  1.0000 -0.5006701897
O   O16       1.0  0.17600  0.29720  0.07080  1.0000 -0.4939557354
O   O17       1.0  0.20340  0.42880  0.67620  1.0000 -0.5006701897
O   O18       1.0  0.20280  0.37880  0.77360  1.0000 -0.4939557354
O   O19       1.0  0.25260  0.52720  0.82380  1.0000 -0.5006701897
O   O20       1.0  0.10520  0.42920  0.72640  1.0000 -0.4939557354
O   O21       1.0  0.24740  0.07120  0.27460  1.0000 -0.5006701897
O   O22       1.0  0.39480  0.12120  0.32400  1.0000 -0.4939557354
O   O23       1.0  0.29660  0.97280  0.22540  1.0000 -0.5006701897
O   O24       1.0  0.29720  0.07080  0.17600  1.0000 -0.4939557354
