# DDEC6 charges by PACMAN v1.1 (https://github.com/mtap-research/PACMAN-charge/)
data_2017[Ag][srs]3[ION]5
_chemical_formula_sum              "Ag6 H108 C144 N40 Cl18 O24"
_cell_length_a       18.4479
_cell_length_b       18.4479
_cell_length_c       18.4479
_cell_angle_alpha    109.471
_cell_angle_beta     109.471
_cell_angle_gamma    109.471

_symmetry_space_group_name_H-M    "P 1"
_symmetry_Int_Tables_number       1

loop_
  _symmetry_equiv_pos_as_xyz
  'x, y, z'

loop_
  _atom_site_type_symbol
  _atom_site_label
  _atom_site_symmetry_multiplicity
  _atom_site_fract_x
  _atom_site_fract_y
  _atom_site_fract_z
  _atom_site_occupancy
  _atom_site_charge
Ag  Ag1       1.0  0.28847  0.53847  0.75000  1.0000 0.2973622287
Ag  Ag2       1.0  0.21153  0.96153  0.25000  1.0000 0.2973622287
Ag  Ag3       1.0  0.96153  0.25000  0.21153  1.0000 0.2973622287
Ag  Ag4       1.0  0.53847  0.75000  0.28847  1.0000 0.2973622287
Ag  Ag5       1.0  0.25000  0.21153  0.96153  1.0000 0.2973622287
Ag  Ag6       1.0  0.75000  0.28847  0.53847  1.0000 0.2973622287
H   H1        1.0  0.39770  0.85230  0.93920  1.0000 0.1280125149
H   H2        1.0  0.39790  0.71780  0.89110  1.0000 0.1111182108
H   H3        1.0  0.60780  0.82840  0.86440  1.0000 0.1280125149
H   H4        1.0  0.60500  0.95870  0.90630  1.0000 0.1227855017
H   H5        1.0  0.56220  0.68350  0.84690  1.0000 0.1111182108
H   H6        1.0  0.49210  0.40280  0.78630  1.0000 0.1535984134
H   H7        1.0  0.38080  0.25640  0.71520  1.0000 0.1111182108
H   H8        1.0  0.23430  0.21810  0.64720  1.0000 0.1280125149
H   H9        1.0  0.52270  0.54970  0.81900  1.0000 0.283402354
H   H10       1.0  0.41310  0.45850  0.56080  1.0000 0.1280125149
H   H11       1.0  0.32670  0.50680  0.60890  1.0000 0.1111182108
H   H12       1.0  0.46400  0.74340  0.63560  1.0000 0.1280125149
H   H13       1.0  0.55240  0.69870  0.59370  1.0000 0.1227855017
H   H14       1.0  0.33660  0.71530  0.65310  1.0000 0.1111182108
H   H15       1.0  0.11650  0.70580  0.71370  1.0000 0.1535984134
H   H16       1.0  0.04120  0.66560  0.78480  1.0000 0.1111182108
H   H17       1.0  0.07090  0.58710  0.85280  1.0000 0.1280125149
H   H18       1.0  0.23070  0.70370  0.68100  1.0000 0.283402354
H   H19       1.0  0.10230  0.04150  0.45460  1.0000 0.1280125149
H   H20       1.0  0.10210  0.99320  0.31990  1.0000 0.1111182108
H   H21       1.0  0.89220  0.75660  0.22060  1.0000 0.1280125149
H   H22       1.0  0.89500  0.80130  0.35370  1.0000 0.1227855017
H   H23       1.0  0.93780  0.78470  0.12130  1.0000 0.1111182108
H   H24       1.0  0.00790  0.79420  0.91070  1.0000 0.1535984134
H   H25       1.0  0.11920  0.83440  0.87560  1.0000 0.1111182108
H   H26       1.0  0.26570  0.91290  0.98380  1.0000 0.1280125149
H   H27       1.0  0.97730  0.79630  0.02700  1.0000 0.283402354
H   H28       1.0  0.08690  0.64770  0.04540  1.0000 0.1280125149
H   H29       1.0  0.17330  0.78220  0.18010  1.0000 0.1111182108
H   H30       1.0  0.03600  0.67160  0.27940  1.0000 0.1280125149
H   H31       1.0  0.94760  0.54130  0.14630  1.0000 0.1227855017
H   H32       1.0  0.16340  0.81650  0.37870  1.0000 0.1111182108
H   H33       1.0  0.38350  0.09720  0.58930  1.0000 0.1535984134
H   H34       1.0  0.45880  0.24360  0.62440  1.0000 0.1111182108
H   H35       1.0  0.42910  0.28190  0.51620  1.0000 0.1280125149
H   H36       1.0  0.26930  0.95030  0.47300  1.0000 0.283402354
H   H37       1.0  0.64770  0.04540  0.08690  1.0000 0.1280125149
H   H38       1.0  0.78220  0.18010  0.17330  1.0000 0.1111182108
H   H39       1.0  0.67160  0.27940  0.03600  1.0000 0.1280125149
H   H40       1.0  0.54130  0.14630  0.94760  1.0000 0.1227855017
H   H41       1.0  0.81650  0.37870  0.16340  1.0000 0.1111182108
H   H42       1.0  0.09720  0.58930  0.38350  1.0000 0.1535984134
H   H43       1.0  0.24360  0.62440  0.45880  1.0000 0.1111182108
H   H44       1.0  0.28190  0.51620  0.42910  1.0000 0.1280125149
H   H45       1.0  0.95030  0.47300  0.26930  1.0000 0.283402354
H   H46       1.0  0.04150  0.45460  0.10230  1.0000 0.1280125149
H   H47       1.0  0.99320  0.31990  0.10210  1.0000 0.1111182108
H   H48       1.0  0.75660  0.22060  0.89220  1.0000 0.1280125149
H   H49       1.0  0.80130  0.35370  0.89500  1.0000 0.1227855017
H   H50       1.0  0.78470  0.12130  0.93780  1.0000 0.1111182108
H   H51       1.0  0.79420  0.91070  0.00790  1.0000 0.1535984134
H   H52       1.0  0.83440  0.87560  0.11920  1.0000 0.1111182108
H   H53       1.0  0.91290  0.98380  0.26570  1.0000 0.1280125149
H   H54       1.0  0.79630  0.02700  0.97730  1.0000 0.283402354
H   H55       1.0  0.45850  0.56080  0.41310  1.0000 0.1280125149
H   H56       1.0  0.50680  0.60890  0.32670  1.0000 0.1111182108
H   H57       1.0  0.74340  0.63560  0.46400  1.0000 0.1280125149
H   H58       1.0  0.69870  0.59370  0.55240  1.0000 0.1227855017
H   H59       1.0  0.71530  0.65310  0.33660  1.0000 0.1111182108
H   H60       1.0  0.70580  0.71370  0.11650  1.0000 0.1535984134
H   H61       1.0  0.66560  0.78480  0.04120  1.0000 0.1111182108
H   H62       1.0  0.58710  0.85280  0.07090  1.0000 0.1280125149
H   H63       1.0  0.70370  0.68100  0.23070  1.0000 0.283402354
H   H64       1.0  0.85230  0.93920  0.39770  1.0000 0.1280125149
H   H65       1.0  0.71780  0.89110  0.39790  1.0000 0.1111182108
H   H66       1.0  0.82840  0.86440  0.60780  1.0000 0.1280125149
H   H67       1.0  0.95870  0.90630  0.60500  1.0000 0.1227855017
H   H68       1.0  0.68350  0.84690  0.56220  1.0000 0.1111182108
H   H69       1.0  0.40280  0.78630  0.49210  1.0000 0.1535984134
H   H70       1.0  0.25640  0.71520  0.38080  1.0000 0.1111182108
H   H71       1.0  0.21810  0.64720  0.23430  1.0000 0.1280125149
H   H72       1.0  0.54970  0.81900  0.52270  1.0000 0.283402354
H   H73       1.0  0.45460  0.10230  0.04150  1.0000 0.1280125149
H   H74       1.0  0.31990  0.10210  0.99320  1.0000 0.1111182108
H   H75       1.0  0.22060  0.89220  0.75660  1.0000 0.1280125149
H   H76       1.0  0.35370  0.89500  0.80130  1.0000 0.1227855017
H   H77       1.0  0.12130  0.93780  0.78470  1.0000 0.1111182108
H   H78       1.0  0.91070  0.00790  0.79420  1.0000 0.1535984134
H   H79       1.0  0.87560  0.11920  0.83440  1.0000 0.1111182108
H   H80       1.0  0.98380  0.26570  0.91290  1.0000 0.1280125149
H   H81       1.0  0.02700  0.97730  0.79630  1.0000 0.283402354
H   H82       1.0  0.04540  0.08690  0.64770  1.0000 0.1280125149
H   H83       1.0  0.18010  0.17330  0.78220  1.0000 0.1111182108
H   H84       1.0  0.27940  0.03600  0.67160  1.0000 0.1280125149
H   H85       1.0  0.14630  0.94760  0.54130  1.0000 0.1227855017
H   H86       1.0  0.37870  0.16340  0.81650  1.0000 0.1111182108
H   H87       1.0  0.58930  0.38350  0.09720  1.0000 0.1535984134
H   H88       1.0  0.62440  0.45880  0.24360  1.0000 0.1111182108
H   H89       1.0  0.51620  0.42910  0.28190  1.0000 0.1280125149
H   H90       1.0  0.47300  0.26930  0.95030  1.0000 0.283402354
H   H91       1.0  0.93920  0.39770  0.85230  1.0000 0.1280125149
H   H92       1.0  0.89110  0.39790  0.71780  1.0000 0.1111182108
H   H93       1.0  0.86440  0.60780  0.82840  1.0000 0.1280125149
H   H94       1.0  0.90630  0.60500  0.95870  1.0000 0.1227855017
H   H95       1.0  0.84690  0.56220  0.68350  1.0000 0.1111182108
H   H96       1.0  0.78630  0.49210  0.40280  1.0000 0.1535984134
H   H97       1.0  0.71520  0.38080  0.25640  1.0000 0.1111182108
H   H98       1.0  0.64720  0.23430  0.21810  1.0000 0.1280125149
H   H99       1.0  0.81900  0.52270  0.54970  1.0000 0.283402354
H   H100      1.0  0.56080  0.41310  0.45850  1.0000 0.1280125149
H   H101      1.0  0.60890  0.32670  0.50680  1.0000 0.1111182108
H   H102      1.0  0.63560  0.46400  0.74340  1.0000 0.1280125149
H   H103      1.0  0.59370  0.55240  0.69870  1.0000 0.1227855017
H   H104      1.0  0.65310  0.33660  0.71530  1.0000 0.1111182108
H   H105      1.0  0.71370  0.11650  0.70580  1.0000 0.1535984134
H   H106      1.0  0.78480  0.04120  0.66560  1.0000 0.1111182108
H   H107      1.0  0.85280  0.07090  0.58710  1.0000 0.1280125149
H   H108      1.0  0.68100  0.23070  0.70370  1.0000 0.283402354
C   C1        1.0  0.50070  0.91870  0.92680  1.0000 0.1720436369
C   C2        1.0  0.43970  0.84710  0.92300  1.0000 -0.1917405049
C   C3        1.0  0.44030  0.76690  0.89500  1.0000 -0.1385785957
C   C4        1.0  0.50390  0.76030  0.87320  1.0000 0.0600236212
C   C5        1.0  0.56440  0.83260  0.87860  1.0000 -0.1159965
C   C6        1.0  0.56340  0.91050  0.90410  1.0000 -0.1777139351
C   C7        1.0  0.50960  0.67920  0.84600  1.0000 -0.0086077934
C   C8        1.0  0.40550  0.45130  0.76460  1.0000 0.3484536414
C   C9        1.0  0.43190  0.38710  0.76060  1.0000 -0.2371193849
C   C10       1.0  0.36570  0.30070  0.71740  1.0000 -0.0086077934
C   C11       1.0  0.27950  0.27770  0.67820  1.0000 -0.2315027858
C   C12       1.0  0.26000  0.34350  0.68490  1.0000 0.2749727149
C   C13       1.0  0.49190  0.57390  0.57320  1.0000 0.1720436369
C   C14       1.0  0.42410  0.51670  0.57700  1.0000 -0.1917405049
C   C15       1.0  0.37190  0.54530  0.60500  1.0000 -0.1385785957
C   C16       1.0  0.38710  0.63070  0.62680  1.0000 0.0600236212
C   C17       1.0  0.45400  0.68580  0.62140  1.0000 -0.1159965
C   C18       1.0  0.50640  0.65930  0.59590  1.0000 -0.1777139351
C   C19       1.0  0.33320  0.66360  0.65400  1.0000 -0.0086077934
C   C20       1.0  0.18670  0.64090  0.73540  1.0000 0.3484536414
C   C21       1.0  0.12650  0.67130  0.73940  1.0000 -0.2371193849
C   C22       1.0  0.08330  0.64830  0.78260  1.0000 -0.0086077934
C   C23       1.0  0.09950  0.60130  0.82180  1.0000 -0.2315027858
C   C24       1.0  0.15860  0.57510  0.81510  1.0000 0.2749727149
C   C25       1.0  0.99930  0.92610  0.41800  1.0000 0.1720436369
C   C26       1.0  0.06030  0.98330  0.40740  1.0000 -0.1917405049
C   C27       1.0  0.05970  0.95470  0.32660  1.0000 -0.1385785957
C   C28       1.0  0.99610  0.86930  0.25640  1.0000 0.0600236212
C   C29       1.0  0.93560  0.81420  0.26820  1.0000 -0.1159965
C   C30       1.0  0.93660  0.84070  0.34710  1.0000 -0.1777139351
C   C31       1.0  0.99040  0.83640  0.16960  1.0000 -0.0086077934
C   C32       1.0  0.09450  0.85910  0.04580  1.0000 0.3484536414
C   C33       1.0  0.06810  0.82870  0.95520  1.0000 -0.2371193849
C   C34       1.0  0.13430  0.85170  0.93500  1.0000 -0.0086077934
C   C35       1.0  0.22050  0.89870  0.99820  1.0000 -0.2315027858
C   C36       1.0  0.24000  0.92490  0.08350  1.0000 0.2749727149
C   C37       1.0  0.00810  0.58130  0.08200  1.0000 0.1720436369
C   C38       1.0  0.07590  0.65290  0.09260  1.0000 -0.1917405049
C   C39       1.0  0.12810  0.73310  0.17340  1.0000 -0.1385785957
C   C40       1.0  0.11290  0.73970  0.24360  1.0000 0.0600236212
C   C41       1.0  0.04600  0.66740  0.23180  1.0000 -0.1159965
C   C42       1.0  0.99360  0.58950  0.15290  1.0000 -0.1777139351
C   C43       1.0  0.16680  0.82080  0.33040  1.0000 -0.0086077934
C   C44       1.0  0.31330  0.04870  0.45420  1.0000 0.3484536414
C   C45       1.0  0.37350  0.11290  0.54480  1.0000 -0.2371193849
C   C46       1.0  0.41670  0.19930  0.56500  1.0000 -0.0086077934
C   C47       1.0  0.40050  0.22230  0.50180  1.0000 -0.2315027858
C   C48       1.0  0.34140  0.15650  0.41650  1.0000 0.2749727149
C   C49       1.0  0.58130  0.08200  0.00810  1.0000 0.1720436369
C   C50       1.0  0.65290  0.09260  0.07590  1.0000 -0.1917405049
C   C51       1.0  0.73310  0.17340  0.12810  1.0000 -0.1385785957
C   C52       1.0  0.73970  0.24360  0.11290  1.0000 0.0600236212
C   C53       1.0  0.66740  0.23180  0.04600  1.0000 -0.1159965
C   C54       1.0  0.58950  0.15290  0.99360  1.0000 -0.1777139351
C   C55       1.0  0.82080  0.33040  0.16680  1.0000 -0.0086077934
C   C56       1.0  0.04870  0.45420  0.31330  1.0000 0.3484536414
C   C57       1.0  0.11290  0.54480  0.37350  1.0000 -0.2371193849
C   C58       1.0  0.19930  0.56500  0.41670  1.0000 -0.0086077934
C   C59       1.0  0.22230  0.50180  0.40050  1.0000 -0.2315027858
C   C60       1.0  0.15650  0.41650  0.34140  1.0000 0.2749727149
C   C61       1.0  0.92610  0.41800  0.99930  1.0000 0.1720436369
C   C62       1.0  0.98330  0.40740  0.06030  1.0000 -0.1917405049
C   C63       1.0  0.95470  0.32660  0.05970  1.0000 -0.1385785957
C   C64       1.0  0.86930  0.25640  0.99610  1.0000 0.0600236212
C   C65       1.0  0.81420  0.26820  0.93560  1.0000 -0.1159965
C   C66       1.0  0.84070  0.34710  0.93660  1.0000 -0.1777139351
C   C67       1.0  0.83640  0.16960  0.99040  1.0000 -0.0086077934
C   C68       1.0  0.85910  0.04580  0.09450  1.0000 0.3484536414
C   C69       1.0  0.82870  0.95520  0.06810  1.0000 -0.2371193849
C   C70       1.0  0.85170  0.93500  0.13430  1.0000 -0.0086077934
C   C71       1.0  0.89870  0.99820  0.22050  1.0000 -0.2315027858
C   C72       1.0  0.92490  0.08350  0.24000  1.0000 0.2749727149
C   C73       1.0  0.57390  0.57320  0.49190  1.0000 0.1720436369
C   C74       1.0  0.51670  0.57700  0.42410  1.0000 -0.1917405049
C   C75       1.0  0.54530  0.60500  0.37190  1.0000 -0.1385785957
C   C76       1.0  0.63070  0.62680  0.38710  1.0000 0.0600236212
C   C77       1.0  0.68580  0.62140  0.45400  1.0000 -0.1159965
C   C78       1.0  0.65930  0.59590  0.50640  1.0000 -0.1777139351
C   C79       1.0  0.66360  0.65400  0.33320  1.0000 -0.0086077934
C   C80       1.0  0.64090  0.73540  0.18670  1.0000 0.3484536414
C   C81       1.0  0.67130  0.73940  0.12650  1.0000 -0.2371193849
C   C82       1.0  0.64830  0.78260  0.08330  1.0000 -0.0086077934
C   C83       1.0  0.60130  0.82180  0.09950  1.0000 -0.2315027858
C   C84       1.0  0.57510  0.81510  0.15860  1.0000 0.2749727149
C   C85       1.0  0.91870  0.92680  0.50070  1.0000 0.1720436369
C   C86       1.0  0.84710  0.92300  0.43970  1.0000 -0.1917405049
C   C87       1.0  0.76690  0.89500  0.44030  1.0000 -0.1385785957
C   C88       1.0  0.76030  0.87320  0.50390  1.0000 0.0600236212
C   C89       1.0  0.83260  0.87860  0.56440  1.0000 -0.1159965
C   C90       1.0  0.91050  0.90410  0.56340  1.0000 -0.1777139351
C   C91       1.0  0.67920  0.84600  0.50960  1.0000 -0.0086077934
C   C92       1.0  0.45130  0.76460  0.40550  1.0000 0.3484536414
C   C93       1.0  0.38710  0.76060  0.43190  1.0000 -0.2371193849
C   C94       1.0  0.30070  0.71740  0.36570  1.0000 -0.0086077934
C   C95       1.0  0.27770  0.67820  0.27950  1.0000 -0.2315027858
C   C96       1.0  0.34350  0.68490  0.26000  1.0000 0.2749727149
C   C97       1.0  0.41800  0.99930  0.92610  1.0000 0.1720436369
C   C98       1.0  0.40740  0.06030  0.98330  1.0000 -0.1917405049
C   C99       1.0  0.32660  0.05970  0.95470  1.0000 -0.1385785957
C   C100      1.0  0.25640  0.99610  0.86930  1.0000 0.0600236212
C   C101      1.0  0.26820  0.93560  0.81420  1.0000 -0.1159965
C   C102      1.0  0.34710  0.93660  0.84070  1.0000 -0.1777139351
C   C103      1.0  0.16960  0.99040  0.83640  1.0000 -0.0086077934
C   C104      1.0  0.04580  0.09450  0.85910  1.0000 0.3484536414
C   C105      1.0  0.95520  0.06810  0.82870  1.0000 -0.2371193849
C   C106      1.0  0.93500  0.13430  0.85170  1.0000 -0.0086077934
C   C107      1.0  0.99820  0.22050  0.89870  1.0000 -0.2315027858
C   C108      1.0  0.08350  0.24000  0.92490  1.0000 0.2749727149
C   C109      1.0  0.08200  0.00810  0.58130  1.0000 0.1720436369
C   C110      1.0  0.09260  0.07590  0.65290  1.0000 -0.1917405049
C   C111      1.0  0.17340  0.12810  0.73310  1.0000 -0.1385785957
C   C112      1.0  0.24360  0.11290  0.73970  1.0000 0.0600236212
C   C113      1.0  0.23180  0.04600  0.66740  1.0000 -0.1159965
C   C114      1.0  0.15290  0.99360  0.58950  1.0000 -0.1777139351
C   C115      1.0  0.33040  0.16680  0.82080  1.0000 -0.0086077934
C   C116      1.0  0.45420  0.31330  0.04870  1.0000 0.3484536414
C   C117      1.0  0.54480  0.37350  0.11290  1.0000 -0.2371193849
C   C118      1.0  0.56500  0.41670  0.19930  1.0000 -0.0086077934
C   C119      1.0  0.50180  0.40050  0.22230  1.0000 -0.2315027858
C   C120      1.0  0.41650  0.34140  0.15650  1.0000 0.2749727149
C   C121      1.0  0.92680  0.50070  0.91870  1.0000 0.1720436369
C   C122      1.0  0.92300  0.43970  0.84710  1.0000 -0.1917405049
C   C123      1.0  0.89500  0.44030  0.76690  1.0000 -0.1385785957
C   C124      1.0  0.87320  0.50390  0.76030  1.0000 0.0600236212
C   C125      1.0  0.87860  0.56440  0.83260  1.0000 -0.1159965
C   C126      1.0  0.90410  0.56340  0.91050  1.0000 -0.1777139351
C   C127      1.0  0.84600  0.50960  0.67920  1.0000 -0.0086077934
C   C128      1.0  0.76460  0.40550  0.45130  1.0000 0.3484536414
C   C129      1.0  0.76060  0.43190  0.38710  1.0000 -0.2371193849
C   C130      1.0  0.71740  0.36570  0.30070  1.0000 -0.0086077934
C   C131      1.0  0.67820  0.27950  0.27770  1.0000 -0.2315027858
C   C132      1.0  0.68490  0.26000  0.34350  1.0000 0.2749727149
C   C133      1.0  0.57320  0.49190  0.57390  1.0000 0.1720436369
C   C134      1.0  0.57700  0.42410  0.51670  1.0000 -0.1917405049
C   C135      1.0  0.60500  0.37190  0.54530  1.0000 -0.1385785957
C   C136      1.0  0.62680  0.38710  0.63070  1.0000 0.0600236212
C   C137      1.0  0.62140  0.45400  0.68580  1.0000 -0.1159965
C   C138      1.0  0.59590  0.50640  0.65930  1.0000 -0.1777139351
C   C139      1.0  0.65400  0.33320  0.66360  1.0000 -0.0086077934
C   C140      1.0  0.73540  0.18670  0.64090  1.0000 0.3484536414
C   C141      1.0  0.73940  0.12650  0.67130  1.0000 -0.2371193849
C   C142      1.0  0.78260  0.08330  0.64830  1.0000 -0.0086077934
C   C143      1.0  0.82180  0.09950  0.60130  1.0000 -0.2315027858
C   C144      1.0  0.81510  0.15860  0.57510  1.0000 0.2749727149
N   N1        1.0  0.44900  0.60400  0.82140  1.0000 -0.1128585864
N   N2        1.0  0.46810  0.53670  0.80400  1.0000 -0.1917405049
N   N3        1.0  0.31960  0.42840  0.72600  1.0000 -0.3315225536
N   N4        1.0  0.28260  0.62760  0.67860  1.0000 -0.1128585864
N   N5        1.0  0.23270  0.66410  0.69600  1.0000 -0.1917405049
N   N6        1.0  0.20240  0.59360  0.77400  1.0000 -0.3315225536
N   N7        1.0  0.05100  0.87240  0.15500  1.0000 -0.1128585864
N   N8        1.0  0.03190  0.83590  0.06860  1.0000 -0.1917405049
N   N9        1.0  0.18040  0.90640  0.10880  1.0000 -0.3315225536
N   N10       1.0  0.21740  0.89600  0.34500  1.0000 -0.1128585864
N   N11       1.0  0.26730  0.96330  0.43140  1.0000 -0.1917405049
N   N12       1.0  0.29760  0.07160  0.39120  1.0000 -0.3315225536
N   N13       1.0  0.89600  0.34500  0.21740  1.0000 -0.1128585864
N   N14       1.0  0.96330  0.43140  0.26730  1.0000 -0.1917405049
N   N15       1.0  0.07160  0.39120  0.29760  1.0000 -0.3315225536
N   N16       1.0  0.87240  0.15500  0.05100  1.0000 -0.1128585864
N   N17       1.0  0.83590  0.06860  0.03190  1.0000 -0.1917405049
N   N18       1.0  0.90640  0.10880  0.18040  1.0000 -0.3315225536
N   N19       1.0  0.62760  0.67860  0.28260  1.0000 -0.1128585864
N   N20       1.0  0.66410  0.69600  0.23270  1.0000 -0.1917405049
N   N21       1.0  0.59360  0.77400  0.20240  1.0000 -0.3315225536
N   N22       1.0  0.60400  0.82140  0.44900  1.0000 -0.1128585864
N   N23       1.0  0.53670  0.80400  0.46810  1.0000 -0.1917405049
N   N24       1.0  0.42840  0.72600  0.31960  1.0000 -0.3315225536
N   N25       1.0  0.15500  0.05100  0.87240  1.0000 -0.1128585864
N   N26       1.0  0.06860  0.03190  0.83590  1.0000 -0.1917405049
N   N27       1.0  0.10880  0.18040  0.90640  1.0000 -0.3315225536
N   N28       1.0  0.34500  0.21740  0.89600  1.0000 -0.1128585864
N   N29       1.0  0.43140  0.26730  0.96330  1.0000 -0.1917405049
N   N30       1.0  0.39120  0.29760  0.07160  1.0000 -0.3315225536
N   N31       1.0  0.82140  0.44900  0.60400  1.0000 -0.1128585864
N   N32       1.0  0.80400  0.46810  0.53670  1.0000 -0.1917405049
N   N33       1.0  0.72600  0.31960  0.42840  1.0000 -0.3315225536
N   N34       1.0  0.67860  0.28260  0.62760  1.0000 -0.1128585864
N   N35       1.0  0.69600  0.23270  0.66410  1.0000 -0.1917405049
N   N36       1.0  0.77400  0.20240  0.59360  1.0000 -0.3315225536
N   N37       1.0  0.50000  1.00000  0.95680  1.0000 -0.1708668316
N   N38       1.0  0.54320  0.54320  0.54320  1.0000 -0.1708668316
N   N39       1.0  1.00000  0.95680  0.50000  1.0000 -0.1708668316
N   N40       1.0  0.95680  0.50000  0.00000  1.0000 -0.1708668316
Cl  Cl1       1.0  0.15121  0.32001  0.63978  1.0000 -0.1128585864
Cl  Cl2       1.0  0.18023  0.51143  0.86022  1.0000 -0.1128585864
Cl  Cl3       1.0  0.34879  0.98857  0.16880  1.0000 -0.1128585864
Cl  Cl4       1.0  0.31977  0.17999  0.33120  1.0000 -0.1128585864
Cl  Cl5       1.0  0.17999  0.33120  0.31977  1.0000 -0.1128585864
Cl  Cl6       1.0  0.98857  0.16880  0.34879  1.0000 -0.1128585864
Cl  Cl7       1.0  0.51143  0.86022  0.18023  1.0000 -0.1128585864
Cl  Cl8       1.0  0.32001  0.63978  0.15121  1.0000 -0.1128585864
Cl  Cl9       1.0  0.16880  0.34879  0.98857  1.0000 -0.1128585864
Cl  Cl10      1.0  0.33120  0.31977  0.17999  1.0000 -0.1128585864
Cl  Cl11      1.0  0.63978  0.15121  0.32001  1.0000 -0.1128585864
Cl  Cl12      1.0  0.86022  0.18023  0.51143  1.0000 -0.1128585864
Cl  Cl13      1.0  0.81234  0.56234  0.25000  1.0000 1.2671848739
Cl  Cl14      1.0  0.68766  0.93766  0.75000  1.0000 1.2671848739
Cl  Cl15      1.0  0.75000  0.68766  0.93766  1.0000 1.2671848739
Cl  Cl16      1.0  0.25000  0.81234  0.56234  1.0000 1.2671848739
Cl  Cl17      1.0  0.93766  0.75000  0.68766  1.0000 1.2671848739
Cl  Cl18      1.0  0.56234  0.25000  0.81234  1.0000 1.2671848739
O   O1        1.0  0.75020  0.47480  0.17660  1.0000 -0.4995712384
O   O2        1.0  0.79920  0.62340  0.22440  1.0000 -0.4995712384
O   O3        1.0  0.79820  0.57360  0.32340  1.0000 -0.4995712384
O   O4        1.0  0.89900  0.57480  0.27560  1.0000 -0.4995712384
O   O5        1.0  0.74980  0.92640  0.72460  1.0000 -0.4995712384
O   O6        1.0  0.70080  0.92520  0.82420  1.0000 -0.4995712384
O   O7        1.0  0.70180  0.02520  0.77540  1.0000 -0.4995712384
O   O8        1.0  0.60100  0.87660  0.67580  1.0000 -0.4995712384
O   O9        1.0  0.72460  0.74980  0.92640  1.0000 -0.4995712384
O   O10       1.0  0.82420  0.70080  0.92520  1.0000 -0.4995712384
O   O11       1.0  0.77540  0.70180  0.02520  1.0000 -0.4995712384
O   O12       1.0  0.67580  0.60100  0.87660  1.0000 -0.4995712384
O   O13       1.0  0.17660  0.75020  0.47480  1.0000 -0.4995712384
O   O14       1.0  0.22440  0.79920  0.62340  1.0000 -0.4995712384
O   O15       1.0  0.32340  0.79820  0.57360  1.0000 -0.4995712384
O   O16       1.0  0.27560  0.89900  0.57480  1.0000 -0.4995712384
O   O17       1.0  0.02520  0.77540  0.70180  1.0000 -0.4995712384
O   O18       1.0  0.87660  0.67580  0.60100  1.0000 -0.4995712384
O   O19       1.0  0.92640  0.72460  0.74980  1.0000 -0.4995712384
O   O20       1.0  0.92520  0.82420  0.70080  1.0000 -0.4995712384
O   O21       1.0  0.57360  0.32340  0.79820  1.0000 -0.4995712384
O   O22       1.0  0.57480  0.27560  0.89900  1.0000 -0.4995712384
O   O23       1.0  0.47480  0.17660  0.75020  1.0000 -0.4995712384
O   O24       1.0  0.62340  0.22440  0.79920  1.0000 -0.4995712384
