# DDEC6 charges by PACMAN v1.1 (https://github.com/mtap-research/PACMAN-charge/)
data_2017[CuSi][flu]3[ION]1
_chemical_formula_sum              "Cu2 Si2 H64 C56 N8 Cl9"
_cell_length_a       13.8081
_cell_length_b       13.8081
_cell_length_c       13.8081
_cell_angle_alpha    118.577
_cell_angle_beta     118.577
_cell_angle_gamma    92.4826

_symmetry_space_group_name_H-M    "P 1"
_symmetry_Int_Tables_number       1

loop_
  _symmetry_equiv_pos_as_xyz
  'x, y, z'

loop_
  _atom_site_type_symbol
  _atom_site_label
  _atom_site_symmetry_multiplicity
  _atom_site_fract_x
  _atom_site_fract_y
  _atom_site_fract_z
  _atom_site_occupancy
  _atom_site_charge
Cu  Cu1       1.0  0.85826  0.85826  0.00000  1.0000 0.6008151868
Cu  Cu2       1.0  0.14174  0.14174  0.00000  1.0000 0.6008151868
Si  Si1       1.0  0.25000  0.75000  0.50000  1.0000 0.8950435618
Si  Si2       1.0  0.75000  0.25000  0.50000  1.0000 0.8923140267
H   H1        1.0  0.28620  0.94110  0.54290  1.0000 0.1520929417
H   H2        1.0  0.20770  0.84320  0.38470  1.0000 0.142331855
H   H3        1.0  0.04220  0.81260  0.40620  1.0000 0.1159599522
H   H4        1.0  0.12350  0.93300  0.55290  1.0000 0.1159599522
H   H5        1.0  0.95850  0.81530  0.21280  1.0000 0.128448729
H   H6        1.0  0.98760  0.11140  0.23460  1.0000 0.1105108998
H   H7        1.0  0.16540  0.12310  0.57350  1.0000 0.1520929417
H   H8        1.0  0.10880  0.22060  0.46620  1.0000 0.142331855
H   H9        1.0  0.39820  0.74330  0.45710  1.0000 0.1520929417
H   H10       1.0  0.45850  0.82300  0.61530  1.0000 0.142331855
H   H11       1.0  0.40640  0.63600  0.59380  1.0000 0.1159599522
H   H12       1.0  0.38010  0.57060  0.44710  1.0000 0.1159599522
H   H13       1.0  0.60250  0.74570  0.78720  1.0000 0.128448729
H   H14       1.0  0.87680  0.75300  0.76540  1.0000 0.1105108998
H   H15       1.0  0.54960  0.59190  0.42650  1.0000 0.1520929417
H   H16       1.0  0.75440  0.64260  0.53380  1.0000 0.142331855
H   H17       1.0  0.74330  0.28620  0.34510  1.0000 0.1520929417
H   H18       1.0  0.82300  0.20770  0.36450  1.0000 0.142331855
H   H19       1.0  0.63600  0.04220  0.22960  1.0000 0.1159599522
H   H20       1.0  0.57060  0.12350  0.19050  1.0000 0.1159599522
H   H21       1.0  0.74570  0.95850  0.14320  1.0000 0.128448729
H   H22       1.0  0.75300  0.98760  0.87620  1.0000 0.1105108998
H   H23       1.0  0.59190  0.16540  0.04230  1.0000 0.1520929417
H   H24       1.0  0.64260  0.10880  0.88820  1.0000 0.142331855
H   H25       1.0  0.94110  0.39820  0.65490  1.0000 0.1520929417
H   H26       1.0  0.84320  0.45850  0.63550  1.0000 0.142331855
H   H27       1.0  0.81260  0.40640  0.77040  1.0000 0.1159599522
H   H28       1.0  0.93300  0.38010  0.80950  1.0000 0.1159599522
H   H29       1.0  0.81530  0.60250  0.85680  1.0000 0.128448729
H   H30       1.0  0.11140  0.87680  0.12380  1.0000 0.1105108998
H   H31       1.0  0.12310  0.54960  0.95770  1.0000 0.1520929417
H   H32       1.0  0.22060  0.75440  0.11180  1.0000 0.142331855
H   H33       1.0  0.71380  0.05890  0.45710  1.0000 0.1520929417
H   H34       1.0  0.79230  0.15680  0.61530  1.0000 0.142331855
H   H35       1.0  0.95780  0.18740  0.59380  1.0000 0.1159599522
H   H36       1.0  0.87650  0.06700  0.44710  1.0000 0.1159599522
H   H37       1.0  0.04150  0.18470  0.78720  1.0000 0.128448729
H   H38       1.0  0.01240  0.88860  0.76540  1.0000 0.1105108998
H   H39       1.0  0.83460  0.87690  0.42650  1.0000 0.1520929417
H   H40       1.0  0.89120  0.77940  0.53380  1.0000 0.142331855
H   H41       1.0  0.60180  0.25670  0.54290  1.0000 0.1520929417
H   H42       1.0  0.54150  0.17700  0.38470  1.0000 0.142331855
H   H43       1.0  0.59360  0.36400  0.40620  1.0000 0.1159599522
H   H44       1.0  0.61990  0.42940  0.55290  1.0000 0.1159599522
H   H45       1.0  0.39750  0.25430  0.21280  1.0000 0.128448729
H   H46       1.0  0.12320  0.24700  0.23460  1.0000 0.1105108998
H   H47       1.0  0.45040  0.40810  0.57350  1.0000 0.1520929417
H   H48       1.0  0.24560  0.35740  0.46620  1.0000 0.142331855
H   H49       1.0  0.25670  0.71380  0.65490  1.0000 0.1520929417
H   H50       1.0  0.17700  0.79230  0.63550  1.0000 0.142331855
H   H51       1.0  0.36400  0.95780  0.77040  1.0000 0.1159599522
H   H52       1.0  0.42940  0.87650  0.80950  1.0000 0.1159599522
H   H53       1.0  0.25430  0.04150  0.85680  1.0000 0.128448729
H   H54       1.0  0.24700  0.01240  0.12380  1.0000 0.1105108998
H   H55       1.0  0.40810  0.83460  0.95770  1.0000 0.1520929417
H   H56       1.0  0.35740  0.89120  0.11180  1.0000 0.142331855
H   H57       1.0  0.05890  0.60180  0.34510  1.0000 0.1520929417
H   H58       1.0  0.15680  0.54150  0.36450  1.0000 0.142331855
H   H59       1.0  0.18740  0.59360  0.22960  1.0000 0.1159599522
H   H60       1.0  0.06700  0.61990  0.19050  1.0000 0.1159599522
H   H61       1.0  0.18470  0.39750  0.14320  1.0000 0.128448729
H   H62       1.0  0.88860  0.12320  0.87620  1.0000 0.1105108998
H   H63       1.0  0.87690  0.45040  0.04230  1.0000 0.1520929417
H   H64       1.0  0.77940  0.24560  0.88820  1.0000 0.142331855
C   C1        1.0  0.21770  0.86660  0.46970  1.0000 -0.4638805439
C   C2        1.0  0.10660  0.88890  0.46190  1.0000 -0.1775932399
C   C3        1.0  0.06830  0.95770  0.40260  1.0000 0.1105108998
C   C4        1.0  0.99180  0.89880  0.26540  1.0000 0.0159352427
C   C5        1.0  0.00720  0.07170  0.27790  1.0000 0.0435700124
C   C6        1.0  0.11300  0.07930  0.47870  1.0000 -0.0584174668
C   C7        1.0  0.08060  0.13700  0.41520  1.0000 -0.1176177574
C   C8        1.0  0.39690  0.74800  0.53030  1.0000 -0.4638805439
C   C9        1.0  0.42700  0.64470  0.53810  1.0000 -0.1775932399
C   C10       1.0  0.55510  0.66570  0.59740  1.0000 0.1105108998
C   C11       1.0  0.63340  0.72640  0.73460  1.0000 0.0159352427
C   C12       1.0  0.79380  0.72930  0.72210  1.0000 0.0435700124
C   C13       1.0  0.60060  0.63430  0.52130  1.0000 -0.0584174668
C   C14       1.0  0.72180  0.66540  0.58480  1.0000 -0.1176177574
C   C15       1.0  0.74800  0.21770  0.35110  1.0000 -0.4638805439
C   C16       1.0  0.64470  0.10660  0.21770  1.0000 -0.1775932399
C   C17       1.0  0.66570  0.06830  0.11060  1.0000 0.1105108998
C   C18       1.0  0.72640  0.99180  0.09300  1.0000 0.0159352427
C   C19       1.0  0.72930  0.00720  0.93550  1.0000 0.0435700124
C   C20       1.0  0.63430  0.11300  0.03370  1.0000 -0.0584174668
C   C21       1.0  0.66540  0.08060  0.94360  1.0000 -0.1176177574
C   C22       1.0  0.86660  0.39690  0.64890  1.0000 -0.4638805439
C   C23       1.0  0.88890  0.42700  0.78230  1.0000 -0.1775932399
C   C24       1.0  0.95770  0.55510  0.88940  1.0000 0.1105108998
C   C25       1.0  0.89880  0.63340  0.90700  1.0000 0.0159352427
C   C26       1.0  0.07170  0.79380  0.06450  1.0000 0.0435700124
C   C27       1.0  0.07930  0.60060  0.96630  1.0000 -0.0584174668
C   C28       1.0  0.13700  0.72180  0.05640  1.0000 -0.1176177574
C   C29       1.0  0.78230  0.13340  0.53030  1.0000 -0.4638805439
C   C30       1.0  0.89340  0.11110  0.53810  1.0000 -0.1775932399
C   C31       1.0  0.93170  0.04230  0.59740  1.0000 0.1105108998
C   C32       1.0  0.00820  0.10120  0.73460  1.0000 0.0159352427
C   C33       1.0  0.99280  0.92830  0.72210  1.0000 0.0435700124
C   C34       1.0  0.88700  0.92070  0.52130  1.0000 -0.0584174668
C   C35       1.0  0.91940  0.86300  0.58480  1.0000 -0.1176177574
C   C36       1.0  0.60310  0.25200  0.46970  1.0000 -0.4638805439
C   C37       1.0  0.57300  0.35530  0.46190  1.0000 -0.1775932399
C   C38       1.0  0.44490  0.33430  0.40260  1.0000 0.1105108998
C   C39       1.0  0.36660  0.27360  0.26540  1.0000 0.0159352427
C   C40       1.0  0.20620  0.27070  0.27790  1.0000 0.0435700124
C   C41       1.0  0.39940  0.36570  0.47870  1.0000 -0.0584174668
C   C42       1.0  0.27820  0.33460  0.41520  1.0000 -0.1176177574
C   C43       1.0  0.25200  0.78230  0.64890  1.0000 -0.4638805439
C   C44       1.0  0.35530  0.89340  0.78230  1.0000 -0.1775932399
C   C45       1.0  0.33430  0.93170  0.88940  1.0000 0.1105108998
C   C46       1.0  0.27360  0.00820  0.90700  1.0000 0.0159352427
C   C47       1.0  0.27070  0.99280  0.06450  1.0000 0.0435700124
C   C48       1.0  0.36570  0.88700  0.96630  1.0000 -0.0584174668
C   C49       1.0  0.33460  0.91940  0.05640  1.0000 -0.1176177574
C   C50       1.0  0.13340  0.60310  0.35110  1.0000 -0.4638805439
C   C51       1.0  0.11110  0.57300  0.21770  1.0000 -0.1775932399
C   C52       1.0  0.04230  0.44490  0.11060  1.0000 0.1105108998
C   C53       1.0  0.10120  0.36660  0.09300  1.0000 0.0159352427
C   C54       1.0  0.92830  0.20620  0.93550  1.0000 0.0435700124
C   C55       1.0  0.92070  0.39940  0.03370  1.0000 -0.0584174668
C   C56       1.0  0.86300  0.27820  0.94360  1.0000 -0.1176177574
N   N1        1.0  0.96188  0.95328  0.20240  1.0000 -0.1929420022
N   N2        1.0  0.75088  0.75948  0.79760  1.0000 -0.1929420022
N   N3        1.0  0.75948  0.96188  0.00860  1.0000 -0.1929420022
N   N4        1.0  0.95328  0.75088  0.99140  1.0000 -0.1929420022
N   N5        1.0  0.03812  0.04672  0.79760  1.0000 -0.1929420022
N   N6        1.0  0.24912  0.24052  0.20240  1.0000 -0.1929420022
N   N7        1.0  0.24052  0.03812  0.99140  1.0000 -0.1929420022
N   N8        1.0  0.04672  0.24912  0.00860  1.0000 -0.1929420022
Cl  Cl1       1.0  0.00000  0.00000  0.00000  1.0000 -0.6548009416
Cl  Cl2       1.0  0.36710  0.55200  0.17630  1.0000 -0.5104260005
Cl  Cl3       1.0  0.37570  0.19080  0.82370  1.0000 -0.5104260005
Cl  Cl4       1.0  0.55200  0.37570  0.18490  1.0000 -0.5104260005
Cl  Cl5       1.0  0.19080  0.36710  0.81510  1.0000 -0.5104260005
Cl  Cl6       1.0  0.63290  0.44800  0.82370  1.0000 -0.5104260005
Cl  Cl7       1.0  0.62430  0.80920  0.17630  1.0000 -0.5155591866
Cl  Cl8       1.0  0.44800  0.62430  0.81510  1.0000 -0.5104260005
Cl  Cl9       1.0  0.80920  0.63290  0.18490  1.0000 -0.5104260005
