# DDEC6 charges by PACMAN v1.1 (https://github.com/mtap-research/PACMAN-charge/)
data_2017[Ag][hcb]2[ION]7
_chemical_formula_sum              "Ag4 H84 C112 S4 N12 O36 F12"
_cell_length_a       13.5231
_cell_length_b       17.1133
_cell_length_c       17.6824
_cell_angle_alpha    61.795
_cell_angle_beta     73.101
_cell_angle_gamma    78.683

_symmetry_space_group_name_H-M    "P 1"
_symmetry_Int_Tables_number       1

loop_
  _symmetry_equiv_pos_as_xyz
  'x, y, z'

loop_
  _atom_site_type_symbol
  _atom_site_label
  _atom_site_symmetry_multiplicity
  _atom_site_fract_x
  _atom_site_fract_y
  _atom_site_fract_z
  _atom_site_occupancy
  _atom_site_charge
Ag  Ag1       1.0  0.55191  0.21457  0.29457  1.0000 0.2913840967
Ag  Ag2       1.0  0.09165  0.17986  0.79339  1.0000 0.3026480483
Ag  Ag3       1.0  0.44809  0.78543  0.70543  1.0000 0.2913840967
Ag  Ag4       1.0  0.90835  0.82014  0.20661  1.0000 0.3026480483
H   H1        1.0  0.70290  0.34820  0.14210  1.0000 0.1096153409
H   H2        1.0  0.71220  0.49260  0.02560  1.0000 0.1388395324
H   H3        1.0  0.40510  0.53580  0.11510  1.0000 0.1302282106
H   H4        1.0  0.40660  0.39170  0.22680  1.0000 0.1096153409
H   H5        1.0  0.73940  0.73950  0.83340  1.0000 0.1197905098
H   H6        1.0  0.61880  0.74870  0.83500  1.0000 0.1096153409
H   H7        1.0  0.63850  0.06040  0.46840  1.0000 0.1020652147
H   H8        1.0  0.64740  0.03660  0.60840  1.0000 0.1302282106
H   H9        1.0  0.53870  0.29050  0.54630  1.0000 0.1388395324
H   H10       1.0  0.52110  0.30510  0.41390  1.0000 0.1096153409
H   H11       1.0  0.69630  0.07760  0.81020  1.0000 0.1096153409
H   H12       1.0  0.57250  0.08450  0.84160  1.0000 0.1020652147
H   H13       1.0  0.58530  0.16650  0.13140  1.0000 0.1020652147
H   H14       1.0  0.61130  0.04780  0.10020  1.0000 0.1302282106
H   H15       1.0  0.63670  0.89010  0.35250  1.0000 0.1302282106
H   H16       1.0  0.60090  0.01240  0.37740  1.0000 0.1020652147
H   H17       1.0  0.68720  0.76930  0.13850  1.0000 0.1096153409
H   H18       1.0  0.56290  0.77600  0.15830  1.0000 0.1197905098
H   H19       1.0  0.65090  0.90790  0.78750  1.0000 0.1302282106
H   H20       1.0  0.61470  0.97370  0.98780  1.0000 0.1197905098
H   H21       1.0  0.64770  0.71510  0.03620  1.0000 0.1197905098
H   H22       1.0  0.10980  0.12410  0.64060  1.0000 0.1020652147
H   H23       1.0  0.13440  0.00570  0.60930  1.0000 0.1302282106
H   H24       1.0  0.15530  0.84500  0.86040  1.0000 0.1388395324
H   H25       1.0  0.12940  0.96890  0.88400  1.0000 0.1096153409
H   H26       1.0  0.20610  0.73670  0.63390  1.0000 0.1096153409
H   H27       1.0  0.08200  0.73910  0.66310  1.0000 0.1197905098
H   H28       1.0  0.24000  0.25450  0.59680  1.0000 0.1096153409
H   H29       1.0  0.28250  0.38910  0.47270  1.0000 0.1388395324
H   H30       1.0  0.04160  0.51490  0.57930  1.0000 0.1302282106
H   H31       1.0  0.99790  0.37680  0.70060  1.0000 0.1096153409
H   H32       1.0  0.23980  0.70440  0.34030  1.0000 0.1096153409
H   H33       1.0  0.12310  0.72540  0.32760  1.0000 0.1096153409
H   H34       1.0  0.13200  0.03050  0.97800  1.0000 0.1096153409
H   H35       1.0  0.13190  0.00500  0.11730  1.0000 0.1388395324
H   H36       1.0  0.07440  0.26960  0.03980  1.0000 0.1388395324
H   H37       1.0  0.07530  0.28510  0.90460  1.0000 0.1096153409
H   H38       1.0  0.17170  0.05250  0.32640  1.0000 0.1096153409
H   H39       1.0  0.04790  0.05020  0.35230  1.0000 0.1020652147
H   H40       1.0  0.15660  0.68440  0.53640  1.0000 0.1197905098
H   H41       1.0  0.13290  0.88050  0.29510  1.0000 0.1302282106
H   H42       1.0  0.11460  0.94100  0.49410  1.0000 0.1197905098
H   H43       1.0  0.29710  0.65180  0.85790  1.0000 0.1096153409
H   H44       1.0  0.28780  0.50740  0.97440  1.0000 0.1388395324
H   H45       1.0  0.59490  0.46420  0.88490  1.0000 0.1302282106
H   H46       1.0  0.59340  0.60830  0.77320  1.0000 0.1096153409
H   H47       1.0  0.26060  0.26050  0.16660  1.0000 0.1197905098
H   H48       1.0  0.38120  0.25130  0.16500  1.0000 0.1096153409
H   H49       1.0  0.36150  0.93960  0.53160  1.0000 0.1020652147
H   H50       1.0  0.35260  0.96340  0.39160  1.0000 0.1302282106
H   H51       1.0  0.46130  0.70950  0.45370  1.0000 0.1388395324
H   H52       1.0  0.47890  0.69490  0.58610  1.0000 0.1096153409
H   H53       1.0  0.30370  0.92240  0.18980  1.0000 0.1096153409
H   H54       1.0  0.42750  0.91550  0.15840  1.0000 0.1020652147
H   H55       1.0  0.41470  0.83350  0.86860  1.0000 0.1020652147
H   H56       1.0  0.38870  0.95220  0.89980  1.0000 0.1302282106
H   H57       1.0  0.36330  0.10990  0.64750  1.0000 0.1302282106
H   H58       1.0  0.39910  0.98760  0.62260  1.0000 0.1020652147
H   H59       1.0  0.31280  0.23070  0.86150  1.0000 0.1096153409
H   H60       1.0  0.43710  0.22400  0.84170  1.0000 0.1197905098
H   H61       1.0  0.34910  0.09210  0.21250  1.0000 0.1302282106
H   H62       1.0  0.38530  0.02630  0.01220  1.0000 0.1197905098
H   H63       1.0  0.35230  0.28490  0.96380  1.0000 0.1197905098
H   H64       1.0  0.89020  0.87590  0.35940  1.0000 0.1020652147
H   H65       1.0  0.86560  0.99430  0.39070  1.0000 0.1302282106
H   H66       1.0  0.84470  0.15500  0.13960  1.0000 0.1388395324
H   H67       1.0  0.87060  0.03110  0.11600  1.0000 0.1096153409
H   H68       1.0  0.79390  0.26330  0.36610  1.0000 0.1096153409
H   H69       1.0  0.91800  0.26090  0.33690  1.0000 0.1197905098
H   H70       1.0  0.76000  0.74550  0.40320  1.0000 0.1096153409
H   H71       1.0  0.71750  0.61090  0.52730  1.0000 0.1388395324
H   H72       1.0  0.95840  0.48510  0.42070  1.0000 0.1302282106
H   H73       1.0  0.00210  0.62320  0.29940  1.0000 0.1096153409
H   H74       1.0  0.76020  0.29560  0.65970  1.0000 0.1096153409
H   H75       1.0  0.87690  0.27460  0.67240  1.0000 0.1096153409
H   H76       1.0  0.86800  0.96950  0.02200  1.0000 0.1096153409
H   H77       1.0  0.86810  0.99500  0.88270  1.0000 0.1388395324
H   H78       1.0  0.92560  0.73040  0.96020  1.0000 0.1388395324
H   H79       1.0  0.92470  0.71490  0.09540  1.0000 0.1096153409
H   H80       1.0  0.82830  0.94750  0.67360  1.0000 0.1096153409
H   H81       1.0  0.95210  0.94980  0.64770  1.0000 0.1020652147
H   H82       1.0  0.84340  0.31560  0.46360  1.0000 0.1197905098
H   H83       1.0  0.86710  0.11950  0.70490  1.0000 0.1302282106
H   H84       1.0  0.88540  0.05900  0.50590  1.0000 0.1197905098
C   C1        1.0  0.64190  0.38710  0.13630  1.0000 0.0868185021
C   C2        1.0  0.64810  0.47330  0.06630  1.0000 -0.1513414201
C   C3        1.0  0.56130  0.52780  0.05800  1.0000 0.0028273912
C   C4        1.0  0.46730  0.49840  0.11910  1.0000 -0.1592468135
C   C5        1.0  0.46970  0.41280  0.18540  1.0000 0.0812321508
C   C6        1.0  0.56340  0.61970  0.98270  1.0000 0.4999661403
C   C7        1.0  0.66890  0.73450  0.87180  1.0000 -0.0784559267
C   C8        1.0  0.61570  0.10740  0.48510  1.0000 0.0812321508
C   C9        1.0  0.62320  0.09310  0.56880  1.0000 -0.141236045
C   C10       1.0  0.59560  0.16080  0.59240  1.0000 -0.0027980004
C   C11       1.0  0.55810  0.24150  0.53250  1.0000 -0.1513414201
C   C12       1.0  0.54900  0.25010  0.45300  1.0000 0.0705208364
C   C13       1.0  0.60270  0.15350  0.67770  1.0000 0.4834326811
C   C14       1.0  0.63210  0.05320  0.81670  1.0000 -0.0784559267
C   C15       1.0  0.59380  0.10870  0.17740  1.0000 0.062874529
C   C16       1.0  0.61090  0.03860  0.15760  1.0000 -0.1592468135
C   C17       1.0  0.62780  0.95390  0.22210  1.0000 -0.0027980004
C   C18       1.0  0.62450  0.94660  0.30610  1.0000 -0.1592468135
C   C19       1.0  0.60410  0.01960  0.32010  1.0000 0.0705208364
C   C20       1.0  0.64260  0.87080  0.21020  1.0000 0.4834326811
C   C21       1.0  0.62550  0.80920  0.12170  1.0000 -0.0784559267
C   C22       1.0  0.65010  0.80010  0.90800  1.0000 0.1096153409
C   C23       1.0  0.64600  0.89050  0.84800  1.0000 -0.2182355595
C   C24       1.0  0.63450  0.95450  0.87850  1.0000 0.1096153409
C   C25       1.0  0.62510  0.92950  0.96770  1.0000 -0.226802249
C   C26       1.0  0.63090  0.83980  0.02710  1.0000 0.1096153409
C   C27       1.0  0.64350  0.77630  0.99600  1.0000 -0.226802249
C   C28       1.0  0.11840  0.06610  0.68630  1.0000 0.062874529
C   C29       1.0  0.13350  0.99650  0.66680  1.0000 -0.1592468135
C   C30       1.0  0.14760  0.91170  0.73220  1.0000 0.0028273912
C   C31       1.0  0.14570  0.90210  0.81390  1.0000 -0.1513414201
C   C32       1.0  0.12980  0.97640  0.82710  1.0000 0.0705208364
C   C33       1.0  0.16050  0.82980  0.71830  1.0000 0.4944745111
C   C34       1.0  0.14170  0.77500  0.62310  1.0000 -0.0720835644
C   C35       1.0  0.19920  0.30760  0.59300  1.0000 0.0812321508
C   C36       1.0  0.22510  0.38780  0.51950  1.0000 -0.141236045
C   C37       1.0  0.16900  0.46380  0.51460  1.0000 0.0066961902
C   C38       1.0  0.08210  0.46190  0.58240  1.0000 -0.1666180534
C   C39       1.0  0.05700  0.37970  0.65460  1.0000 0.0868185021
C   C40       1.0  0.20410  0.55000  0.43690  1.0000 0.4999661403
C   C41       1.0  0.16600  0.70640  0.37100  1.0000 -0.0720835644
C   C42       1.0  0.12100  0.07990  0.99090  1.0000 0.0545027623
C   C43       1.0  0.12050  0.06390  0.07410  1.0000 -0.141236045
C   C44       1.0  0.10330  0.13450  0.09450  1.0000 -0.0027980004
C   C45       1.0  0.08670  0.21890  0.02870  1.0000 -0.1592468135
C   C46       1.0  0.08840  0.22710  0.94850  1.0000 0.0705208364
C   C47       1.0  0.09940  0.12410  0.18440  1.0000 0.4834326811
C   C48       1.0  0.11360  0.02390  0.32810  1.0000 -0.0720835644
C   C49       1.0  0.13660  0.80800  0.52910  1.0000 0.1020652147
C   C50       1.0  0.14780  0.74580  0.49790  1.0000 -0.2182355595
C   C51       1.0  0.14620  0.77170  0.41060  1.0000 0.1197905098
C   C52       1.0  0.13400  0.86180  0.35470  1.0000 -0.2101565009
C   C53       1.0  0.12360  0.92490  0.38600  1.0000 0.1096153409
C   C54       1.0  0.12350  0.89800  0.47270  1.0000 -0.2182355595
C   C55       1.0  0.35810  0.61290  0.86370  1.0000 0.0812321508
C   C56       1.0  0.35190  0.52670  0.93370  1.0000 -0.1513414201
C   C57       1.0  0.43870  0.47220  0.94200  1.0000 0.0028273912
C   C58       1.0  0.53270  0.50160  0.88090  1.0000 -0.1666180534
C   C59       1.0  0.53030  0.58720  0.81460  1.0000 0.0812321508
C   C60       1.0  0.43660  0.38030  0.01730  1.0000 0.4999661403
C   C61       1.0  0.33110  0.26550  0.12820  1.0000 -0.0784559267
C   C62       1.0  0.38430  0.89260  0.51490  1.0000 0.0812321508
C   C63       1.0  0.37680  0.90690  0.43120  1.0000 -0.141236045
C   C64       1.0  0.40440  0.83920  0.40760  1.0000 -0.0027980004
C   C65       1.0  0.44190  0.75850  0.46750  1.0000 -0.1513414201
C   C66       1.0  0.45100  0.74990  0.54700  1.0000 0.0705208364
C   C67       1.0  0.39730  0.84650  0.32230  1.0000 0.4834326811
C   C68       1.0  0.36790  0.94680  0.18330  1.0000 -0.0784559267
C   C69       1.0  0.40620  0.89130  0.82260  1.0000 0.062874529
C   C70       1.0  0.38910  0.96140  0.84240  1.0000 -0.1592468135
C   C71       1.0  0.37220  0.04610  0.77790  1.0000 -0.0027980004
C   C72       1.0  0.37550  0.05340  0.69390  1.0000 -0.1592468135
C   C73       1.0  0.39590  0.98040  0.67990  1.0000 0.0705208364
C   C74       1.0  0.35740  0.12920  0.78980  1.0000 0.4834326811
C   C75       1.0  0.37450  0.19080  0.87830  1.0000 -0.0784559267
C   C76       1.0  0.34990  0.19990  0.09200  1.0000 0.1096153409
C   C77       1.0  0.35400  0.10950  0.15200  1.0000 -0.2182355595
C   C78       1.0  0.36550  0.04550  0.12150  1.0000 0.1096153409
C   C79       1.0  0.37490  0.07050  0.03230  1.0000 -0.226802249
C   C80       1.0  0.36910  0.16020  0.97290  1.0000 0.1096153409
C   C81       1.0  0.35650  0.22370  0.00400  1.0000 -0.226802249
C   C82       1.0  0.88160  0.93390  0.31370  1.0000 0.062874529
C   C83       1.0  0.86650  0.00350  0.33320  1.0000 -0.1592468135
C   C84       1.0  0.85240  0.08830  0.26780  1.0000 0.0028273912
C   C85       1.0  0.85430  0.09790  0.18610  1.0000 -0.1513414201
C   C86       1.0  0.87020  0.02360  0.17290  1.0000 0.0705208364
C   C87       1.0  0.83950  0.17020  0.28170  1.0000 0.4944745111
C   C88       1.0  0.85830  0.22500  0.37690  1.0000 -0.0720835644
C   C89       1.0  0.80080  0.69240  0.40700  1.0000 0.0812321508
C   C90       1.0  0.77490  0.61220  0.48050  1.0000 -0.141236045
C   C91       1.0  0.83100  0.53620  0.48540  1.0000 0.0066961902
C   C92       1.0  0.91790  0.53810  0.41760  1.0000 -0.1666180534
C   C93       1.0  0.94300  0.62030  0.34540  1.0000 0.0868185021
C   C94       1.0  0.79590  0.45000  0.56310  1.0000 0.4999661403
C   C95       1.0  0.83400  0.29360  0.62900  1.0000 -0.0720835644
C   C96       1.0  0.87900  0.92010  0.00910  1.0000 0.0545027623
C   C97       1.0  0.87950  0.93610  0.92590  1.0000 -0.141236045
C   C98       1.0  0.89670  0.86550  0.90550  1.0000 -0.0027980004
C   C99       1.0  0.91330  0.78110  0.97130  1.0000 -0.1592468135
C   C100      1.0  0.91160  0.77290  0.05150  1.0000 0.0705208364
C   C101      1.0  0.90060  0.87590  0.81560  1.0000 0.4834326811
C   C102      1.0  0.88640  0.97610  0.67190  1.0000 -0.0720835644
C   C103      1.0  0.86340  0.19200  0.47090  1.0000 0.1020652147
C   C104      1.0  0.85220  0.25420  0.50210  1.0000 -0.2182355595
C   C105      1.0  0.85380  0.22830  0.58940  1.0000 0.1197905098
C   C106      1.0  0.86600  0.13820  0.64530  1.0000 -0.2101565009
C   C107      1.0  0.87640  0.07510  0.61400  1.0000 0.1096153409
C   C108      1.0  0.87650  0.10200  0.52730  1.0000 -0.2182355595
C   C109      1.0  0.17150  0.20490  0.41210  1.0000 0.46741737
C   C110      1.0  0.71290  0.23920  0.89370  1.0000 0.4148831176
C   C111      1.0  0.82850  0.79510  0.58790  1.0000 0.46741737
C   C112      1.0  0.28710  0.76080  0.10630  1.0000 0.4148831176
S   S1        1.0  0.30373  0.16964  0.41157  1.0000 0.9685912537
S   S2        1.0  0.83620  0.19744  0.89147  1.0000 0.9554692018
S   S3        1.0  0.69627  0.83036  0.58843  1.0000 0.9685912537
S   S4        1.0  0.16380  0.80256  0.10853  1.0000 0.9554692018
N   N1        1.0  0.55360  0.35820  0.19500  1.0000 -0.1824505968
N   N2        1.0  0.57790  0.18400  0.42880  1.0000 -0.1917597396
N   N3        1.0  0.58810  0.10170  0.25780  1.0000 -0.1917597396
N   N4        1.0  0.11480  0.05830  0.76620  1.0000 -0.1980032218
N   N5        1.0  0.11540  0.30440  0.66000  1.0000 -0.1917597396
N   N6        1.0  0.10690  0.16130  0.92580  1.0000 -0.1824505968
N   N7        1.0  0.44640  0.64180  0.80500  1.0000 -0.1824505968
N   N8        1.0  0.42210  0.81600  0.57120  1.0000 -0.1917597396
N   N9        1.0  0.41190  0.89830  0.74220  1.0000 -0.1917597396
N   N10       1.0  0.88520  0.94170  0.23380  1.0000 -0.1980032218
N   N11       1.0  0.88460  0.69560  0.34000  1.0000 -0.1917597396
N   N12       1.0  0.89310  0.83870  0.07420  1.0000 -0.1824505968
O   O1        1.0  0.48440  0.66630  0.96440  1.0000 -0.4670656515
O   O2        1.0  0.65870  0.64440  0.94000  1.0000 -0.2182355595
O   O3        1.0  0.59440  0.21360  0.69450  1.0000 -0.4130009753
O   O4        1.0  0.62340  0.06740  0.73170  1.0000 -0.2101565009
O   O5        1.0  0.66990  0.80060  0.26340  1.0000 -0.46427979
O   O6        1.0  0.62130  0.88700  0.13550  1.0000 -0.2101565009
O   O7        1.0  0.18290  0.75710  0.76920  1.0000 -0.4670656515
O   O8        1.0  0.13970  0.85030  0.64100  1.0000 -0.2182355595
O   O9        1.0  0.27960  0.55480  0.38050  1.0000 -0.4427989316
O   O10       1.0  0.13960  0.61910  0.44210  1.0000 -0.2356287656
O   O11       1.0  0.08510  0.18450  0.20370  1.0000 -0.4427989316
O   O12       1.0  0.11540  0.03860  0.24110  1.0000 -0.2101565009
O   O13       1.0  0.51560  0.33370  0.03560  1.0000 -0.4670656515
O   O14       1.0  0.34130  0.35560  0.06000  1.0000 -0.2182355595
O   O15       1.0  0.40560  0.78640  0.30550  1.0000 -0.4130009753
O   O16       1.0  0.37660  0.93260  0.26830  1.0000 -0.2101565009
O   O17       1.0  0.33010  0.19940  0.73660  1.0000 -0.46427979
O   O18       1.0  0.37870  0.11300  0.86450  1.0000 -0.2101565009
O   O19       1.0  0.81710  0.24290  0.23080  1.0000 -0.4670656515
O   O20       1.0  0.86030  0.14970  0.35900  1.0000 -0.2182355595
O   O21       1.0  0.72040  0.44520  0.61950  1.0000 -0.4427989316
O   O22       1.0  0.86040  0.38090  0.55790  1.0000 -0.2356287656
O   O23       1.0  0.91490  0.81550  0.79630  1.0000 -0.4427989316
O   O24       1.0  0.88460  0.96140  0.75890  1.0000 -0.2101565009
O   O25       1.0  0.35020  0.25250  0.35850  1.0000 -0.5365206195
O   O26       1.0  0.33610  0.12740  0.35670  1.0000 -0.5188157154
O   O27       1.0  0.31500  0.12910  0.49830  1.0000 -0.5348496032
O   O28       1.0  0.84370  0.13650  0.97510  1.0000 -0.5188157154
O   O29       1.0  0.89870  0.26640  0.83980  1.0000 -0.5188157154
O   O30       1.0  0.84190  0.15450  0.83540  1.0000 -0.5703828526
O   O31       1.0  0.64980  0.74750  0.64150  1.0000 -0.5365206195
O   O32       1.0  0.66390  0.87260  0.64330  1.0000 -0.5188157154
O   O33       1.0  0.68500  0.87090  0.50170  1.0000 -0.5365206195
O   O34       1.0  0.15630  0.86350  0.02490  1.0000 -0.5188157154
O   O35       1.0  0.10130  0.73360  0.16020  1.0000 -0.5188157154
O   O36       1.0  0.15810  0.84550  0.16460  1.0000 -0.5703828526
F   F1        1.0  0.14920  0.24670  0.33620  1.0000 -0.1592468135
F   F2        1.0  0.12730  0.24430  0.46040  1.0000 -0.1592468135
F   F3        1.0  0.12290  0.12630  0.45320  1.0000 -0.1917597396
F   F4        1.0  0.64130  0.19020  0.94480  1.0000 -0.1323599709
F   F5        1.0  0.68890  0.30210  0.82630  1.0000 -0.141236045
F   F6        1.0  0.69540  0.28160  0.94410  1.0000 -0.1212609266
F   F7        1.0  0.85080  0.75330  0.66380  1.0000 -0.1592468135
F   F8        1.0  0.87270  0.75570  0.53960  1.0000 -0.1592468135
F   F9        1.0  0.87710  0.87370  0.54680  1.0000 -0.1917597396
F   F10       1.0  0.35870  0.80980  0.05520  1.0000 -0.1323599709
F   F11       1.0  0.31110  0.69790  0.17370  1.0000 -0.141236045
F   F12       1.0  0.30460  0.71840  0.05590  1.0000 -0.1212609266
