# DDEC6 charges by PACMAN v1.1 (https://github.com/mtap-research/PACMAN-charge/)
data_2017[Ag][srs]3[ION]12
_chemical_formula_sum              "Ag6 H108 C144 Br12 N40 Cl6 O24"
_cell_length_a       18.4584
_cell_length_b       18.4584
_cell_length_c       18.4584
_cell_angle_alpha    109.471
_cell_angle_beta     109.471
_cell_angle_gamma    109.471

_symmetry_space_group_name_H-M    "P 1"
_symmetry_Int_Tables_number       1

loop_
  _symmetry_equiv_pos_as_xyz
  'x, y, z'

loop_
  _atom_site_type_symbol
  _atom_site_label
  _atom_site_symmetry_multiplicity
  _atom_site_fract_x
  _atom_site_fract_y
  _atom_site_fract_z
  _atom_site_occupancy
  _atom_site_charge
Ag  Ag1       1.0  0.25000  0.71275  0.46275  1.0000 0.2862197343
Ag  Ag2       1.0  0.75000  0.78725  0.03725  1.0000 0.2862197343
Ag  Ag3       1.0  0.78725  0.03725  0.75000  1.0000 0.2862197343
Ag  Ag4       1.0  0.71275  0.46275  0.25000  1.0000 0.2862197343
Ag  Ag5       1.0  0.46275  0.25000  0.71275  1.0000 0.2862197343
Ag  Ag6       1.0  0.03725  0.75000  0.78725  1.0000 0.2862197343
H   H1        1.0  0.09450  0.39760  0.04230  1.0000 0.1274598336
H   H2        1.0  0.13250  0.39040  0.16970  1.0000 0.1274598336
H   H3        1.0  0.11010  0.60330  0.28260  1.0000 0.1099806288
H   H4        1.0  0.06110  0.60440  0.14970  1.0000 0.1274598336
H   H5        1.0  0.15380  0.43840  0.31720  1.0000 0.1160467648
H   H6        1.0  0.21120  0.50800  0.59600  1.0000 0.1555949831
H   H7        1.0  0.28680  0.61640  0.74340  1.0000 0.1099806288
H   H8        1.0  0.35520  0.76570  0.78410  1.0000 0.1274598336
H   H9        1.0  0.18170  0.47710  0.45080  1.0000 0.2849992001
H   H10       1.0  0.85530  0.05220  0.45770  1.0000 0.1274598336
H   H11       1.0  0.72070  0.96280  0.33030  1.0000 0.1274598336
H   H12       1.0  0.82070  0.82750  0.21740  1.0000 0.1099806288
H   H13       1.0  0.95470  0.91140  0.35030  1.0000 0.1274598336
H   H14       1.0  0.62120  0.83660  0.18280  1.0000 0.1160467648
H   H15       1.0  0.41200  0.61520  0.90400  1.0000 0.1555949831
H   H16       1.0  0.37300  0.54340  0.75660  1.0000 0.1099806288
H   H17       1.0  0.48160  0.57110  0.71590  1.0000 0.1274598336
H   H18       1.0  0.52630  0.73090  0.04920  1.0000 0.2849992001
H   H19       1.0  0.40550  0.44780  0.30310  1.0000 0.1274598336
H   H20       1.0  0.36750  0.53720  0.25790  1.0000 0.1274598336
H   H21       1.0  0.38990  0.67250  0.49320  1.0000 0.1099806288
H   H22       1.0  0.43890  0.58860  0.54330  1.0000 0.1274598336
H   H23       1.0  0.34620  0.66340  0.28460  1.0000 0.1160467648
H   H24       1.0  0.28880  0.88480  0.29680  1.0000 0.1555949831
H   H25       1.0  0.21320  0.95660  0.32960  1.0000 0.1099806288
H   H26       1.0  0.14480  0.92890  0.41050  1.0000 0.1274598336
H   H27       1.0  0.31830  0.76910  0.29540  1.0000 0.2849992001
H   H28       1.0  0.64470  0.10240  0.19690  1.0000 0.1274598336
H   H29       1.0  0.77930  0.10960  0.24210  1.0000 0.1274598336
H   H30       1.0  0.67930  0.89670  0.00680  1.0000 0.1099806288
H   H31       1.0  0.54530  0.89560  0.95670  1.0000 0.1274598336
H   H32       1.0  0.87880  0.06160  0.21540  1.0000 0.1160467648
H   H33       1.0  0.08800  0.99200  0.20320  1.0000 0.1555949831
H   H34       1.0  0.12700  0.88360  0.17040  1.0000 0.1099806288
H   H35       1.0  0.01840  0.73430  0.08950  1.0000 0.1274598336
H   H36       1.0  0.97370  0.02290  0.20460  1.0000 0.2849992001
H   H37       1.0  0.10240  0.19690  0.64470  1.0000 0.1274598336
H   H38       1.0  0.10960  0.24210  0.77930  1.0000 0.1274598336
H   H39       1.0  0.89670  0.00680  0.67930  1.0000 0.1099806288
H   H40       1.0  0.89560  0.95670  0.54530  1.0000 0.1274598336
H   H41       1.0  0.06160  0.21540  0.87880  1.0000 0.1160467648
H   H42       1.0  0.99200  0.20320  0.08800  1.0000 0.1555949831
H   H43       1.0  0.88360  0.17040  0.12700  1.0000 0.1099806288
H   H44       1.0  0.73430  0.08950  0.01840  1.0000 0.1274598336
H   H45       1.0  0.02290  0.20460  0.97370  1.0000 0.2849992001
H   H46       1.0  0.44780  0.30310  0.40550  1.0000 0.1274598336
H   H47       1.0  0.53720  0.25790  0.36750  1.0000 0.1274598336
H   H48       1.0  0.67250  0.49320  0.38990  1.0000 0.1099806288
H   H49       1.0  0.58860  0.54330  0.43890  1.0000 0.1274598336
H   H50       1.0  0.66340  0.28460  0.34620  1.0000 0.1160467648
H   H51       1.0  0.88480  0.29680  0.28880  1.0000 0.1555949831
H   H52       1.0  0.95660  0.32960  0.21320  1.0000 0.1099806288
H   H53       1.0  0.92890  0.41050  0.14480  1.0000 0.1274598336
H   H54       1.0  0.76910  0.29540  0.31830  1.0000 0.2849992001
H   H55       1.0  0.05220  0.45770  0.85530  1.0000 0.1274598336
H   H56       1.0  0.96280  0.33030  0.72070  1.0000 0.1274598336
H   H57       1.0  0.82750  0.21740  0.82070  1.0000 0.1099806288
H   H58       1.0  0.91140  0.35030  0.95470  1.0000 0.1274598336
H   H59       1.0  0.83660  0.18280  0.62120  1.0000 0.1160467648
H   H60       1.0  0.61520  0.90400  0.41200  1.0000 0.1555949831
H   H61       1.0  0.54340  0.75660  0.37300  1.0000 0.1099806288
H   H62       1.0  0.57110  0.71590  0.48160  1.0000 0.1274598336
H   H63       1.0  0.73090  0.04920  0.52630  1.0000 0.2849992001
H   H64       1.0  0.39760  0.04230  0.09450  1.0000 0.1274598336
H   H65       1.0  0.39040  0.16970  0.13250  1.0000 0.1274598336
H   H66       1.0  0.60330  0.28260  0.11010  1.0000 0.1099806288
H   H67       1.0  0.60440  0.14970  0.06110  1.0000 0.1274598336
H   H68       1.0  0.43840  0.31720  0.15380  1.0000 0.1160467648
H   H69       1.0  0.50800  0.59600  0.21120  1.0000 0.1555949831
H   H70       1.0  0.61640  0.74340  0.28680  1.0000 0.1099806288
H   H71       1.0  0.76570  0.78410  0.35520  1.0000 0.1274598336
H   H72       1.0  0.47710  0.45080  0.18170  1.0000 0.2849992001
H   H73       1.0  0.30310  0.40550  0.44780  1.0000 0.1274598336
H   H74       1.0  0.25790  0.36750  0.53720  1.0000 0.1274598336
H   H75       1.0  0.49320  0.38990  0.67250  1.0000 0.1099806288
H   H76       1.0  0.54330  0.43890  0.58860  1.0000 0.1274598336
H   H77       1.0  0.28460  0.34620  0.66340  1.0000 0.1160467648
H   H78       1.0  0.29680  0.28880  0.88480  1.0000 0.1555949831
H   H79       1.0  0.32960  0.21320  0.95660  1.0000 0.1099806288
H   H80       1.0  0.41050  0.14480  0.92890  1.0000 0.1274598336
H   H81       1.0  0.29540  0.31830  0.76910  1.0000 0.2849992001
H   H82       1.0  0.19690  0.64470  0.10240  1.0000 0.1274598336
H   H83       1.0  0.24210  0.77930  0.10960  1.0000 0.1274598336
H   H84       1.0  0.00680  0.67930  0.89670  1.0000 0.1099806288
H   H85       1.0  0.95670  0.54530  0.89560  1.0000 0.1274598336
H   H86       1.0  0.21540  0.87880  0.06160  1.0000 0.1160467648
H   H87       1.0  0.20320  0.08800  0.99200  1.0000 0.1555949831
H   H88       1.0  0.17040  0.12700  0.88360  1.0000 0.1099806288
H   H89       1.0  0.08950  0.01840  0.73430  1.0000 0.1274598336
H   H90       1.0  0.20460  0.97370  0.02290  1.0000 0.2849992001
H   H91       1.0  0.04230  0.09450  0.39760  1.0000 0.1274598336
H   H92       1.0  0.16970  0.13250  0.39040  1.0000 0.1274598336
H   H93       1.0  0.28260  0.11010  0.60330  1.0000 0.1099806288
H   H94       1.0  0.14970  0.06110  0.60440  1.0000 0.1274598336
H   H95       1.0  0.31720  0.15380  0.43840  1.0000 0.1160467648
H   H96       1.0  0.59600  0.21120  0.50800  1.0000 0.1555949831
H   H97       1.0  0.74340  0.28680  0.61640  1.0000 0.1099806288
H   H98       1.0  0.78410  0.35520  0.76570  1.0000 0.1274598336
H   H99       1.0  0.45080  0.18170  0.47710  1.0000 0.2849992001
H   H100      1.0  0.45770  0.85530  0.05220  1.0000 0.1274598336
H   H101      1.0  0.33030  0.72070  0.96280  1.0000 0.1274598336
H   H102      1.0  0.21740  0.82070  0.82750  1.0000 0.1099806288
H   H103      1.0  0.35030  0.95470  0.91140  1.0000 0.1274598336
H   H104      1.0  0.18280  0.62120  0.83660  1.0000 0.1160467648
H   H105      1.0  0.90400  0.41200  0.61520  1.0000 0.1555949831
H   H106      1.0  0.75660  0.37300  0.54340  1.0000 0.1099806288
H   H107      1.0  0.71590  0.48160  0.57110  1.0000 0.1274598336
H   H108      1.0  0.04920  0.52630  0.73090  1.0000 0.2849992001
C   C1        1.0  0.07130  0.49950  0.08160  1.0000 0.1734722414
C   C2        1.0  0.09530  0.43790  0.09020  1.0000 -0.1751204646
C   C3        1.0  0.11980  0.43490  0.16650  1.0000 -0.1124814834
C   C4        1.0  0.12620  0.49690  0.24010  1.0000 0.0616883017
C   C5        1.0  0.10510  0.56040  0.23310  1.0000 -0.1346242829
C   C6        1.0  0.07670  0.56180  0.15410  1.0000 -0.1909366316
C   C7        1.0  0.15420  0.49080  0.32140  1.0000 -0.0055423953
C   C8        1.0  0.23690  0.59560  0.54970  1.0000 0.3529893119
C   C9        1.0  0.23930  0.56840  0.61310  1.0000 -0.2316026977
C   C10       1.0  0.28350  0.63260  0.69970  1.0000 0.0010034823
C   C11       1.0  0.32360  0.72100  0.72420  1.0000 -0.2217973661
C   C12       1.0  0.31590  0.74130  0.65860  1.0000 0.2247281642
C   C13       1.0  0.91790  0.98970  0.41840  1.0000 0.1734722414
C   C14       1.0  0.84770  0.00510  0.40980  1.0000 -0.1751204646
C   C15       1.0  0.76840  0.95330  0.33350  1.0000 -0.1124814834
C   C16       1.0  0.75680  0.88610  0.25990  1.0000 0.0616883017
C   C17       1.0  0.82730  0.87200  0.26690  1.0000 -0.1346242829
C   C18       1.0  0.90770  0.92260  0.34590  1.0000 -0.1909366316
C   C19       1.0  0.66940  0.83280  0.17860  1.0000 -0.0055423953
C   C20       1.0  0.54590  0.68720  0.95030  1.0000 0.3529893119
C   C21       1.0  0.45530  0.62620  0.88690  1.0000 -0.2316026977
C   C22       1.0  0.43290  0.58380  0.80030  1.0000 0.0010034823
C   C23       1.0  0.49680  0.59940  0.77580  1.0000 -0.2217973661
C   C24       1.0  0.58270  0.65730  0.84140  1.0000 0.2247281642
C   C25       1.0  0.42870  0.51030  0.42820  1.0000 0.1734722414
C   C26       1.0  0.40470  0.49490  0.34260  1.0000 -0.1751204646
C   C27       1.0  0.38020  0.54670  0.31510  1.0000 -0.1124814834
C   C28       1.0  0.37380  0.61390  0.37070  1.0000 0.0616883017
C   C29       1.0  0.39490  0.62800  0.45530  1.0000 -0.1346242829
C   C30       1.0  0.42330  0.57740  0.48510  1.0000 -0.1909366316
C   C31       1.0  0.34580  0.66720  0.33660  1.0000 -0.0055423953
C   C32       1.0  0.26310  0.81280  0.35870  1.0000 0.3529893119
C   C33       1.0  0.26070  0.87380  0.32910  1.0000 -0.2316026977
C   C34       1.0  0.21650  0.91620  0.34910  1.0000 0.0010034823
C   C35       1.0  0.17640  0.90060  0.39740  1.0000 -0.2217973661
C   C36       1.0  0.18410  0.84270  0.42540  1.0000 0.2247281642
C   C37       1.0  0.58210  0.00050  0.07180  1.0000 0.1734722414
C   C38       1.0  0.65230  0.06210  0.15740  1.0000 -0.1751204646
C   C39       1.0  0.73160  0.06510  0.18490  1.0000 -0.1124814834
C   C40       1.0  0.74320  0.00310  0.12930  1.0000 0.0616883017
C   C41       1.0  0.67270  0.93960  0.04470  1.0000 -0.1346242829
C   C42       1.0  0.59230  0.93820  0.01490  1.0000 -0.1909366316
C   C43       1.0  0.83060  0.00920  0.16340  1.0000 -0.0055423953
C   C44       1.0  0.95410  0.90440  0.14130  1.0000 0.3529893119
C   C45       1.0  0.04470  0.93160  0.17090  1.0000 -0.2316026977
C   C46       1.0  0.06710  0.86740  0.15090  1.0000 0.0010034823
C   C47       1.0  0.00320  0.77900  0.10260  1.0000 -0.2217973661
C   C48       1.0  0.91730  0.75870  0.07460  1.0000 0.2247281642
C   C49       1.0  0.00050  0.07180  0.58210  1.0000 0.1734722414
C   C50       1.0  0.06210  0.15740  0.65230  1.0000 -0.1751204646
C   C51       1.0  0.06510  0.18490  0.73160  1.0000 -0.1124814834
C   C52       1.0  0.00310  0.12930  0.74320  1.0000 0.0616883017
C   C53       1.0  0.93960  0.04470  0.67270  1.0000 -0.1346242829
C   C54       1.0  0.93820  0.01490  0.59230  1.0000 -0.1909366316
C   C55       1.0  0.00920  0.16340  0.83060  1.0000 -0.0055423953
C   C56       1.0  0.90440  0.14130  0.95410  1.0000 0.3529893119
C   C57       1.0  0.93160  0.17090  0.04470  1.0000 -0.2316026977
C   C58       1.0  0.86740  0.15090  0.06710  1.0000 0.0010034823
C   C59       1.0  0.77900  0.10260  0.00320  1.0000 -0.2217973661
C   C60       1.0  0.75870  0.07460  0.91730  1.0000 0.2247281642
C   C61       1.0  0.51030  0.42820  0.42870  1.0000 0.1734722414
C   C62       1.0  0.49490  0.34260  0.40470  1.0000 -0.1751204646
C   C63       1.0  0.54670  0.31510  0.38020  1.0000 -0.1124814834
C   C64       1.0  0.61390  0.37070  0.37380  1.0000 0.0616883017
C   C65       1.0  0.62800  0.45530  0.39490  1.0000 -0.1346242829
C   C66       1.0  0.57740  0.48510  0.42330  1.0000 -0.1909366316
C   C67       1.0  0.66720  0.33660  0.34580  1.0000 -0.0055423953
C   C68       1.0  0.81280  0.35870  0.26310  1.0000 0.3529893119
C   C69       1.0  0.87380  0.32910  0.26070  1.0000 -0.2316026977
C   C70       1.0  0.91620  0.34910  0.21650  1.0000 0.0010034823
C   C71       1.0  0.90060  0.39740  0.17640  1.0000 -0.2217973661
C   C72       1.0  0.84270  0.42540  0.18410  1.0000 0.2247281642
C   C73       1.0  0.98970  0.41840  0.91790  1.0000 0.1734722414
C   C74       1.0  0.00510  0.40980  0.84770  1.0000 -0.1751204646
C   C75       1.0  0.95330  0.33350  0.76840  1.0000 -0.1124814834
C   C76       1.0  0.88610  0.25990  0.75680  1.0000 0.0616883017
C   C77       1.0  0.87200  0.26690  0.82730  1.0000 -0.1346242829
C   C78       1.0  0.92260  0.34590  0.90770  1.0000 -0.1909366316
C   C79       1.0  0.83280  0.17860  0.66940  1.0000 -0.0055423953
C   C80       1.0  0.68720  0.95030  0.54590  1.0000 0.3529893119
C   C81       1.0  0.62620  0.88690  0.45530  1.0000 -0.2316026977
C   C82       1.0  0.58380  0.80030  0.43290  1.0000 0.0010034823
C   C83       1.0  0.59940  0.77580  0.49680  1.0000 -0.2217973661
C   C84       1.0  0.65730  0.84140  0.58270  1.0000 0.2247281642
C   C85       1.0  0.49950  0.08160  0.07130  1.0000 0.1734722414
C   C86       1.0  0.43790  0.09020  0.09530  1.0000 -0.1751204646
C   C87       1.0  0.43490  0.16650  0.11980  1.0000 -0.1124814834
C   C88       1.0  0.49690  0.24010  0.12620  1.0000 0.0616883017
C   C89       1.0  0.56040  0.23310  0.10510  1.0000 -0.1346242829
C   C90       1.0  0.56180  0.15410  0.07670  1.0000 -0.1909366316
C   C91       1.0  0.49080  0.32140  0.15420  1.0000 -0.0055423953
C   C92       1.0  0.59560  0.54970  0.23690  1.0000 0.3529893119
C   C93       1.0  0.56840  0.61310  0.23930  1.0000 -0.2316026977
C   C94       1.0  0.63260  0.69970  0.28350  1.0000 0.0010034823
C   C95       1.0  0.72100  0.72420  0.32360  1.0000 -0.2217973661
C   C96       1.0  0.74130  0.65860  0.31590  1.0000 0.2247281642
C   C97       1.0  0.42820  0.42870  0.51030  1.0000 0.1734722414
C   C98       1.0  0.34260  0.40470  0.49490  1.0000 -0.1751204646
C   C99       1.0  0.31510  0.38020  0.54670  1.0000 -0.1124814834
C   C100      1.0  0.37070  0.37380  0.61390  1.0000 0.0616883017
C   C101      1.0  0.45530  0.39490  0.62800  1.0000 -0.1346242829
C   C102      1.0  0.48510  0.42330  0.57740  1.0000 -0.1909366316
C   C103      1.0  0.33660  0.34580  0.66720  1.0000 -0.0055423953
C   C104      1.0  0.35870  0.26310  0.81280  1.0000 0.3529893119
C   C105      1.0  0.32910  0.26070  0.87380  1.0000 -0.2316026977
C   C106      1.0  0.34910  0.21650  0.91620  1.0000 0.0010034823
C   C107      1.0  0.39740  0.17640  0.90060  1.0000 -0.2217973661
C   C108      1.0  0.42540  0.18410  0.84270  1.0000 0.2247281642
C   C109      1.0  0.07180  0.58210  0.00050  1.0000 0.1734722414
C   C110      1.0  0.15740  0.65230  0.06210  1.0000 -0.1751204646
C   C111      1.0  0.18490  0.73160  0.06510  1.0000 -0.1124814834
C   C112      1.0  0.12930  0.74320  0.00310  1.0000 0.0616883017
C   C113      1.0  0.04470  0.67270  0.93960  1.0000 -0.1346242829
C   C114      1.0  0.01490  0.59230  0.93820  1.0000 -0.1909366316
C   C115      1.0  0.16340  0.83060  0.00920  1.0000 -0.0055423953
C   C116      1.0  0.14130  0.95410  0.90440  1.0000 0.3529893119
C   C117      1.0  0.17090  0.04470  0.93160  1.0000 -0.2316026977
C   C118      1.0  0.15090  0.06710  0.86740  1.0000 0.0010034823
C   C119      1.0  0.10260  0.00320  0.77900  1.0000 -0.2217973661
C   C120      1.0  0.07460  0.91730  0.75870  1.0000 0.2247281642
C   C121      1.0  0.08160  0.07130  0.49950  1.0000 0.1734722414
C   C122      1.0  0.09020  0.09530  0.43790  1.0000 -0.1751204646
C   C123      1.0  0.16650  0.11980  0.43490  1.0000 -0.1124814834
C   C124      1.0  0.24010  0.12620  0.49690  1.0000 0.0616883017
C   C125      1.0  0.23310  0.10510  0.56040  1.0000 -0.1346242829
C   C126      1.0  0.15410  0.07670  0.56180  1.0000 -0.1909366316
C   C127      1.0  0.32140  0.15420  0.49080  1.0000 -0.0055423953
C   C128      1.0  0.54970  0.23690  0.59560  1.0000 0.3529893119
C   C129      1.0  0.61310  0.23930  0.56840  1.0000 -0.2316026977
C   C130      1.0  0.69970  0.28350  0.63260  1.0000 0.0010034823
C   C131      1.0  0.72420  0.32360  0.72100  1.0000 -0.2217973661
C   C132      1.0  0.65860  0.31590  0.74130  1.0000 0.2247281642
C   C133      1.0  0.41840  0.91790  0.98970  1.0000 0.1734722414
C   C134      1.0  0.40980  0.84770  0.00510  1.0000 -0.1751204646
C   C135      1.0  0.33350  0.76840  0.95330  1.0000 -0.1124814834
C   C136      1.0  0.25990  0.75680  0.88610  1.0000 0.0616883017
C   C137      1.0  0.26690  0.82730  0.87200  1.0000 -0.1346242829
C   C138      1.0  0.34590  0.90770  0.92260  1.0000 -0.1909366316
C   C139      1.0  0.17860  0.66940  0.83280  1.0000 -0.0055423953
C   C140      1.0  0.95030  0.54590  0.68720  1.0000 0.3529893119
C   C141      1.0  0.88690  0.45530  0.62620  1.0000 -0.2316026977
C   C142      1.0  0.80030  0.43290  0.58380  1.0000 0.0010034823
C   C143      1.0  0.77580  0.49680  0.59940  1.0000 -0.2217973661
C   C144      1.0  0.84140  0.58270  0.65730  1.0000 0.2247281642
Br  Br1       1.0  0.36571  0.86024  0.68613  1.0000 -0.0849065623
Br  Br2       1.0  0.67411  0.67958  0.81387  1.0000 -0.0849065623
Br  Br3       1.0  0.13429  0.82042  0.49453  1.0000 -0.0849065623
Br  Br4       1.0  0.82589  0.63976  0.00547  1.0000 -0.0849065623
Br  Br5       1.0  0.63976  0.00547  0.82589  1.0000 -0.0849065623
Br  Br6       1.0  0.82042  0.49453  0.13429  1.0000 -0.0859425581
Br  Br7       1.0  0.67958  0.81387  0.67411  1.0000 -0.0849065623
Br  Br8       1.0  0.86024  0.68613  0.36571  1.0000 -0.0849065623
Br  Br9       1.0  0.49453  0.13429  0.82042  1.0000 -0.0849065623
Br  Br10      1.0  0.00547  0.82589  0.63976  1.0000 -0.0849065623
Br  Br11      1.0  0.68613  0.36571  0.86024  1.0000 -0.0849065623
Br  Br12      1.0  0.81387  0.67411  0.67958  1.0000 -0.0849065623
N   N1        1.0  0.17859  0.55169  0.39640  1.0000 -0.1176605105
N   N2        1.0  0.19650  0.53160  0.46370  1.0000 -0.1987743617
N   N3        1.0  0.27400  0.68060  0.57200  1.0000 -0.3222669876
N   N4        1.0  0.65529  0.78219  0.10360  1.0000 -0.1176605105
N   N5        1.0  0.56790  0.73280  0.03630  1.0000 -0.1987743617
N   N6        1.0  0.60860  0.70200  0.92800  1.0000 -0.3222669876
N   N7        1.0  0.32141  0.71781  0.37310  1.0000 -0.1176605105
N   N8        1.0  0.30350  0.76720  0.33510  1.0000 -0.1987743617
N   N9        1.0  0.22600  0.79800  0.40660  1.0000 -0.3222669876
N   N10       1.0  0.84471  0.94831  0.12690  1.0000 -0.1176605105
N   N11       1.0  0.93210  0.96840  0.16490  1.0000 -0.1987743617
N   N12       1.0  0.89140  0.81940  0.09340  1.0000 -0.3222669876
N   N13       1.0  0.94831  0.12690  0.84471  1.0000 -0.1176605105
N   N14       1.0  0.96840  0.16490  0.93210  1.0000 -0.1987743617
N   N15       1.0  0.81940  0.09340  0.89140  1.0000 -0.3222669876
N   N16       1.0  0.71781  0.37310  0.32141  1.0000 -0.1176605105
N   N17       1.0  0.76720  0.33510  0.30350  1.0000 -0.1987743617
N   N18       1.0  0.79800  0.40660  0.22600  1.0000 -0.3222669876
N   N19       1.0  0.78219  0.10360  0.65529  1.0000 -0.1176605105
N   N20       1.0  0.73280  0.03630  0.56790  1.0000 -0.1987743617
N   N21       1.0  0.70200  0.92800  0.60860  1.0000 -0.3222669876
N   N22       1.0  0.55169  0.39640  0.17859  1.0000 -0.1176605105
N   N23       1.0  0.53160  0.46370  0.19650  1.0000 -0.1987743617
N   N24       1.0  0.68060  0.57200  0.27400  1.0000 -0.3222669876
N   N25       1.0  0.37310  0.32141  0.71781  1.0000 -0.1176605105
N   N26       1.0  0.33510  0.30350  0.76720  1.0000 -0.1987743617
N   N27       1.0  0.40660  0.22600  0.79800  1.0000 -0.3222669876
N   N28       1.0  0.12690  0.84471  0.94831  1.0000 -0.1176605105
N   N29       1.0  0.16490  0.93210  0.96840  1.0000 -0.1987743617
N   N30       1.0  0.09340  0.89140  0.81940  1.0000 -0.3222669876
N   N31       1.0  0.39640  0.17859  0.55169  1.0000 -0.1176605105
N   N32       1.0  0.46370  0.19650  0.53160  1.0000 -0.1987743617
N   N33       1.0  0.57200  0.27400  0.68060  1.0000 -0.3222669876
N   N34       1.0  0.10360  0.65529  0.78219  1.0000 -0.1176605105
N   N35       1.0  0.03630  0.56790  0.73280  1.0000 -0.1987743617
N   N36       1.0  0.92800  0.60860  0.70200  1.0000 -0.3222669876
N   N37       1.0  0.04140  0.50000  0.00000  1.0000 -0.1704504593
N   N38       1.0  0.00000  0.04140  0.50000  1.0000 -0.1704504593
N   N39       1.0  0.45860  0.45860  0.45860  1.0000 -0.1704504593
N   N40       1.0  0.50000  0.00000  0.04140  1.0000 -0.1704504593
Cl  Cl1       1.0  0.75000  0.18684  0.43684  1.0000 1.2731943412
Cl  Cl2       1.0  0.25000  0.31316  0.06316  1.0000 1.2731943412
Cl  Cl3       1.0  0.43684  0.75000  0.18684  1.0000 1.2731943412
Cl  Cl4       1.0  0.06316  0.25000  0.31316  1.0000 1.2731943412
Cl  Cl5       1.0  0.31316  0.06316  0.25000  1.0000 1.2731943412
Cl  Cl6       1.0  0.18684  0.43684  0.75000  1.0000 1.2731943412
O   O1        1.0  0.67680  0.20120  0.42580  1.0000 -0.5109857238
O   O2        1.0  0.72390  0.09940  0.42490  1.0000 -0.516427459
O   O3        1.0  0.82320  0.24900  0.52440  1.0000 -0.5109857238
O   O4        1.0  0.77610  0.20100  0.37550  1.0000 -0.516427459
O   O5        1.0  0.22460  0.29880  0.97560  1.0000 -0.5109857238
O   O6        1.0  0.32550  0.40060  0.12450  1.0000 -0.516427459
O   O7        1.0  0.27540  0.25100  0.07420  1.0000 -0.5109857238
O   O8        1.0  0.17450  0.29900  0.07510  1.0000 -0.516427459
O   O9        1.0  0.52440  0.82320  0.24900  1.0000 -0.5109857238
O   O10       1.0  0.37550  0.77610  0.20100  1.0000 -0.516427459
O   O11       1.0  0.42580  0.67680  0.20120  1.0000 -0.5109857238
O   O12       1.0  0.42490  0.72390  0.09940  1.0000 -0.516427459
O   O13       1.0  0.07420  0.27540  0.25100  1.0000 -0.5109857238
O   O14       1.0  0.07510  0.17450  0.29900  1.0000 -0.516427459
O   O15       1.0  0.97560  0.22460  0.29880  1.0000 -0.5109857238
O   O16       1.0  0.12450  0.32550  0.40060  1.0000 -0.516427459
O   O17       1.0  0.29880  0.97560  0.22460  1.0000 -0.5109857238
O   O18       1.0  0.40060  0.12450  0.32550  1.0000 -0.516427459
O   O19       1.0  0.25100  0.07420  0.27540  1.0000 -0.5109857238
O   O20       1.0  0.29900  0.07510  0.17450  1.0000 -0.516427459
O   O21       1.0  0.20120  0.42580  0.67680  1.0000 -0.5109857238
O   O22       1.0  0.09940  0.42490  0.72390  1.0000 -0.516427459
O   O23       1.0  0.24900  0.52440  0.82320  1.0000 -0.5109857238
O   O24       1.0  0.20100  0.37550  0.77610  1.0000 -0.516427459
