# DDEC6 charges by PACMAN v1.1 (https://github.com/mtap-research/PACMAN-charge/)
data_2017[Zn][dia]3[ION]1
_chemical_formula_sum              "Zn2 H48 C56 I8 N8 O16"
_cell_length_a       18.7223
_cell_length_b       5.7758
_cell_length_c       27.7216
_cell_angle_alpha    90
_cell_angle_beta     131.307
_cell_angle_gamma    90

_symmetry_space_group_name_H-M    "P 1"
_symmetry_Int_Tables_number       1

loop_
  _symmetry_equiv_pos_as_xyz
  'x, y, z'

loop_
  _atom_site_type_symbol
  _atom_site_label
  _atom_site_symmetry_multiplicity
  _atom_site_fract_x
  _atom_site_fract_y
  _atom_site_fract_z
  _atom_site_occupancy
  _atom_site_charge
Zn  Zn1       1.0  0.50000  0.73260  0.75000  1.0000 0.9184025401
Zn  Zn2       1.0  0.50000  0.26740  0.25000  1.0000 0.9184025401
H   H1        1.0  0.31140  0.10520  0.56150  1.0000 0.1493319744
H   H2        1.0  0.68860  0.10520  0.93850  1.0000 0.1493319744
H   H3        1.0  0.68860  0.89480  0.43850  1.0000 0.1493319744
H   H4        1.0  0.31140  0.89480  0.06150  1.0000 0.1493319744
H   H5        1.0  0.36160  0.31930  0.61040  1.0000 0.1680489207
H   H6        1.0  0.63840  0.31930  0.88960  1.0000 0.1680489207
H   H7        1.0  0.63840  0.68070  0.38960  1.0000 0.1680489207
H   H8        1.0  0.36160  0.68070  0.11040  1.0000 0.1680489207
H   H9        1.0  0.27380  0.53160  0.62970  1.0000 0.1393102082
H   H10       1.0  0.72620  0.53160  0.87030  1.0000 0.1393102082
H   H11       1.0  0.72620  0.46840  0.37030  1.0000 0.1393102082
H   H12       1.0  0.27380  0.46840  0.12970  1.0000 0.1393102082
H   H13       1.0  0.12610  0.68640  0.58580  1.0000 0.1393102082
H   H14       1.0  0.87390  0.68640  0.91420  1.0000 0.1393102082
H   H15       1.0  0.87390  0.31360  0.41420  1.0000 0.1393102082
H   H16       1.0  0.12610  0.31360  0.08580  1.0000 0.1393102082
H   H17       1.0  0.00120  0.18820  0.45060  1.0000 0.1393102082
H   H18       1.0  0.99880  0.18820  0.04940  1.0000 0.1393102082
H   H19       1.0  0.99880  0.81180  0.54940  1.0000 0.1393102082
H   H20       1.0  0.00120  0.81180  0.95060  1.0000 0.1393102082
H   H21       1.0  0.14740  0.05670  0.49330  1.0000 0.1393102082
H   H22       1.0  0.85260  0.05670  0.00670  1.0000 0.1393102082
H   H23       1.0  0.85260  0.94330  0.50670  1.0000 0.1393102082
H   H24       1.0  0.14740  0.94330  0.99330  1.0000 0.1393102082
H   H25       1.0  0.35560  0.13990  0.75800  1.0000 0.1582872743
H   H26       1.0  0.64440  0.13990  0.74200  1.0000 0.1582872743
H   H27       1.0  0.64440  0.86010  0.24200  1.0000 0.1582872743
H   H28       1.0  0.35560  0.86010  0.25800  1.0000 0.1582872743
H   H29       1.0  0.30090  0.34610  0.76070  1.0000 0.1582872743
H   H30       1.0  0.69910  0.34610  0.73930  1.0000 0.1582872743
H   H31       1.0  0.69910  0.65390  0.23930  1.0000 0.1582872743
H   H32       1.0  0.30090  0.65390  0.26070  1.0000 0.1582872743
H   H33       1.0  0.33830  0.43220  0.85850  1.0000 0.1243711362
H   H34       1.0  0.66170  0.43220  0.64150  1.0000 0.1243711362
H   H35       1.0  0.66170  0.56780  0.14150  1.0000 0.1243711362
H   H36       1.0  0.33830  0.56780  0.35850  1.0000 0.1243711362
H   H37       1.0  0.39860  0.31150  0.95830  1.0000 0.1493319744
H   H38       1.0  0.60140  0.31150  0.54170  1.0000 0.1493319744
H   H39       1.0  0.60140  0.68850  0.04170  1.0000 0.1493319744
H   H40       1.0  0.39860  0.68850  0.45830  1.0000 0.1493319744
H   H41       1.0  0.54310  0.80690  0.95240  1.0000 0.1493319744
H   H42       1.0  0.45690  0.80690  0.54760  1.0000 0.1493319744
H   H43       1.0  0.45690  0.19310  0.04760  1.0000 0.1493319744
H   H44       1.0  0.54310  0.19310  0.45240  1.0000 0.1493319744
H   H45       1.0  0.46600  0.92090  0.84730  1.0000 0.1300362131
H   H46       1.0  0.53400  0.92090  0.65270  1.0000 0.1300362131
H   H47       1.0  0.53400  0.07910  0.15270  1.0000 0.1300362131
H   H48       1.0  0.46600  0.07910  0.34730  1.0000 0.1300362131
C   C1        1.0  0.35340  0.02770  0.64990  1.0000 0.6281863922
C   C2        1.0  0.64660  0.02770  0.85010  1.0000 0.6281863922
C   C3        1.0  0.64660  0.97230  0.35010  1.0000 0.6281863922
C   C4        1.0  0.35340  0.97230  0.14990  1.0000 0.6281863922
C   C5        1.0  0.31640  0.18970  0.59470  1.0000 -0.2833148589
C   C6        1.0  0.68360  0.18970  0.90530  1.0000 -0.2833148589
C   C7        1.0  0.68360  0.81030  0.40530  1.0000 -0.2833148589
C   C8        1.0  0.31640  0.81030  0.09470  1.0000 -0.2833148589
C   C9        1.0  0.21710  0.46310  0.59250  1.0000 0.0815902172
C   C10       1.0  0.78290  0.46310  0.90750  1.0000 0.0815902172
C   C11       1.0  0.78290  0.53690  0.40750  1.0000 0.0815902172
C   C12       1.0  0.21710  0.53690  0.09250  1.0000 0.0815902172
C   C13       1.0  0.12950  0.55520  0.56670  1.0000 -0.1706826737
C   C14       1.0  0.87050  0.55520  0.93330  1.0000 -0.1706826737
C   C15       1.0  0.87050  0.44480  0.43330  1.0000 -0.1706826737
C   C16       1.0  0.12950  0.44480  0.06670  1.0000 -0.1706826737
C   C17       1.0  0.04740  0.45310  0.51290  1.0000 0.1300362131
C   C18       1.0  0.95260  0.45310  0.98710  1.0000 0.1300362131
C   C19       1.0  0.95260  0.54690  0.48710  1.0000 0.1300362131
C   C20       1.0  0.04740  0.54690  0.01290  1.0000 0.1300362131
C   C21       1.0  0.05660  0.26300  0.48710  1.0000 -0.1598338758
C   C22       1.0  0.94340  0.26300  0.01290  1.0000 -0.1598338758
C   C23       1.0  0.94340  0.73700  0.51290  1.0000 -0.1598338758
C   C24       1.0  0.05660  0.73700  0.98710  1.0000 -0.1598338758
C   C25       1.0  0.14270  0.18380  0.51280  1.0000 0.0126465788
C   C26       1.0  0.85730  0.18380  0.98720  1.0000 0.0126465788
C   C27       1.0  0.85730  0.81620  0.48720  1.0000 0.0126465788
C   C28       1.0  0.14270  0.81620  0.01280  1.0000 0.0126465788
C   C29       1.0  0.43320  0.44780  0.79300  1.0000 0.6281863922
C   C30       1.0  0.56680  0.44780  0.70700  1.0000 0.6281863922
C   C31       1.0  0.56680  0.55220  0.20700  1.0000 0.6281863922
C   C32       1.0  0.43320  0.55220  0.29300  1.0000 0.6281863922
C   C33       1.0  0.36380  0.27200  0.78390  1.0000 -0.2833148589
C   C34       1.0  0.63620  0.27200  0.71610  1.0000 -0.2833148589
C   C35       1.0  0.63620  0.72800  0.21610  1.0000 -0.2833148589
C   C36       1.0  0.36380  0.72800  0.28390  1.0000 -0.2833148589
C   C37       1.0  0.37940  0.30200  0.87810  1.0000 0.0613815362
C   C38       1.0  0.62060  0.30200  0.62190  1.0000 0.0613815362
C   C39       1.0  0.62060  0.69800  0.12190  1.0000 0.0613815362
C   C40       1.0  0.37940  0.69800  0.37810  1.0000 0.0613815362
C   C41       1.0  0.41510  0.23100  0.93690  1.0000 -0.1898718563
C   C42       1.0  0.58490  0.23100  0.56310  1.0000 -0.1898718563
C   C43       1.0  0.58490  0.76900  0.06310  1.0000 -0.1898718563
C   C44       1.0  0.41510  0.76900  0.43690  1.0000 -0.1898718563
C   C45       1.0  0.47620  0.04150  0.96620  1.0000 0.1300362131
C   C46       1.0  0.52380  0.04150  0.53380  1.0000 0.1300362131
C   C47       1.0  0.52380  0.95850  0.03380  1.0000 0.1300362131
C   C48       1.0  0.47620  0.95850  0.46620  1.0000 0.1300362131
C   C49       1.0  0.49880  0.93100  0.93310  1.0000 -0.1898718563
C   C50       1.0  0.50120  0.93100  0.56690  1.0000 -0.1898718563
C   C51       1.0  0.50120  0.06900  0.06690  1.0000 -0.1898718563
C   C52       1.0  0.49880  0.06900  0.43310  1.0000 -0.1898718563
C   C53       1.0  0.45610  0.00440  0.87200  1.0000 0.0815902172
C   C54       1.0  0.54390  0.00440  0.62800  1.0000 0.0815902172
C   C55       1.0  0.54390  0.99560  0.12800  1.0000 0.0815902172
C   C56       1.0  0.45610  0.99560  0.37200  1.0000 0.0815902172
I   I1        1.0  0.13430  0.97500  0.13880  1.0000 -0.3301814174
I   I2        1.0  0.86570  0.97500  0.36120  1.0000 -0.3301814174
I   I3        1.0  0.86570  0.02500  0.86120  1.0000 -0.3301814174
I   I4        1.0  0.13430  0.02500  0.63880  1.0000 -0.3301814174
I   I5        1.0  0.20230  0.23650  0.27300  1.0000 -0.4830874478
I   I6        1.0  0.79770  0.23650  0.22700  1.0000 -0.4830874478
I   I7        1.0  0.79770  0.76350  0.72700  1.0000 -0.4830874478
I   I8        1.0  0.20230  0.76350  0.77300  1.0000 -0.4830874478
N   N1        1.0  0.22260  0.28230  0.56600  1.0000 0.1300362131
N   N2        1.0  0.77740  0.28230  0.93400  1.0000 0.1300362131
N   N3        1.0  0.77740  0.71770  0.43400  1.0000 0.1300362131
N   N4        1.0  0.22260  0.71770  0.06600  1.0000 0.1300362131
N   N5        1.0  0.40160  0.18960  0.84770  1.0000 0.1393102082
N   N6        1.0  0.59840  0.18960  0.65230  1.0000 0.1393102082
N   N7        1.0  0.59840  0.81040  0.15230  1.0000 0.1393102082
N   N8        1.0  0.40160  0.81040  0.34770  1.0000 0.1393102082
O   O1        1.0  0.43680  0.95230  0.67870  1.0000 -0.5516140586
O   O2        1.0  0.56320  0.95230  0.82130  1.0000 -0.5516140586
O   O3        1.0  0.56320  0.04770  0.32130  1.0000 -0.5516140586
O   O4        1.0  0.43680  0.04770  0.17870  1.0000 -0.5516140586
O   O5        1.0  0.30370  0.97800  0.66240  1.0000 -0.4892247146
O   O6        1.0  0.69630  0.97800  0.83760  1.0000 -0.4892247146
O   O7        1.0  0.69630  0.02200  0.33760  1.0000 -0.4892247146
O   O8        1.0  0.30370  0.02200  0.16240  1.0000 -0.4892247146
O   O9        1.0  0.40980  0.51970  0.74110  1.0000 -0.5380197292
O   O10       1.0  0.59020  0.51970  0.75890  1.0000 -0.5380197292
O   O11       1.0  0.59020  0.48030  0.25890  1.0000 -0.5380197292
O   O12       1.0  0.40980  0.48030  0.24110  1.0000 -0.5380197292
O   O13       1.0  0.50480  0.51170  0.84730  1.0000 -0.5574516779
O   O14       1.0  0.49520  0.51170  0.65270  1.0000 -0.5574516779
O   O15       1.0  0.49520  0.48830  0.15270  1.0000 -0.5574516779
O   O16       1.0  0.50480  0.48830  0.34730  1.0000 -0.5574516779
