# DDEC6 charges by PACMAN v1.1 (https://github.com/mtap-research/PACMAN-charge/)
data_2017[Ag][srs]3[ION]7
_chemical_formula_sum              "Ag6 H108 C144 Br12 N40 Cl6 O24"
_cell_length_a       18.4655
_cell_length_b       18.4655
_cell_length_c       18.4655
_cell_angle_alpha    109.471
_cell_angle_beta     109.471
_cell_angle_gamma    109.471

_symmetry_space_group_name_H-M    "P 1"
_symmetry_Int_Tables_number       1

loop_
  _symmetry_equiv_pos_as_xyz
  'x, y, z'

loop_
  _atom_site_type_symbol
  _atom_site_label
  _atom_site_symmetry_multiplicity
  _atom_site_fract_x
  _atom_site_fract_y
  _atom_site_fract_z
  _atom_site_occupancy
  _atom_site_charge
Ag  Ag1       1.0  0.25000  0.71270  0.46270  1.0000 0.288725481
Ag  Ag2       1.0  0.75000  0.78730  0.03730  1.0000 0.2965636776
Ag  Ag3       1.0  0.78730  0.03730  0.75000  1.0000 0.288725481
Ag  Ag4       1.0  0.71270  0.46270  0.25000  1.0000 0.288725481
Ag  Ag5       1.0  0.46270  0.25000  0.71270  1.0000 0.288725481
Ag  Ag6       1.0  0.03730  0.75000  0.78730  1.0000 0.288725481
H   H1        1.0  0.34630  0.66350  0.28460  1.0000 0.1170385034
H   H2        1.0  0.31790  0.76800  0.29450  1.0000 0.288725481
H   H3        1.0  0.28780  0.88400  0.29560  1.0000 0.1562580244
H   H4        1.0  0.14550  0.92960  0.41090  1.0000 0.1282239893
H   H5        1.0  0.36640  0.53660  0.25740  1.0000 0.1282239893
H   H6        1.0  0.39060  0.67310  0.49310  1.0000 0.1106702165
H   H7        1.0  0.21390  0.95650  0.32900  1.0000 0.1106702165
H   H8        1.0  0.40490  0.44700  0.30250  1.0000 0.1282239893
H   H9        1.0  0.43840  0.58770  0.54270  1.0000 0.1282239893
H   H10       1.0  0.87890  0.06170  0.21540  1.0000 0.1170385034
H   H11       1.0  0.97350  0.02340  0.20550  1.0000 0.288725481
H   H12       1.0  0.08840  0.99220  0.20440  1.0000 0.1562580244
H   H13       1.0  0.01870  0.73460  0.08910  1.0000 0.1282239893
H   H14       1.0  0.77920  0.10900  0.24260  1.0000 0.1282239893
H   H15       1.0  0.68000  0.89750  0.00690  1.0000 0.1106702165
H   H16       1.0  0.12750  0.88490  0.17100  1.0000 0.1106702165
H   H17       1.0  0.64450  0.10240  0.19750  1.0000 0.1282239893
H   H18       1.0  0.54500  0.89570  0.95730  1.0000 0.1282239893
H   H19       1.0  0.15370  0.43830  0.31720  1.0000 0.1170385034
H   H20       1.0  0.18210  0.47660  0.45010  1.0000 0.288725481
H   H21       1.0  0.21220  0.50780  0.59620  1.0000 0.1562580244
H   H22       1.0  0.35450  0.76540  0.78410  1.0000 0.1282239893
H   H23       1.0  0.13360  0.39100  0.17020  1.0000 0.1282239893
H   H24       1.0  0.10940  0.60250  0.28250  1.0000 0.1106702165
H   H25       1.0  0.28610  0.61510  0.74260  1.0000 0.1106702165
H   H26       1.0  0.09510  0.39760  0.04210  1.0000 0.1282239893
H   H27       1.0  0.06160  0.60430  0.14930  1.0000 0.1282239893
H   H28       1.0  0.62110  0.83650  0.18280  1.0000 0.1170385034
H   H29       1.0  0.52650  0.73200  0.04990  1.0000 0.288725481
H   H30       1.0  0.41160  0.61600  0.90380  1.0000 0.1562580244
H   H31       1.0  0.48130  0.57040  0.71590  1.0000 0.1282239893
H   H32       1.0  0.72080  0.96340  0.32980  1.0000 0.1282239893
H   H33       1.0  0.82000  0.82690  0.21750  1.0000 0.1106702165
H   H34       1.0  0.37250  0.54350  0.75740  1.0000 0.1106702165
H   H35       1.0  0.85550  0.05300  0.45790  1.0000 0.1282239893
H   H36       1.0  0.95500  0.91230  0.35070  1.0000 0.1282239893
H   H37       1.0  0.83650  0.18280  0.62110  1.0000 0.1170385034
H   H38       1.0  0.73200  0.04990  0.52650  1.0000 0.288725481
H   H39       1.0  0.61600  0.90380  0.41160  1.0000 0.1562580244
H   H40       1.0  0.57040  0.71590  0.48130  1.0000 0.1282239893
H   H41       1.0  0.96340  0.32980  0.72080  1.0000 0.1282239893
H   H42       1.0  0.82690  0.21750  0.82000  1.0000 0.1106702165
H   H43       1.0  0.54350  0.75740  0.37250  1.0000 0.1106702165
H   H44       1.0  0.05300  0.45790  0.85550  1.0000 0.1282239893
H   H45       1.0  0.91230  0.35070  0.95500  1.0000 0.1282239893
H   H46       1.0  0.43830  0.31720  0.15370  1.0000 0.1170385034
H   H47       1.0  0.47660  0.45010  0.18210  1.0000 0.288725481
H   H48       1.0  0.50780  0.59620  0.21220  1.0000 0.1562580244
H   H49       1.0  0.76540  0.78410  0.35450  1.0000 0.1282239893
H   H50       1.0  0.39100  0.17020  0.13360  1.0000 0.1282239893
H   H51       1.0  0.60250  0.28250  0.10940  1.0000 0.1106702165
H   H52       1.0  0.61510  0.74260  0.28610  1.0000 0.1106702165
H   H53       1.0  0.39760  0.04210  0.09510  1.0000 0.1282239893
H   H54       1.0  0.60430  0.14930  0.06160  1.0000 0.1282239893
H   H55       1.0  0.06170  0.21540  0.87890  1.0000 0.1170385034
H   H56       1.0  0.02340  0.20550  0.97350  1.0000 0.288725481
H   H57       1.0  0.99220  0.20440  0.08840  1.0000 0.1562580244
H   H58       1.0  0.73460  0.08910  0.01870  1.0000 0.1282239893
H   H59       1.0  0.10900  0.24260  0.77920  1.0000 0.1282239893
H   H60       1.0  0.89750  0.00690  0.68000  1.0000 0.1106702165
H   H61       1.0  0.88490  0.17100  0.12750  1.0000 0.1106702165
H   H62       1.0  0.10240  0.19750  0.64450  1.0000 0.1282239893
H   H63       1.0  0.89570  0.95730  0.54500  1.0000 0.1282239893
H   H64       1.0  0.66350  0.28460  0.34630  1.0000 0.1170385034
H   H65       1.0  0.76800  0.29450  0.31790  1.0000 0.288725481
H   H66       1.0  0.88400  0.29560  0.28780  1.0000 0.1562580244
H   H67       1.0  0.92960  0.41090  0.14550  1.0000 0.1282239893
H   H68       1.0  0.53660  0.25740  0.36640  1.0000 0.1282239893
H   H69       1.0  0.67310  0.49310  0.39060  1.0000 0.1106702165
H   H70       1.0  0.95650  0.32900  0.21390  1.0000 0.1106702165
H   H71       1.0  0.44700  0.30250  0.40490  1.0000 0.1282239893
H   H72       1.0  0.58770  0.54270  0.43840  1.0000 0.1282239893
H   H73       1.0  0.31720  0.15370  0.43830  1.0000 0.1170385034
H   H74       1.0  0.45010  0.18210  0.47660  1.0000 0.288725481
H   H75       1.0  0.59620  0.21220  0.50780  1.0000 0.1562580244
H   H76       1.0  0.78410  0.35450  0.76540  1.0000 0.1282239893
H   H77       1.0  0.17020  0.13360  0.39100  1.0000 0.1282239893
H   H78       1.0  0.28250  0.10940  0.60250  1.0000 0.1106702165
H   H79       1.0  0.74260  0.28610  0.61510  1.0000 0.1106702165
H   H80       1.0  0.04210  0.09510  0.39760  1.0000 0.1282239893
H   H81       1.0  0.14930  0.06160  0.60430  1.0000 0.1282239893
H   H82       1.0  0.18280  0.62110  0.83650  1.0000 0.1170385034
H   H83       1.0  0.04990  0.52650  0.73200  1.0000 0.288725481
H   H84       1.0  0.90380  0.41160  0.61600  1.0000 0.1562580244
H   H85       1.0  0.71590  0.48130  0.57040  1.0000 0.1282239893
H   H86       1.0  0.32980  0.72080  0.96340  1.0000 0.1282239893
H   H87       1.0  0.21750  0.82000  0.82690  1.0000 0.1106702165
H   H88       1.0  0.75740  0.37250  0.54350  1.0000 0.1106702165
H   H89       1.0  0.45790  0.85550  0.05300  1.0000 0.1282239893
H   H90       1.0  0.35070  0.95500  0.91230  1.0000 0.1282239893
H   H91       1.0  0.28460  0.34630  0.66350  1.0000 0.1170385034
H   H92       1.0  0.29450  0.31790  0.76800  1.0000 0.288725481
H   H93       1.0  0.29560  0.28780  0.88400  1.0000 0.1562580244
H   H94       1.0  0.41090  0.14550  0.92960  1.0000 0.1282239893
H   H95       1.0  0.25740  0.36640  0.53660  1.0000 0.1282239893
H   H96       1.0  0.49310  0.39060  0.67310  1.0000 0.1106702165
H   H97       1.0  0.32900  0.21390  0.95650  1.0000 0.1106702165
H   H98       1.0  0.30250  0.40490  0.44700  1.0000 0.1282239893
H   H99       1.0  0.54270  0.43840  0.58770  1.0000 0.1282239893
H   H100      1.0  0.21540  0.87890  0.06170  1.0000 0.1170385034
H   H101      1.0  0.20550  0.97350  0.02340  1.0000 0.288725481
H   H102      1.0  0.20440  0.08840  0.99220  1.0000 0.1562580244
H   H103      1.0  0.08910  0.01870  0.73460  1.0000 0.1282239893
H   H104      1.0  0.24260  0.77920  0.10900  1.0000 0.1282239893
H   H105      1.0  0.00690  0.68000  0.89750  1.0000 0.1106702165
H   H106      1.0  0.17100  0.12750  0.88490  1.0000 0.1106702165
H   H107      1.0  0.19750  0.64450  0.10240  1.0000 0.1282239893
H   H108      1.0  0.95730  0.54500  0.89570  1.0000 0.1282239893
C   C1        1.0  0.34570  0.66710  0.33640  1.0000 -0.0045678826
C   C2        1.0  0.26350  0.81240  0.35790  1.0000 0.3507574127
C   C3        1.0  0.18380  0.84180  0.42400  1.0000 0.2351877616
C   C4        1.0  0.37360  0.61362  0.37066  1.0000 0.0610398353
C   C5        1.0  0.26030  0.87340  0.32850  1.0000 -0.2295507279
C   C6        1.0  0.17650  0.90080  0.39710  1.0000 -0.223745331
C   C7        1.0  0.37959  0.54626  0.31469  1.0000 -0.1142373233
C   C8        1.0  0.39500  0.62812  0.45500  1.0000 -0.1359745225
C   C9        1.0  0.21680  0.91600  0.34840  1.0000 0.0029357823
C   C10       1.0  0.40430  0.49413  0.34223  1.0000 -0.1790469039
C   C11       1.0  0.42323  0.57687  0.48470  1.0000 -0.1960651196
C   C12       1.0  0.42871  0.50965  0.42810  1.0000 0.1738013701
C   C13       1.0  0.83070  0.00930  0.16360  1.0000 -0.0045678826
C   C14       1.0  0.95450  0.90560  0.14210  1.0000 0.3507574127
C   C15       1.0  0.91780  0.75980  0.07600  1.0000 0.2348321752
C   C16       1.0  0.74296  0.00294  0.12934  1.0000 0.0610398353
C   C17       1.0  0.04490  0.93180  0.17150  1.0000 -0.2295507279
C   C18       1.0  0.00370  0.77940  0.10290  1.0000 -0.223745331
C   C19       1.0  0.73157  0.06490  0.18531  1.0000 -0.1142373233
C   C20       1.0  0.67312  0.94000  0.04500  1.0000 -0.1359745225
C   C21       1.0  0.06760  0.86840  0.15160  1.0000 0.0029357823
C   C22       1.0  0.65190  0.06207  0.15777  1.0000 -0.1790469039
C   C23       1.0  0.59217  0.93853  0.01530  1.0000 -0.1960651196
C   C24       1.0  0.58155  0.00061  0.07190  1.0000 0.1738013701
C   C25       1.0  0.15430  0.49070  0.32140  1.0000 -0.0051217101
C   C26       1.0  0.23650  0.59440  0.54890  1.0000 0.3507574127
C   C27       1.0  0.31620  0.74020  0.65800  1.0000 0.2348321752
C   C28       1.0  0.12640  0.49706  0.24002  1.0000 0.0610398353
C   C29       1.0  0.23970  0.56820  0.61310  1.0000 -0.2295507279
C   C30       1.0  0.32350  0.72060  0.72430  1.0000 -0.223745331
C   C31       1.0  0.12041  0.43510  0.16667  1.0000 -0.1142373233
C   C32       1.0  0.10500  0.56000  0.23312  1.0000 -0.1359745225
C   C33       1.0  0.28320  0.63160  0.69920  1.0000 0.0029357823
C   C34       1.0  0.09570  0.43793  0.08983  1.0000 -0.1790469039
C   C35       1.0  0.07677  0.56147  0.15364  1.0000 -0.1960651196
C   C36       1.0  0.07129  0.49939  0.08094  1.0000 0.1738013701
C   C37       1.0  0.66930  0.83290  0.17860  1.0000 -0.0045678826
C   C38       1.0  0.54550  0.68760  0.95110  1.0000 0.3507574127
C   C39       1.0  0.58220  0.65820  0.84200  1.0000 0.2348321752
C   C40       1.0  0.75704  0.88638  0.25998  1.0000 0.0610398353
C   C41       1.0  0.45510  0.62660  0.88690  1.0000 -0.2295507279
C   C42       1.0  0.49630  0.59920  0.77570  1.0000 -0.223745331
C   C43       1.0  0.76843  0.95374  0.33333  1.0000 -0.1142373233
C   C44       1.0  0.82688  0.87188  0.26688  1.0000 -0.1359745225
C   C45       1.0  0.43240  0.58400  0.80080  1.0000 0.0029357823
C   C46       1.0  0.84810  0.00587  0.41017  1.0000 -0.1790469039
C   C47       1.0  0.90783  0.92313  0.34636  1.0000 -0.1960651196
C   C48       1.0  0.91845  0.99035  0.41906  1.0000 0.1738013701
C   C49       1.0  0.83290  0.17860  0.66930  1.0000 -0.0051217101
C   C50       1.0  0.68760  0.95110  0.54550  1.0000 0.3507574127
C   C51       1.0  0.65820  0.84200  0.58220  1.0000 0.2348321752
C   C52       1.0  0.88638  0.25998  0.75704  1.0000 0.0610398353
C   C53       1.0  0.62660  0.88690  0.45510  1.0000 -0.2295507279
C   C54       1.0  0.59920  0.77570  0.49630  1.0000 -0.223745331
C   C55       1.0  0.95374  0.33333  0.76843  1.0000 -0.1142373233
C   C56       1.0  0.87188  0.26688  0.82688  1.0000 -0.1359745225
C   C57       1.0  0.58400  0.80080  0.43240  1.0000 0.0029357823
C   C58       1.0  0.00587  0.41017  0.84810  1.0000 -0.1790469039
C   C59       1.0  0.92313  0.34636  0.90783  1.0000 -0.1960651196
C   C60       1.0  0.99035  0.41906  0.91845  1.0000 0.1738013701
C   C61       1.0  0.49070  0.32140  0.15430  1.0000 -0.0051217101
C   C62       1.0  0.59440  0.54890  0.23650  1.0000 0.3507574127
C   C63       1.0  0.74020  0.65800  0.31620  1.0000 0.2348321752
C   C64       1.0  0.49706  0.24002  0.12640  1.0000 0.0610398353
C   C65       1.0  0.56820  0.61310  0.23970  1.0000 -0.2295507279
C   C66       1.0  0.72060  0.72430  0.32350  1.0000 -0.223745331
C   C67       1.0  0.43510  0.16667  0.12041  1.0000 -0.1142373233
C   C68       1.0  0.56000  0.23312  0.10500  1.0000 -0.1359745225
C   C69       1.0  0.63160  0.69920  0.28320  1.0000 0.0029357823
C   C70       1.0  0.43793  0.08983  0.09570  1.0000 -0.1790469039
C   C71       1.0  0.56147  0.15364  0.07677  1.0000 -0.1960651196
C   C72       1.0  0.49939  0.08094  0.07129  1.0000 0.1738013701
C   C73       1.0  0.00930  0.16360  0.83070  1.0000 -0.0051217101
C   C74       1.0  0.90560  0.14210  0.95450  1.0000 0.3507574127
C   C75       1.0  0.75980  0.07600  0.91780  1.0000 0.2348321752
C   C76       1.0  0.00294  0.12934  0.74296  1.0000 0.0610398353
C   C77       1.0  0.93180  0.17150  0.04490  1.0000 -0.2295507279
C   C78       1.0  0.77940  0.10290  0.00370  1.0000 -0.223745331
C   C79       1.0  0.06490  0.18531  0.73157  1.0000 -0.1142373233
C   C80       1.0  0.94000  0.04500  0.67312  1.0000 -0.1359745225
C   C81       1.0  0.86840  0.15160  0.06760  1.0000 0.0029357823
C   C82       1.0  0.06207  0.15777  0.65190  1.0000 -0.1790469039
C   C83       1.0  0.93853  0.01530  0.59217  1.0000 -0.1960651196
C   C84       1.0  0.00061  0.07190  0.58155  1.0000 0.1738013701
C   C85       1.0  0.66710  0.33640  0.34570  1.0000 -0.0051217101
C   C86       1.0  0.81240  0.35790  0.26350  1.0000 0.3507574127
C   C87       1.0  0.84180  0.42400  0.18380  1.0000 0.2348321752
C   C88       1.0  0.61362  0.37066  0.37360  1.0000 0.0610398353
C   C89       1.0  0.87340  0.32850  0.26030  1.0000 -0.2295507279
C   C90       1.0  0.90080  0.39710  0.17650  1.0000 -0.223745331
C   C91       1.0  0.54626  0.31469  0.37959  1.0000 -0.1142373233
C   C92       1.0  0.62812  0.45500  0.39500  1.0000 -0.1359745225
C   C93       1.0  0.91600  0.34840  0.21680  1.0000 0.0029357823
C   C94       1.0  0.49413  0.34223  0.40430  1.0000 -0.1790469039
C   C95       1.0  0.57687  0.48470  0.42323  1.0000 -0.1960651196
C   C96       1.0  0.50965  0.42810  0.42871  1.0000 0.1738013701
C   C97       1.0  0.32140  0.15430  0.49070  1.0000 -0.0051217101
C   C98       1.0  0.54890  0.23650  0.59440  1.0000 0.3507574127
C   C99       1.0  0.65800  0.31620  0.74020  1.0000 0.2348321752
C   C100      1.0  0.24002  0.12640  0.49706  1.0000 0.0610398353
C   C101      1.0  0.61310  0.23970  0.56820  1.0000 -0.2295507279
C   C102      1.0  0.72430  0.32350  0.72060  1.0000 -0.223745331
C   C103      1.0  0.16667  0.12041  0.43510  1.0000 -0.1142373233
C   C104      1.0  0.23312  0.10500  0.56000  1.0000 -0.1359745225
C   C105      1.0  0.69920  0.28320  0.63160  1.0000 0.0029357823
C   C106      1.0  0.08983  0.09570  0.43793  1.0000 -0.1790469039
C   C107      1.0  0.15364  0.07677  0.56147  1.0000 -0.1960651196
C   C108      1.0  0.08094  0.07129  0.49939  1.0000 0.1738013701
C   C109      1.0  0.17860  0.66930  0.83290  1.0000 -0.0051217101
C   C110      1.0  0.95110  0.54550  0.68760  1.0000 0.3507574127
C   C111      1.0  0.84200  0.58220  0.65820  1.0000 0.2348321752
C   C112      1.0  0.25998  0.75704  0.88638  1.0000 0.0610398353
C   C113      1.0  0.88690  0.45510  0.62660  1.0000 -0.2295507279
C   C114      1.0  0.77570  0.49630  0.59920  1.0000 -0.223745331
C   C115      1.0  0.33333  0.76843  0.95374  1.0000 -0.1142373233
C   C116      1.0  0.26688  0.82688  0.87188  1.0000 -0.1359745225
C   C117      1.0  0.80080  0.43240  0.58400  1.0000 0.0029357823
C   C118      1.0  0.41017  0.84810  0.00587  1.0000 -0.1790469039
C   C119      1.0  0.34636  0.90783  0.92313  1.0000 -0.1960651196
C   C120      1.0  0.41906  0.91845  0.99035  1.0000 0.1738013701
C   C121      1.0  0.33640  0.34570  0.66710  1.0000 -0.0051217101
C   C122      1.0  0.35790  0.26350  0.81240  1.0000 0.3507574127
C   C123      1.0  0.42400  0.18380  0.84180  1.0000 0.2348321752
C   C124      1.0  0.37066  0.37360  0.61362  1.0000 0.0610398353
C   C125      1.0  0.32850  0.26030  0.87340  1.0000 -0.2295507279
C   C126      1.0  0.39710  0.17650  0.90080  1.0000 -0.223745331
C   C127      1.0  0.31469  0.37959  0.54626  1.0000 -0.1142373233
C   C128      1.0  0.45500  0.39500  0.62812  1.0000 -0.1359745225
C   C129      1.0  0.34840  0.21680  0.91600  1.0000 0.0029357823
C   C130      1.0  0.34223  0.40430  0.49413  1.0000 -0.1790469039
C   C131      1.0  0.48470  0.42323  0.57687  1.0000 -0.1960651196
C   C132      1.0  0.42810  0.42871  0.50965  1.0000 0.1738013701
C   C133      1.0  0.16360  0.83070  0.00930  1.0000 -0.0045678826
C   C134      1.0  0.14210  0.95450  0.90560  1.0000 0.3507574127
C   C135      1.0  0.07600  0.91780  0.75980  1.0000 0.2348321752
C   C136      1.0  0.12934  0.74296  0.00294  1.0000 0.0610398353
C   C137      1.0  0.17150  0.04490  0.93180  1.0000 -0.2295507279
C   C138      1.0  0.10290  0.00370  0.77940  1.0000 -0.223745331
C   C139      1.0  0.18531  0.73157  0.06490  1.0000 -0.1142373233
C   C140      1.0  0.04500  0.67312  0.94000  1.0000 -0.1359745225
C   C141      1.0  0.15160  0.06760  0.86840  1.0000 0.0029357823
C   C142      1.0  0.15777  0.65190  0.06207  1.0000 -0.1790469039
C   C143      1.0  0.01530  0.59217  0.93853  1.0000 -0.1960651196
C   C144      1.0  0.07190  0.58155  0.00061  1.0000 0.1738013701
Br  Br1       1.0  0.13460  0.82046  0.49432  1.0000 -0.0962042155
Br  Br2       1.0  0.82614  0.64028  0.00568  1.0000 -0.0962042155
Br  Br3       1.0  0.36540  0.85972  0.68586  1.0000 -0.0962042155
Br  Br4       1.0  0.67386  0.67954  0.81414  1.0000 -0.0962042155
Br  Br5       1.0  0.67954  0.81414  0.67386  1.0000 -0.0962042155
Br  Br6       1.0  0.85972  0.68586  0.36540  1.0000 -0.0962042155
Br  Br7       1.0  0.64028  0.00568  0.82614  1.0000 -0.0962042155
Br  Br8       1.0  0.82046  0.49432  0.13460  1.0000 -0.0962042155
Br  Br9       1.0  0.68586  0.36540  0.85972  1.0000 -0.0962042155
Br  Br10      1.0  0.81414  0.67386  0.67954  1.0000 -0.0962042155
Br  Br11      1.0  0.49432  0.13460  0.82046  1.0000 -0.0962042155
Br  Br12      1.0  0.00568  0.82614  0.64028  1.0000 -0.0962042155
N   N1        1.0  0.32098  0.71737  0.37281  1.0000 -0.1186935062
N   N2        1.0  0.22578  0.79787  0.40625  1.0000 -0.321284227
N   N3        1.0  0.30325  0.76652  0.33439  1.0000 -0.1960651196
N   N4        1.0  0.84456  0.94817  0.12719  1.0000 -0.1186935062
N   N5        1.0  0.89162  0.81953  0.09375  1.0000 -0.321284227
N   N6        1.0  0.93213  0.96886  0.16561  1.0000 -0.1960651196
N   N7        1.0  0.17902  0.55183  0.39639  1.0000 -0.1186935062
N   N8        1.0  0.27422  0.68047  0.57209  1.0000 -0.321284227
N   N9        1.0  0.19675  0.53114  0.46327  1.0000 -0.1960651196
N   N10       1.0  0.65544  0.78263  0.10361  1.0000 -0.1186935062
N   N11       1.0  0.60838  0.70213  0.92791  1.0000 -0.321284227
N   N12       1.0  0.56787  0.73348  0.03673  1.0000 -0.1960651196
N   N13       1.0  0.78263  0.10361  0.65544  1.0000 -0.1186935062
N   N14       1.0  0.70213  0.92791  0.60838  1.0000 -0.321284227
N   N15       1.0  0.73348  0.03673  0.56787  1.0000 -0.1960651196
N   N16       1.0  0.55183  0.39639  0.17902  1.0000 -0.1186935062
N   N17       1.0  0.68047  0.57209  0.27422  1.0000 -0.321284227
N   N18       1.0  0.53114  0.46327  0.19675  1.0000 -0.1960651196
N   N19       1.0  0.94817  0.12719  0.84456  1.0000 -0.1186935062
N   N20       1.0  0.81953  0.09375  0.89162  1.0000 -0.321284227
N   N21       1.0  0.96886  0.16561  0.93213  1.0000 -0.1960651196
N   N22       1.0  0.71737  0.37281  0.32098  1.0000 -0.1186935062
N   N23       1.0  0.79787  0.40625  0.22578  1.0000 -0.321284227
N   N24       1.0  0.76652  0.33439  0.30325  1.0000 -0.1960651196
N   N25       1.0  0.39639  0.17902  0.55183  1.0000 -0.1186935062
N   N26       1.0  0.57209  0.27422  0.68047  1.0000 -0.321284227
N   N27       1.0  0.46327  0.19675  0.53114  1.0000 -0.1960651196
N   N28       1.0  0.10361  0.65544  0.78263  1.0000 -0.1186935062
N   N29       1.0  0.92791  0.60838  0.70213  1.0000 -0.321284227
N   N30       1.0  0.03673  0.56787  0.73348  1.0000 -0.1960651196
N   N31       1.0  0.37281  0.32098  0.71737  1.0000 -0.1186935062
N   N32       1.0  0.40625  0.22578  0.79787  1.0000 -0.321284227
N   N33       1.0  0.33439  0.30325  0.76652  1.0000 -0.1960651196
N   N34       1.0  0.12719  0.84456  0.94817  1.0000 -0.1186935062
N   N35       1.0  0.09375  0.89162  0.81953  1.0000 -0.321284227
N   N36       1.0  0.16561  0.93213  0.96886  1.0000 -0.1960651196
N   N37       1.0  0.45794  0.45794  0.45794  1.0000 -0.1646614297
N   N38       1.0  0.50000  0.00000  0.04206  1.0000 -0.1646614297
N   N39       1.0  0.04206  0.50000  0.00000  1.0000 -0.1646614297
N   N40       1.0  0.00000  0.04206  0.50000  1.0000 -0.1646614297
Cl  Cl1       1.0  0.25000  0.31288  0.06288  1.0000 1.2745002733
Cl  Cl2       1.0  0.75000  0.18712  0.43712  1.0000 1.2745002733
Cl  Cl3       1.0  0.06288  0.25000  0.31288  1.0000 1.2745002733
Cl  Cl4       1.0  0.43712  0.75000  0.18712  1.0000 1.2745002733
Cl  Cl5       1.0  0.18712  0.43712  0.75000  1.0000 1.2745002733
Cl  Cl6       1.0  0.31288  0.06288  0.25000  1.0000 1.2745002733
O   O1        1.0  0.22449  0.29853  0.97542  1.0000 -0.5106754426
O   O2        1.0  0.32600  0.40080  0.12460  1.0000 -0.5205539836
O   O3        1.0  0.27551  0.25093  0.07404  1.0000 -0.5106754426
O   O4        1.0  0.17400  0.29860  0.07480  1.0000 -0.5205539836
O   O5        1.0  0.67689  0.20147  0.42596  1.0000 -0.5106754426
O   O6        1.0  0.72380  0.09920  0.42520  1.0000 -0.5205539836
O   O7        1.0  0.82311  0.24907  0.52458  1.0000 -0.5106754426
O   O8        1.0  0.77620  0.20140  0.37540  1.0000 -0.5205539836
O   O9        1.0  0.07404  0.27551  0.25093  1.0000 -0.5106754426
O   O10       1.0  0.07480  0.17400  0.29860  1.0000 -0.5205539836
O   O11       1.0  0.97542  0.22449  0.29853  1.0000 -0.5106754426
O   O12       1.0  0.12460  0.32600  0.40080  1.0000 -0.5205539836
O   O13       1.0  0.52458  0.82311  0.24907  1.0000 -0.5106754426
O   O14       1.0  0.37540  0.77620  0.20140  1.0000 -0.5205539836
O   O15       1.0  0.42596  0.67689  0.20147  1.0000 -0.5106754426
O   O16       1.0  0.42520  0.72380  0.09920  1.0000 -0.5205539836
O   O17       1.0  0.20147  0.42596  0.67689  1.0000 -0.5106754426
O   O18       1.0  0.09920  0.42520  0.72380  1.0000 -0.5205539836
O   O19       1.0  0.24907  0.52458  0.82311  1.0000 -0.5106754426
O   O20       1.0  0.20140  0.37540  0.77620  1.0000 -0.5205539836
O   O21       1.0  0.29853  0.97542  0.22449  1.0000 -0.5106754426
O   O22       1.0  0.40080  0.12460  0.32600  1.0000 -0.5205539836
O   O23       1.0  0.25093  0.07404  0.27551  1.0000 -0.5106754426
O   O24       1.0  0.29860  0.07480  0.17400  1.0000 -0.5205539836
