# DDEC6 charges by PACMAN v1.1 (https://github.com/mtap-research/PACMAN-charge/)
data_2017[Cu][utp]3[ION]1
_chemical_formula_sum              "Cu8 H136 C168 N24 O64"
_cell_length_a       7.9831
_cell_length_b       17.4655
_cell_length_c       31.5628
_cell_angle_alpha    90
_cell_angle_beta     90
_cell_angle_gamma    90

_symmetry_space_group_name_H-M    "P 1"
_symmetry_Int_Tables_number       1

loop_
  _symmetry_equiv_pos_as_xyz
  'x, y, z'

loop_
  _atom_site_type_symbol
  _atom_site_label
  _atom_site_symmetry_multiplicity
  _atom_site_fract_x
  _atom_site_fract_y
  _atom_site_fract_z
  _atom_site_occupancy
  _atom_site_charge
Cu  Cu1       1.0  0.16719  0.23565  0.58734  1.0000 0.7860200554
Cu  Cu2       1.0  0.33281  0.26435  0.08734  1.0000 0.7860200554
Cu  Cu3       1.0  0.83281  0.73565  0.58734  1.0000 0.7860200554
Cu  Cu4       1.0  0.66719  0.76435  0.08734  1.0000 0.7860200554
Cu  Cu5       1.0  0.16719  0.26435  0.41266  1.0000 0.7860200554
Cu  Cu6       1.0  0.33281  0.23565  0.91266  1.0000 0.7860200554
Cu  Cu7       1.0  0.83281  0.76435  0.41266  1.0000 0.7860200554
Cu  Cu8       1.0  0.66719  0.73565  0.91266  1.0000 0.7860200554
H   H1        1.0  0.40980  0.33290  0.56590  1.0000 0.330343917
H   H2        1.0  0.40560  0.27950  0.53340  1.0000 0.356737867
H   H3        1.0  0.05760  0.98750  0.57580  1.0000 0.1206931825
H   H4        1.0  0.19190  0.82150  0.49470  1.0000 0.1400888562
H   H5        1.0  0.34410  0.03830  0.47450  1.0000 0.1206931825
H   H6        1.0  0.47380  0.93790  0.43580  1.0000 0.1206931825
H   H7        1.0  0.44650  0.85260  0.44950  1.0000 0.1304984676
H   H8        1.0  0.31370  0.77330  0.40150  1.0000 0.1304984676
H   H9        1.0  0.17320  0.75460  0.33800  1.0000 0.1510440862
H   H10       1.0  0.09150  0.97830  0.33100  1.0000 0.1510440862
H   H11       1.0  0.23230  0.99470  0.39290  1.0000 0.1304984676
H   H12       1.0  0.00100  0.90600  0.27240  1.0000 0.1304984676
H   H13       1.0  0.05720  0.75180  0.27470  1.0000 0.1304984676
H   H14       1.0  0.91820  0.67830  0.22080  1.0000 0.1400888562
H   H15       1.0  0.78660  0.66960  0.15650  1.0000 0.1090520608
H   H16       1.0  0.80090  0.88990  0.14090  1.0000 0.1090520608
H   H17       1.0  0.93340  0.90780  0.20420  1.0000 0.1304984676
H   H18       1.0  0.09020  0.16710  0.06590  1.0000 0.330343917
H   H19       1.0  0.09440  0.22050  0.03340  1.0000 0.356737867
H   H20       1.0  0.44240  0.51250  0.07580  1.0000 0.1206931825
H   H21       1.0  0.30810  0.67850  0.99470  1.0000 0.1400888562
H   H22       1.0  0.15590  0.46170  0.97450  1.0000 0.1206931825
H   H23       1.0  0.02620  0.56210  0.93580  1.0000 0.1206931825
H   H24       1.0  0.05350  0.64740  0.94950  1.0000 0.1304984676
H   H25       1.0  0.18630  0.72670  0.90150  1.0000 0.1304984676
H   H26       1.0  0.32680  0.74540  0.83800  1.0000 0.1510440862
H   H27       1.0  0.40850  0.52170  0.83100  1.0000 0.1510440862
H   H28       1.0  0.26770  0.50530  0.89290  1.0000 0.1304984676
H   H29       1.0  0.49900  0.59400  0.77240  1.0000 0.1304984676
H   H30       1.0  0.44280  0.74820  0.77470  1.0000 0.1304984676
H   H31       1.0  0.58180  0.82170  0.72080  1.0000 0.1400888562
H   H32       1.0  0.71340  0.83040  0.65650  1.0000 0.1090520608
H   H33       1.0  0.69910  0.61010  0.64090  1.0000 0.1090520608
H   H34       1.0  0.56660  0.59220  0.70420  1.0000 0.1304984676
H   H35       1.0  0.59020  0.83290  0.56590  1.0000 0.330343917
H   H36       1.0  0.59440  0.77950  0.53340  1.0000 0.356737867
H   H37       1.0  0.94240  0.48750  0.57580  1.0000 0.1206931825
H   H38       1.0  0.80810  0.32150  0.49470  1.0000 0.1400888562
H   H39       1.0  0.65590  0.53830  0.47450  1.0000 0.1206931825
H   H40       1.0  0.52620  0.43790  0.43580  1.0000 0.1206931825
H   H41       1.0  0.55350  0.35260  0.44950  1.0000 0.1304984676
H   H42       1.0  0.68630  0.27330  0.40150  1.0000 0.1304984676
H   H43       1.0  0.82680  0.25460  0.33800  1.0000 0.1510440862
H   H44       1.0  0.90850  0.47830  0.33100  1.0000 0.1510440862
H   H45       1.0  0.76770  0.49470  0.39290  1.0000 0.1304984676
H   H46       1.0  0.99900  0.40600  0.27240  1.0000 0.1304984676
H   H47       1.0  0.94280  0.25180  0.27470  1.0000 0.1304984676
H   H48       1.0  0.08180  0.17830  0.22080  1.0000 0.1400888562
H   H49       1.0  0.21340  0.16960  0.15650  1.0000 0.1090520608
H   H50       1.0  0.19910  0.38990  0.14090  1.0000 0.1090520608
H   H51       1.0  0.06660  0.40780  0.20420  1.0000 0.1304984676
H   H52       1.0  0.90980  0.66710  0.06590  1.0000 0.330343917
H   H53       1.0  0.90560  0.72050  0.03340  1.0000 0.356737867
H   H54       1.0  0.55760  0.01250  0.07580  1.0000 0.1206931825
H   H55       1.0  0.69190  0.17850  0.99470  1.0000 0.1400888562
H   H56       1.0  0.84410  0.96170  0.97450  1.0000 0.1206931825
H   H57       1.0  0.97380  0.06210  0.93580  1.0000 0.1206931825
H   H58       1.0  0.94650  0.14740  0.94950  1.0000 0.1304984676
H   H59       1.0  0.81370  0.22670  0.90150  1.0000 0.1304984676
H   H60       1.0  0.67320  0.24540  0.83800  1.0000 0.1510440862
H   H61       1.0  0.59150  0.02170  0.83100  1.0000 0.1510440862
H   H62       1.0  0.73230  0.00530  0.89290  1.0000 0.1304984676
H   H63       1.0  0.50100  0.09400  0.77240  1.0000 0.1304984676
H   H64       1.0  0.55720  0.24820  0.77470  1.0000 0.1304984676
H   H65       1.0  0.41820  0.32170  0.72080  1.0000 0.1400888562
H   H66       1.0  0.28660  0.33040  0.65650  1.0000 0.1090520608
H   H67       1.0  0.30090  0.11010  0.64090  1.0000 0.1090520608
H   H68       1.0  0.43340  0.09220  0.70420  1.0000 0.1304984676
H   H69       1.0  0.40980  0.16710  0.43410  1.0000 0.330343917
H   H70       1.0  0.40560  0.22050  0.46660  1.0000 0.356737867
H   H71       1.0  0.05760  0.51250  0.42420  1.0000 0.1206931825
H   H72       1.0  0.19190  0.67850  0.50530  1.0000 0.1400888562
H   H73       1.0  0.34410  0.46170  0.52550  1.0000 0.1206931825
H   H74       1.0  0.47380  0.56210  0.56420  1.0000 0.1206931825
H   H75       1.0  0.44650  0.64740  0.55050  1.0000 0.1304984676
H   H76       1.0  0.31370  0.72670  0.59850  1.0000 0.1304984676
H   H77       1.0  0.17320  0.74540  0.66200  1.0000 0.1510440862
H   H78       1.0  0.09150  0.52170  0.66900  1.0000 0.1510440862
H   H79       1.0  0.23230  0.50530  0.60710  1.0000 0.1304984676
H   H80       1.0  0.00100  0.59400  0.72760  1.0000 0.1304984676
H   H81       1.0  0.05720  0.74820  0.72530  1.0000 0.1304984676
H   H82       1.0  0.91820  0.82170  0.77920  1.0000 0.1400888562
H   H83       1.0  0.78660  0.83040  0.84350  1.0000 0.1090520608
H   H84       1.0  0.80090  0.61010  0.85910  1.0000 0.1090520608
H   H85       1.0  0.93340  0.59220  0.79580  1.0000 0.1304984676
H   H86       1.0  0.09020  0.33290  0.93410  1.0000 0.330343917
H   H87       1.0  0.09440  0.27950  0.96660  1.0000 0.356737867
H   H88       1.0  0.44240  0.98750  0.92420  1.0000 0.1206931825
H   H89       1.0  0.30810  0.82150  0.00530  1.0000 0.1400888562
H   H90       1.0  0.15590  0.03830  0.02550  1.0000 0.1206931825
H   H91       1.0  0.02620  0.93790  0.06420  1.0000 0.1206931825
H   H92       1.0  0.05350  0.85260  0.05050  1.0000 0.1304984676
H   H93       1.0  0.18630  0.77330  0.09850  1.0000 0.1304984676
H   H94       1.0  0.32680  0.75460  0.16200  1.0000 0.1510440862
H   H95       1.0  0.40850  0.97830  0.16900  1.0000 0.1510440862
H   H96       1.0  0.26770  0.99470  0.10710  1.0000 0.1304984676
H   H97       1.0  0.49900  0.90600  0.22760  1.0000 0.1304984676
H   H98       1.0  0.44280  0.75180  0.22530  1.0000 0.1304984676
H   H99       1.0  0.58180  0.67830  0.27920  1.0000 0.1400888562
H   H100      1.0  0.71340  0.66960  0.34350  1.0000 0.1090520608
H   H101      1.0  0.69910  0.88990  0.35910  1.0000 0.1090520608
H   H102      1.0  0.56660  0.90780  0.29580  1.0000 0.1304984676
H   H103      1.0  0.59020  0.66710  0.43410  1.0000 0.330343917
H   H104      1.0  0.59440  0.72050  0.46660  1.0000 0.356737867
H   H105      1.0  0.94240  0.01250  0.42420  1.0000 0.1206931825
H   H106      1.0  0.80810  0.17850  0.50530  1.0000 0.1304984676
H   H107      1.0  0.65590  0.96170  0.52550  1.0000 0.1206931825
H   H108      1.0  0.52620  0.06210  0.56420  1.0000 0.1206931825
H   H109      1.0  0.55350  0.14740  0.55050  1.0000 0.1304984676
H   H110      1.0  0.68630  0.22670  0.59850  1.0000 0.1304984676
H   H111      1.0  0.82680  0.24540  0.66200  1.0000 0.1510440862
H   H112      1.0  0.90850  0.02170  0.66900  1.0000 0.1510440862
H   H113      1.0  0.76770  0.00530  0.60710  1.0000 0.1304984676
H   H114      1.0  0.99900  0.09400  0.72760  1.0000 0.1304984676
H   H115      1.0  0.94280  0.24820  0.72530  1.0000 0.1304984676
H   H116      1.0  0.08180  0.32170  0.77920  1.0000 0.1400888562
H   H117      1.0  0.21340  0.33040  0.84350  1.0000 0.1090520608
H   H118      1.0  0.19910  0.11010  0.85910  1.0000 0.1090520608
H   H119      1.0  0.06660  0.09220  0.79580  1.0000 0.1304984676
H   H120      1.0  0.90980  0.83290  0.93410  1.0000 0.330343917
H   H121      1.0  0.90560  0.77950  0.96660  1.0000 0.356737867
H   H122      1.0  0.55760  0.48750  0.92420  1.0000 0.1206931825
H   H123      1.0  0.69190  0.32150  0.00530  1.0000 0.1304984676
H   H124      1.0  0.84410  0.53830  0.02550  1.0000 0.1206931825
H   H125      1.0  0.97380  0.43790  0.06420  1.0000 0.1206931825
H   H126      1.0  0.94650  0.35260  0.05050  1.0000 0.1304984676
H   H127      1.0  0.81370  0.27330  0.09850  1.0000 0.1304984676
H   H128      1.0  0.67320  0.25460  0.16200  1.0000 0.1510440862
H   H129      1.0  0.59150  0.47830  0.16900  1.0000 0.1510440862
H   H130      1.0  0.73230  0.49470  0.10710  1.0000 0.1304984676
H   H131      1.0  0.50100  0.40600  0.22760  1.0000 0.1304984676
H   H132      1.0  0.55720  0.25180  0.22530  1.0000 0.1304984676
H   H133      1.0  0.41820  0.17830  0.27920  1.0000 0.1400888562
H   H134      1.0  0.28660  0.16960  0.34350  1.0000 0.1090520608
H   H135      1.0  0.30090  0.38990  0.35910  1.0000 0.1090520608
H   H136      1.0  0.43340  0.40780  0.29580  1.0000 0.1304984676
C   C1        1.0  0.20510  0.10940  0.53896  1.0000 0.5399828404
C   C2        1.0  0.20000  0.02640  0.52699  1.0000 -0.0120993304
C   C3        1.0  0.11300  0.97220  0.55135  1.0000 -0.1333639557
C   C4        1.0  0.10910  0.89570  0.53911  1.0000 -0.0048261313
C   C5        1.0  0.19470  0.87260  0.50293  1.0000 -0.1491550785
C   C6        1.0  0.28510  0.92600  0.47889  1.0000 0.1090520608
C   C7        1.0  0.28600  0.00270  0.49076  1.0000 -0.1779605107
C   C8        1.0  0.01000  0.83810  0.56271  1.0000 0.5399828404
C   C9        1.0  0.38920  0.89960  0.44179  1.0000 -0.1779605107
C   C10       1.0  0.26980  0.81490  0.38685  1.0000 0.0588194504
C   C11       1.0  0.18610  0.80380  0.34880  1.0000 -0.2002799139
C   C12       1.0  0.12190  0.86570  0.32699  1.0000 0.1400888562
C   C13       1.0  0.13800  0.93610  0.34460  1.0000 -0.1779605107
C   C14       1.0  0.22100  0.94580  0.38163  1.0000 0.037967503
C   C15       1.0  0.03980  0.86070  0.28450  1.0000 -0.1333639557
C   C16       1.0  0.01850  0.79720  0.26280  1.0000 -0.1491550785
C   C17       1.0  0.93830  0.79320  0.22136  1.0000 0.1510440862
C   C18       1.0  0.89480  0.72250  0.20550  1.0000 -0.1940107514
C   C19       1.0  0.81610  0.71780  0.16660  1.0000 0.0805845856
C   C20       1.0  0.82460  0.84730  0.15746  1.0000 0.0884923395
C   C21       1.0  0.90340  0.85880  0.19550  1.0000 -0.2002799139
C   C22       1.0  0.29490  0.39060  0.03896  1.0000 0.5399828404
C   C23       1.0  0.30000  0.47360  0.02699  1.0000 -0.0120993304
C   C24       1.0  0.38700  0.52780  0.05135  1.0000 -0.1333639557
C   C25       1.0  0.39090  0.60430  0.03911  1.0000 -0.0048261313
C   C26       1.0  0.30530  0.62740  0.00293  1.0000 -0.1491550785
C   C27       1.0  0.21490  0.57400  0.97889  1.0000 0.1090520608
C   C28       1.0  0.21400  0.49730  0.99076  1.0000 -0.1779605107
C   C29       1.0  0.49000  0.66190  0.06271  1.0000 0.5399828404
C   C30       1.0  0.11080  0.60040  0.94179  1.0000 -0.1779605107
C   C31       1.0  0.23020  0.68510  0.88685  1.0000 0.0588194504
C   C32       1.0  0.31390  0.69620  0.84880  1.0000 -0.2002799139
C   C33       1.0  0.37810  0.63430  0.82699  1.0000 0.1400888562
C   C34       1.0  0.36200  0.56390  0.84460  1.0000 -0.1779605107
C   C35       1.0  0.27900  0.55420  0.88163  1.0000 0.037967503
C   C36       1.0  0.46020  0.63930  0.78450  1.0000 -0.1333639557
C   C37       1.0  0.48150  0.70280  0.76280  1.0000 -0.1491550785
C   C38       1.0  0.56170  0.70680  0.72136  1.0000 0.1510440862
C   C39       1.0  0.60520  0.77750  0.70550  1.0000 -0.1940107514
C   C40       1.0  0.68390  0.78220  0.66667  1.0000 0.0805845856
C   C41       1.0  0.67540  0.65270  0.65746  1.0000 0.0884923395
C   C42       1.0  0.59660  0.64120  0.69550  1.0000 -0.2002799139
C   C43       1.0  0.79490  0.60940  0.53896  1.0000 0.5399828404
C   C44       1.0  0.80000  0.52640  0.52699  1.0000 -0.0120993304
C   C45       1.0  0.88700  0.47220  0.55135  1.0000 -0.1333639557
C   C46       1.0  0.89090  0.39570  0.53911  1.0000 -0.0048261313
C   C47       1.0  0.80530  0.37260  0.50293  1.0000 -0.1491550785
C   C48       1.0  0.71490  0.42600  0.47889  1.0000 0.1090520608
C   C49       1.0  0.71400  0.50270  0.49076  1.0000 -0.1779605107
C   C50       1.0  0.99000  0.33810  0.56271  1.0000 0.5399828404
C   C51       1.0  0.61080  0.39960  0.44179  1.0000 -0.1779605107
C   C52       1.0  0.73020  0.31490  0.38685  1.0000 0.0588194504
C   C53       1.0  0.81390  0.30380  0.34880  1.0000 -0.2002799139
C   C54       1.0  0.87810  0.36570  0.32699  1.0000 0.1400888562
C   C55       1.0  0.86200  0.43610  0.34460  1.0000 -0.1779605107
C   C56       1.0  0.77900  0.44580  0.38163  1.0000 0.037967503
C   C57       1.0  0.96020  0.36070  0.28450  1.0000 -0.1333639557
C   C58       1.0  0.98150  0.29720  0.26280  1.0000 -0.1491550785
C   C59       1.0  0.06170  0.29320  0.22136  1.0000 0.1510440862
C   C60       1.0  0.10520  0.22250  0.20550  1.0000 -0.1940107514
C   C61       1.0  0.18390  0.21780  0.16660  1.0000 0.0805845856
C   C62       1.0  0.17540  0.34730  0.15746  1.0000 0.0884923395
C   C63       1.0  0.09660  0.35880  0.19550  1.0000 -0.2002799139
C   C64       1.0  0.70510  0.89060  0.03896  1.0000 0.5399828404
C   C65       1.0  0.70000  0.97360  0.02699  1.0000 -0.0120993304
C   C66       1.0  0.61300  0.02780  0.05135  1.0000 -0.1333639557
C   C67       1.0  0.60910  0.10430  0.03911  1.0000 -0.0048261313
C   C68       1.0  0.69470  0.12740  0.00293  1.0000 -0.1491550785
C   C69       1.0  0.78510  0.07400  0.97889  1.0000 0.1090520608
C   C70       1.0  0.78600  0.99730  0.99076  1.0000 -0.1779605107
C   C71       1.0  0.51000  0.16190  0.06271  1.0000 0.5399828404
C   C72       1.0  0.88920  0.10040  0.94179  1.0000 -0.1779605107
C   C73       1.0  0.76980  0.18510  0.88685  1.0000 0.0588194504
C   C74       1.0  0.68610  0.19620  0.84880  1.0000 -0.2002799139
C   C75       1.0  0.62190  0.13430  0.82699  1.0000 0.1400888562
C   C76       1.0  0.63800  0.06390  0.84460  1.0000 -0.1779605107
C   C77       1.0  0.72100  0.05420  0.88163  1.0000 0.037967503
C   C78       1.0  0.53980  0.13930  0.78450  1.0000 -0.1333639557
C   C79       1.0  0.51850  0.20280  0.76280  1.0000 -0.1491550785
C   C80       1.0  0.43830  0.20680  0.72136  1.0000 0.1510440862
C   C81       1.0  0.39480  0.27750  0.70550  1.0000 -0.1940107514
C   C82       1.0  0.31610  0.28220  0.66667  1.0000 0.0805845856
C   C83       1.0  0.32460  0.15270  0.65746  1.0000 0.0884923395
C   C84       1.0  0.40340  0.14120  0.69550  1.0000 -0.2002799139
C   C85       1.0  0.20510  0.39060  0.46104  1.0000 0.5399828404
C   C86       1.0  0.20000  0.47360  0.47301  1.0000 -0.0120993304
C   C87       1.0  0.11300  0.52780  0.44865  1.0000 -0.1333639557
C   C88       1.0  0.10910  0.60430  0.46089  1.0000 -0.0048261313
C   C89       1.0  0.19470  0.62740  0.49707  1.0000 -0.1491550785
C   C90       1.0  0.28510  0.57400  0.52111  1.0000 0.1090520608
C   C91       1.0  0.28600  0.49730  0.50924  1.0000 -0.1779605107
C   C92       1.0  0.01000  0.66190  0.43729  1.0000 0.5399828404
C   C93       1.0  0.38920  0.60040  0.55821  1.0000 -0.1779605107
C   C94       1.0  0.26980  0.68510  0.61315  1.0000 0.0588194504
C   C95       1.0  0.18610  0.69620  0.65120  1.0000 -0.2002799139
C   C96       1.0  0.12190  0.63430  0.67301  1.0000 0.1400888562
C   C97       1.0  0.13800  0.56390  0.65540  1.0000 -0.1779605107
C   C98       1.0  0.22100  0.55420  0.61837  1.0000 0.037967503
C   C99       1.0  0.03980  0.63930  0.71550  1.0000 -0.1333639557
C   C100      1.0  0.01850  0.70280  0.73720  1.0000 -0.1491550785
C   C101      1.0  0.93830  0.70680  0.77864  1.0000 0.1510440862
C   C102      1.0  0.89480  0.77750  0.79450  1.0000 -0.1940107514
C   C103      1.0  0.81610  0.78220  0.83340  1.0000 0.0805845856
C   C104      1.0  0.82460  0.65270  0.84254  1.0000 0.0884923395
C   C105      1.0  0.90340  0.64120  0.80450  1.0000 -0.2002799139
C   C106      1.0  0.29490  0.10940  0.96104  1.0000 0.5399828404
C   C107      1.0  0.30000  0.02640  0.97301  1.0000 -0.0120993304
C   C108      1.0  0.38700  0.97220  0.94865  1.0000 -0.1333639557
C   C109      1.0  0.39090  0.89570  0.96089  1.0000 -0.0048261313
C   C110      1.0  0.30530  0.87260  0.99707  1.0000 -0.1491550785
C   C111      1.0  0.21490  0.92600  0.02111  1.0000 0.1090520608
C   C112      1.0  0.21400  0.00270  0.00924  1.0000 -0.1779605107
C   C113      1.0  0.49000  0.83810  0.93729  1.0000 0.5399828404
C   C114      1.0  0.11080  0.89960  0.05821  1.0000 -0.1779605107
C   C115      1.0  0.23020  0.81490  0.11315  1.0000 0.0588194504
C   C116      1.0  0.31390  0.80380  0.15120  1.0000 -0.2002799139
C   C117      1.0  0.37810  0.86570  0.17301  1.0000 0.1400888562
C   C118      1.0  0.36200  0.93610  0.15540  1.0000 -0.1779605107
C   C119      1.0  0.27900  0.94580  0.11837  1.0000 0.037967503
C   C120      1.0  0.46020  0.86070  0.21550  1.0000 -0.1333639557
C   C121      1.0  0.48150  0.79720  0.23720  1.0000 -0.1491550785
C   C122      1.0  0.56170  0.79320  0.27864  1.0000 0.1510440862
C   C123      1.0  0.60520  0.72250  0.29450  1.0000 -0.1940107514
C   C124      1.0  0.68390  0.71780  0.33340  1.0000 0.0805845856
C   C125      1.0  0.67540  0.84730  0.34254  1.0000 0.0884923395
C   C126      1.0  0.59660  0.85880  0.30450  1.0000 -0.2002799139
C   C127      1.0  0.79490  0.89060  0.46104  1.0000 0.5399828404
C   C128      1.0  0.80000  0.97360  0.47301  1.0000 -0.0120993304
C   C129      1.0  0.88700  0.02780  0.44865  1.0000 -0.1333639557
C   C130      1.0  0.89090  0.10430  0.46089  1.0000 -0.0048261313
C   C131      1.0  0.80530  0.12740  0.49707  1.0000 -0.1491550785
C   C132      1.0  0.71490  0.07400  0.52111  1.0000 0.1090520608
C   C133      1.0  0.71400  0.99730  0.50924  1.0000 -0.1779605107
C   C134      1.0  0.99000  0.16190  0.43729  1.0000 0.5399828404
C   C135      1.0  0.61080  0.10040  0.55821  1.0000 -0.1779605107
C   C136      1.0  0.73020  0.18510  0.61315  1.0000 0.0588194504
C   C137      1.0  0.81390  0.19620  0.65120  1.0000 -0.2002799139
C   C138      1.0  0.87810  0.13430  0.67301  1.0000 0.1400888562
C   C139      1.0  0.86200  0.06390  0.65540  1.0000 -0.1779605107
C   C140      1.0  0.77900  0.05420  0.61837  1.0000 0.037967503
C   C141      1.0  0.96020  0.13930  0.71550  1.0000 -0.1333639557
C   C142      1.0  0.98150  0.20280  0.73720  1.0000 -0.1491550785
C   C143      1.0  0.06170  0.20680  0.77864  1.0000 0.1510440862
C   C144      1.0  0.10520  0.27750  0.79450  1.0000 -0.1940107514
C   C145      1.0  0.18390  0.28220  0.83340  1.0000 0.0805845856
C   C146      1.0  0.17540  0.15270  0.84254  1.0000 0.0884923395
C   C147      1.0  0.09660  0.14120  0.80450  1.0000 -0.2002799139
C   C148      1.0  0.70510  0.60940  0.96104  1.0000 0.5399828404
C   C149      1.0  0.70000  0.52640  0.97301  1.0000 -0.0120993304
C   C150      1.0  0.61300  0.47220  0.94865  1.0000 -0.1333639557
C   C151      1.0  0.60910  0.39570  0.96089  1.0000 -0.0048261313
C   C152      1.0  0.69470  0.37260  0.99707  1.0000 -0.1491550785
C   C153      1.0  0.78510  0.42600  0.02111  1.0000 0.1090520608
C   C154      1.0  0.78600  0.50270  0.00924  1.0000 -0.1779605107
C   C155      1.0  0.51000  0.33810  0.93729  1.0000 0.5399828404
C   C156      1.0  0.88920  0.39960  0.05821  1.0000 -0.1779605107
C   C157      1.0  0.76980  0.31490  0.11315  1.0000 0.0588194504
C   C158      1.0  0.68610  0.30380  0.15120  1.0000 -0.2002799139
C   C159      1.0  0.62190  0.36570  0.17301  1.0000 0.1400888562
C   C160      1.0  0.63800  0.43610  0.15540  1.0000 -0.1779605107
C   C161      1.0  0.72100  0.44580  0.11837  1.0000 0.037967503
C   C162      1.0  0.53980  0.36070  0.21550  1.0000 -0.1333639557
C   C163      1.0  0.51850  0.29720  0.23720  1.0000 -0.1491550785
C   C164      1.0  0.43830  0.29320  0.27864  1.0000 0.1510440862
C   C165      1.0  0.39480  0.22250  0.29450  1.0000 -0.1940107514
C   C166      1.0  0.31610  0.21780  0.33340  1.0000 0.0805845856
C   C167      1.0  0.32460  0.34730  0.34254  1.0000 0.0884923395
C   C168      1.0  0.40340  0.35880  0.30450  1.0000 -0.2002799139
N   N1        1.0  0.78000  0.77900  0.14277  1.0000 -0.248408746
N   N2        1.0  0.28710  0.88570  0.40225  1.0000 0.1206931825
N   N3        1.0  0.72000  0.72100  0.64277  1.0000 -0.248408746
N   N4        1.0  0.21290  0.61430  0.90225  1.0000 0.1206931825
N   N5        1.0  0.22000  0.27900  0.14277  1.0000 -0.248408746
N   N6        1.0  0.71290  0.38570  0.40225  1.0000 0.1206931825
N   N7        1.0  0.28000  0.22100  0.64277  1.0000 -0.248408746
N   N8        1.0  0.78710  0.11430  0.90225  1.0000 0.1206931825
N   N9        1.0  0.78000  0.72100  0.85723  1.0000 -0.248408746
N   N10       1.0  0.28710  0.61430  0.59775  1.0000 0.1206931825
N   N11       1.0  0.72000  0.77900  0.35723  1.0000 -0.248408746
N   N12       1.0  0.21290  0.88570  0.09775  1.0000 0.1206931825
N   N13       1.0  0.22000  0.22100  0.85723  1.0000 -0.248408746
N   N14       1.0  0.71290  0.11430  0.59775  1.0000 0.1206931825
N   N15       1.0  0.28000  0.27900  0.35723  1.0000 -0.248408746
N   N16       1.0  0.78710  0.38570  0.09775  1.0000 0.1206931825
N   N17       1.0  0.08610  0.57830  0.12720  1.0000 0.6436467096
N   N18       1.0  0.08610  0.92170  0.87280  1.0000 0.6436467096
N   N19       1.0  0.41390  0.92170  0.62720  1.0000 0.6436467096
N   N20       1.0  0.41390  0.57830  0.37280  1.0000 0.6436467096
N   N21       1.0  0.91390  0.42170  0.87280  1.0000 0.6436467096
N   N22       1.0  0.91390  0.07830  0.12720  1.0000 0.6436467096
N   N23       1.0  0.58610  0.07830  0.37280  1.0000 0.6436467096
N   N24       1.0  0.58610  0.42170  0.62720  1.0000 0.6436467096
O   O1        1.0  0.14730  0.12740  0.57541  1.0000 -0.5532247872
O   O2        1.0  0.26900  0.15600  0.51422  1.0000 -0.5269458145
O   O3        1.0  0.91760  0.85510  0.59324  1.0000 -0.544922039
O   O4        1.0  0.01500  0.76900  0.55052  1.0000 -0.4908863455
O   O5        1.0  0.40520  0.28540  0.56011  1.0000 -0.7037483081
O   O6        1.0  0.35270  0.37260  0.07541  1.0000 -0.5532247872
O   O7        1.0  0.23100  0.34400  0.01422  1.0000 -0.5269458145
O   O8        1.0  0.58240  0.64490  0.09324  1.0000 -0.544922039
O   O9        1.0  0.48500  0.73100  0.05052  1.0000 -0.4908863455
O   O10       1.0  0.09480  0.21460  0.06011  1.0000 -0.7037483081
O   O11       1.0  0.85270  0.62740  0.57541  1.0000 -0.5532247872
O   O12       1.0  0.73100  0.65600  0.51422  1.0000 -0.5269458145
O   O13       1.0  0.08240  0.35510  0.59324  1.0000 -0.544922039
O   O14       1.0  0.98500  0.26900  0.55052  1.0000 -0.4908863455
O   O15       1.0  0.59480  0.78540  0.56011  1.0000 -0.7037483081
O   O16       1.0  0.64730  0.87260  0.07541  1.0000 -0.5532247872
O   O17       1.0  0.76900  0.84400  0.01422  1.0000 -0.5269458145
O   O18       1.0  0.41760  0.14490  0.09324  1.0000 -0.544922039
O   O19       1.0  0.51500  0.23100  0.05052  1.0000 -0.4908863455
O   O20       1.0  0.90520  0.71460  0.06011  1.0000 -0.7037483081
O   O21       1.0  0.14730  0.37260  0.42459  1.0000 -0.5532247872
O   O22       1.0  0.26900  0.34400  0.48578  1.0000 -0.5269458145
O   O23       1.0  0.91760  0.64490  0.40676  1.0000 -0.544922039
O   O24       1.0  0.01500  0.73100  0.44948  1.0000 -0.4908863455
O   O25       1.0  0.40520  0.21460  0.43989  1.0000 -0.7037483081
O   O26       1.0  0.35270  0.12740  0.92459  1.0000 -0.5532247872
O   O27       1.0  0.23100  0.15600  0.98578  1.0000 -0.5269458145
O   O28       1.0  0.58240  0.85510  0.90676  1.0000 -0.544922039
O   O29       1.0  0.48500  0.76900  0.94948  1.0000 -0.4908863455
O   O30       1.0  0.09480  0.28540  0.93989  1.0000 -0.7037483081
O   O31       1.0  0.85270  0.87260  0.42459  1.0000 -0.5532247872
O   O32       1.0  0.73100  0.84400  0.48578  1.0000 -0.5269458145
O   O33       1.0  0.08240  0.14490  0.40676  1.0000 -0.544922039
O   O34       1.0  0.98500  0.23100  0.44948  1.0000 -0.4908863455
O   O35       1.0  0.59480  0.71460  0.43989  1.0000 -0.7037483081
O   O36       1.0  0.64730  0.62740  0.92459  1.0000 -0.5532247872
O   O37       1.0  0.76900  0.65600  0.98578  1.0000 -0.5269458145
O   O38       1.0  0.41760  0.35510  0.90676  1.0000 -0.544922039
O   O39       1.0  0.51500  0.26900  0.94948  1.0000 -0.4908863455
O   O40       1.0  0.90520  0.78540  0.93989  1.0000 -0.7037483081
O   O41       1.0  0.99510  0.57490  0.09820  1.0000 -0.3509358615
O   O42       1.0  0.11400  0.52750  0.15090  1.0000 -0.3794502244
O   O43       1.0  0.16940  0.64010  0.13040  1.0000 -0.417561289
O   O44       1.0  0.99510  0.92510  0.90180  1.0000 -0.3509358615
O   O45       1.0  0.11400  0.97250  0.84910  1.0000 -0.3794502244
O   O46       1.0  0.16940  0.85990  0.86960  1.0000 -0.417561289
O   O47       1.0  0.50490  0.92510  0.59820  1.0000 -0.3509358615
O   O48       1.0  0.38600  0.97250  0.65090  1.0000 -0.3794502244
O   O49       1.0  0.33060  0.85990  0.63040  1.0000 -0.417561289
O   O50       1.0  0.50490  0.57490  0.40180  1.0000 -0.3509358615
O   O51       1.0  0.38600  0.52750  0.34910  1.0000 -0.3794502244
O   O52       1.0  0.33060  0.64010  0.36960  1.0000 -0.417561289
O   O53       1.0  0.00490  0.42510  0.90180  1.0000 -0.3509358615
O   O54       1.0  0.88600  0.47250  0.84910  1.0000 -0.3794502244
O   O55       1.0  0.83060  0.35990  0.86960  1.0000 -0.417561289
O   O56       1.0  0.00490  0.07490  0.09820  1.0000 -0.3509358615
O   O57       1.0  0.88600  0.02750  0.15090  1.0000 -0.3794502244
O   O58       1.0  0.83060  0.14010  0.13040  1.0000 -0.417561289
O   O59       1.0  0.49510  0.07490  0.40180  1.0000 -0.3509358615
O   O60       1.0  0.61400  0.02750  0.34910  1.0000 -0.3794502244
O   O61       1.0  0.66940  0.14010  0.36960  1.0000 -0.417561289
O   O62       1.0  0.49510  0.42510  0.59820  1.0000 -0.3509358615
O   O63       1.0  0.61400  0.47250  0.65090  1.0000 -0.3794502244
O   O64       1.0  0.66940  0.35990  0.63040  1.0000 -0.417561289
