# DDEC6 charges by PACMAN v1.1 (https://github.com/mtap-research/PACMAN-charge/)
data_2017[Ag][srs]3[ION]18
_chemical_formula_sum              "Ag6 H108 C144 Br12 N40 Cl6 O24"
_cell_length_a       18.3199
_cell_length_b       18.3199
_cell_length_c       18.3199
_cell_angle_alpha    109.471
_cell_angle_beta     109.471
_cell_angle_gamma    109.471

_symmetry_space_group_name_H-M    "P 1"
_symmetry_Int_Tables_number       1

loop_
  _symmetry_equiv_pos_as_xyz
  'x, y, z'

loop_
  _atom_site_type_symbol
  _atom_site_label
  _atom_site_symmetry_multiplicity
  _atom_site_fract_x
  _atom_site_fract_y
  _atom_site_fract_z
  _atom_site_occupancy
  _atom_site_charge
Ag  Ag1       1.0  0.21227  0.75000  0.96227  1.0000 0.2992064192
Ag  Ag2       1.0  0.28773  0.25000  0.53773  1.0000 0.2992064192
Ag  Ag3       1.0  0.75000  0.96227  0.21227  1.0000 0.2992064192
Ag  Ag4       1.0  0.25000  0.53773  0.28773  1.0000 0.2992064192
Ag  Ag5       1.0  0.53773  0.28773  0.25000  1.0000 0.2992064192
Ag  Ag6       1.0  0.96227  0.21227  0.75000  1.0000 0.2992064192
H   H1        1.0  0.08810  0.94080  0.04190  1.0000 0.1303648225
H   H2        1.0  0.17290  0.88970  0.99300  1.0000 0.1102659572
H   H3        1.0  0.04140  0.86470  0.75970  1.0000 0.1303648225
H   H4        1.0  0.94380  0.89760  0.79760  1.0000 0.1303648225
H   H5        1.0  0.16490  0.84220  0.78330  1.0000 0.115538662
H   H6        1.0  0.38730  0.78740  0.79130  1.0000 0.1512305262
H   H7        1.0  0.46180  0.71230  0.83450  1.0000 0.1102659572
H   H8        1.0  0.42800  0.64340  0.90760  1.0000 0.1303648225
H   H9        1.0  0.26700  0.81460  0.79020  1.0000 0.2825740659
H   H10       1.0  0.39890  0.04620  0.45810  1.0000 0.1303648225
H   H11       1.0  0.39670  0.17990  0.50700  1.0000 0.1102659572
H   H12       1.0  0.60500  0.28170  0.74030  1.0000 0.1303648225
H   H13       1.0  0.60000  0.14620  0.70240  1.0000 0.1303648225
H   H14       1.0  0.55890  0.38160  0.71670  1.0000 0.115538662
H   H15       1.0  0.49610  0.59600  0.70870  1.0000 0.1512305262
H   H16       1.0  0.37780  0.62730  0.66550  1.0000 0.1102659572
H   H17       1.0  0.23580  0.52040  0.59240  1.0000 0.1303648225
H   H18       1.0  0.52440  0.47680  0.70980  1.0000 0.2825740659
H   H19       1.0  0.41190  0.45380  0.85270  1.0000 0.1303648225
H   H20       1.0  0.32710  0.32010  0.71680  1.0000 0.1102659572
H   H21       1.0  0.45860  0.21830  0.82330  1.0000 0.1303648225
H   H22       1.0  0.55620  0.35380  0.95380  1.0000 0.1303648225
H   H23       1.0  0.33510  0.11840  0.67730  1.0000 0.115538662
H   H24       1.0  0.11270  0.90400  0.40010  1.0000 0.1512305262
H   H25       1.0  0.03820  0.87270  0.25050  1.0000 0.1102659572
H   H26       1.0  0.07200  0.97960  0.21540  1.0000 0.1303648225
H   H27       1.0  0.23300  0.02320  0.54760  1.0000 0.2825740659
H   H28       1.0  0.10110  0.55920  0.64730  1.0000 0.1303648225
H   H29       1.0  0.10330  0.61030  0.78320  1.0000 0.1102659572
H   H30       1.0  0.89500  0.63530  0.67670  1.0000 0.1303648225
H   H31       1.0  0.90000  0.60240  0.54620  1.0000 0.1303648225
H   H32       1.0  0.94110  0.65780  0.82270  1.0000 0.115538662
H   H33       1.0  0.00390  0.71260  0.09990  1.0000 0.1512305262
H   H34       1.0  0.12220  0.78770  0.24950  1.0000 0.1102659572
H   H35       1.0  0.26420  0.85660  0.28460  1.0000 0.1303648225
H   H36       1.0  0.97560  0.68540  0.95240  1.0000 0.2825740659
H   H37       1.0  0.55920  0.64730  0.10110  1.0000 0.1303648225
H   H38       1.0  0.61030  0.78320  0.10330  1.0000 0.1102659572
H   H39       1.0  0.63530  0.67670  0.89500  1.0000 0.1303648225
H   H40       1.0  0.60240  0.54620  0.90000  1.0000 0.1303648225
H   H41       1.0  0.65780  0.82270  0.94110  1.0000 0.115538662
H   H42       1.0  0.71260  0.09990  0.00390  1.0000 0.1512305262
H   H43       1.0  0.78770  0.24950  0.12220  1.0000 0.1102659572
H   H44       1.0  0.85660  0.28460  0.26420  1.0000 0.1303648225
H   H45       1.0  0.68540  0.95240  0.97560  1.0000 0.2825740659
H   H46       1.0  0.45380  0.85270  0.41190  1.0000 0.1303648225
H   H47       1.0  0.32010  0.71680  0.32710  1.0000 0.1102659572
H   H48       1.0  0.21830  0.82330  0.45860  1.0000 0.1303648225
H   H49       1.0  0.35380  0.95380  0.55620  1.0000 0.1303648225
H   H50       1.0  0.11840  0.67730  0.33510  1.0000 0.115538662
H   H51       1.0  0.90400  0.40010  0.11270  1.0000 0.1512305262
H   H52       1.0  0.87270  0.25050  0.03820  1.0000 0.1102659572
H   H53       1.0  0.97960  0.21540  0.07200  1.0000 0.1303648225
H   H54       1.0  0.02320  0.54760  0.23300  1.0000 0.2825740659
H   H55       1.0  0.04620  0.45810  0.39890  1.0000 0.1303648225
H   H56       1.0  0.17990  0.50700  0.39670  1.0000 0.1102659572
H   H57       1.0  0.28170  0.74030  0.60500  1.0000 0.1303648225
H   H58       1.0  0.14620  0.70240  0.60000  1.0000 0.1303648225
H   H59       1.0  0.38160  0.71670  0.55890  1.0000 0.115538662
H   H60       1.0  0.59600  0.70870  0.49610  1.0000 0.1512305262
H   H61       1.0  0.62730  0.66550  0.37780  1.0000 0.1102659572
H   H62       1.0  0.52040  0.59240  0.23580  1.0000 0.1303648225
H   H63       1.0  0.47680  0.70980  0.52440  1.0000 0.2825740659
H   H64       1.0  0.94080  0.04190  0.08810  1.0000 0.1303648225
H   H65       1.0  0.88970  0.99300  0.17290  1.0000 0.1102659572
H   H66       1.0  0.86470  0.75970  0.04140  1.0000 0.1303648225
H   H67       1.0  0.89760  0.79760  0.94380  1.0000 0.1303648225
H   H68       1.0  0.84220  0.78330  0.16490  1.0000 0.115538662
H   H69       1.0  0.78740  0.79130  0.38730  1.0000 0.1512305262
H   H70       1.0  0.71230  0.83450  0.46180  1.0000 0.1102659572
H   H71       1.0  0.64340  0.90760  0.42800  1.0000 0.1303648225
H   H72       1.0  0.81460  0.79020  0.26700  1.0000 0.2825740659
H   H73       1.0  0.85270  0.41190  0.45380  1.0000 0.1303648225
H   H74       1.0  0.71680  0.32710  0.32010  1.0000 0.1102659572
H   H75       1.0  0.82330  0.45860  0.21830  1.0000 0.1303648225
H   H76       1.0  0.95380  0.55620  0.35380  1.0000 0.1303648225
H   H77       1.0  0.67730  0.33510  0.11840  1.0000 0.115538662
H   H78       1.0  0.40010  0.11270  0.90400  1.0000 0.1512305262
H   H79       1.0  0.25050  0.03820  0.87270  1.0000 0.1102659572
H   H80       1.0  0.21540  0.07200  0.97960  1.0000 0.1303648225
H   H81       1.0  0.54760  0.23300  0.02320  1.0000 0.2825740659
H   H82       1.0  0.64730  0.10110  0.55920  1.0000 0.1303648225
H   H83       1.0  0.78320  0.10330  0.61030  1.0000 0.1102659572
H   H84       1.0  0.67670  0.89500  0.63530  1.0000 0.1303648225
H   H85       1.0  0.54620  0.90000  0.60240  1.0000 0.1303648225
H   H86       1.0  0.82270  0.94110  0.65780  1.0000 0.115538662
H   H87       1.0  0.09990  0.00390  0.71260  1.0000 0.1512305262
H   H88       1.0  0.24950  0.12220  0.78770  1.0000 0.1102659572
H   H89       1.0  0.28460  0.26420  0.85660  1.0000 0.1303648225
H   H90       1.0  0.95240  0.97560  0.68540  1.0000 0.2825740659
H   H91       1.0  0.04190  0.08810  0.94080  1.0000 0.1303648225
H   H92       1.0  0.99300  0.17290  0.88970  1.0000 0.1102659572
H   H93       1.0  0.75970  0.04140  0.86470  1.0000 0.1303648225
H   H94       1.0  0.79760  0.94380  0.89760  1.0000 0.1303648225
H   H95       1.0  0.78330  0.16490  0.84220  1.0000 0.115538662
H   H96       1.0  0.79130  0.38730  0.78740  1.0000 0.1512305262
H   H97       1.0  0.83450  0.46180  0.71230  1.0000 0.1102659572
H   H98       1.0  0.90760  0.42800  0.64340  1.0000 0.1303648225
H   H99       1.0  0.79020  0.26700  0.81460  1.0000 0.2825740659
H   H100      1.0  0.45810  0.39890  0.04620  1.0000 0.1303648225
H   H101      1.0  0.50700  0.39670  0.17990  1.0000 0.1102659572
H   H102      1.0  0.74030  0.60500  0.28170  1.0000 0.1303648225
H   H103      1.0  0.70240  0.60000  0.14620  1.0000 0.1303648225
H   H104      1.0  0.71670  0.55890  0.38160  1.0000 0.115538662
H   H105      1.0  0.70870  0.49610  0.59600  1.0000 0.1512305262
H   H106      1.0  0.66550  0.37780  0.62730  1.0000 0.1102659572
H   H107      1.0  0.59240  0.23580  0.52040  1.0000 0.1303648225
H   H108      1.0  0.70980  0.52440  0.47680  1.0000 0.2825740659
C   C1        1.0  0.01170  0.92950  0.93000  1.0000 0.1655817662
C   C2        1.0  0.07630  0.92410  0.98300  1.0000 -0.1798863543
C   C3        1.0  0.12810  0.89470  0.95460  1.0000 -0.1458907751
C   C4        1.0  0.11260  0.87350  0.87130  1.0000 0.0408733556
C   C5        1.0  0.04890  0.87780  0.81670  1.0000 -0.1180804362
C   C6        1.0  0.99300  0.90060  0.83960  1.0000 -0.1798863543
C   C7        1.0  0.16950  0.84370  0.83640  1.0000 0.0119777976
C   C8        1.0  0.31170  0.75920  0.85650  1.0000 0.3683399741
C   C9        1.0  0.37620  0.76000  0.82460  1.0000 -0.2460415642
C   C10       1.0  0.41830  0.71470  0.85000  1.0000 -0.0196520111
C   C11       1.0  0.39970  0.67550  0.89460  1.0000 -0.1798863543
C   C12       1.0  0.34240  0.67990  0.92170  1.0000 0.1909417768
C   C13       1.0  0.49950  0.08170  0.57000  1.0000 0.1655817662
C   C14       1.0  0.44110  0.09330  0.51700  1.0000 -0.1798863543
C   C15       1.0  0.44010  0.17350  0.54540  1.0000 -0.1458907751
C   C16       1.0  0.50220  0.24130  0.62870  1.0000 0.0408733556
C   C17       1.0  0.56110  0.23220  0.68330  1.0000 -0.1180804362
C   C18       1.0  0.56100  0.15340  0.66040  1.0000 -0.1798863543
C   C19       1.0  0.50730  0.33310  0.66360  1.0000 0.0119777976
C   C20       1.0  0.40270  0.45520  0.64350  1.0000 0.3683399741
C   C21       1.0  0.43540  0.55160  0.67540  1.0000 -0.2460415642
C   C22       1.0  0.36470  0.56830  0.65000  1.0000 -0.0196520111
C   C23       1.0  0.28090  0.50510  0.60540  1.0000 -0.1798863543
C   C24       1.0  0.25820  0.42070  0.57830  1.0000 0.1909417768
C   C25       1.0  0.48830  0.41830  0.91780  1.0000 0.1655817662
C   C26       1.0  0.42370  0.40670  0.84780  1.0000 -0.1798863543
C   C27       1.0  0.37190  0.32650  0.76660  1.0000 -0.1458907751
C   C28       1.0  0.38740  0.25870  0.76090  1.0000 0.0408733556
C   C29       1.0  0.45110  0.26780  0.82890  1.0000 -0.1180804362
C   C30       1.0  0.50700  0.34660  0.90760  1.0000 -0.1798863543
C   C31       1.0  0.33050  0.16690  0.67420  1.0000 0.0119777976
C   C32       1.0  0.18830  0.04480  0.44750  1.0000 0.3683399741
C   C33       1.0  0.12380  0.94840  0.38380  1.0000 -0.2460415642
C   C34       1.0  0.08170  0.93170  0.29640  1.0000 -0.0196520111
C   C35       1.0  0.10030  0.99490  0.27580  1.0000 -0.1798863543
C   C36       1.0  0.15760  0.07930  0.33750  1.0000 0.1909417768
C   C37       1.0  0.00050  0.57050  0.58220  1.0000 0.1655817662
C   C38       1.0  0.05890  0.57590  0.65220  1.0000 -0.1798863543
C   C39       1.0  0.05990  0.60530  0.73340  1.0000 -0.1458907751
C   C40       1.0  0.99780  0.62650  0.73910  1.0000 0.0408733556
C   C41       1.0  0.93890  0.62220  0.67110  1.0000 -0.1180804362
C   C42       1.0  0.93900  0.59940  0.59240  1.0000 -0.1798863543
C   C43       1.0  0.99270  0.65630  0.82580  1.0000 0.0119777976
C   C44       1.0  0.09730  0.74080  0.05250  1.0000 0.3683399741
C   C45       1.0  0.06460  0.74000  0.11620  1.0000 -0.2447526421
C   C46       1.0  0.13530  0.78530  0.20360  1.0000 -0.0196520111
C   C47       1.0  0.21910  0.82450  0.22420  1.0000 -0.1798863543
C   C48       1.0  0.24180  0.82010  0.16250  1.0000 0.1909417768
C   C49       1.0  0.57050  0.58220  0.00050  1.0000 0.1655817662
C   C50       1.0  0.57590  0.65220  0.05890  1.0000 -0.1798863543
C   C51       1.0  0.60530  0.73340  0.05990  1.0000 -0.1458907751
C   C52       1.0  0.62650  0.73910  0.99780  1.0000 0.0408733556
C   C53       1.0  0.62220  0.67110  0.93890  1.0000 -0.1180804362
C   C54       1.0  0.59940  0.59240  0.93900  1.0000 -0.1798863543
C   C55       1.0  0.65630  0.82580  0.99270  1.0000 0.0119777976
C   C56       1.0  0.74080  0.05250  0.09730  1.0000 0.3683399741
C   C57       1.0  0.74000  0.11620  0.06460  1.0000 -0.2460415642
C   C58       1.0  0.78530  0.20360  0.13530  1.0000 -0.0196520111
C   C59       1.0  0.82450  0.22420  0.21910  1.0000 -0.1798863543
C   C60       1.0  0.82010  0.16250  0.24180  1.0000 0.1909417768
C   C61       1.0  0.41830  0.91780  0.48830  1.0000 0.1655817662
C   C62       1.0  0.40670  0.84780  0.42370  1.0000 -0.1798863543
C   C63       1.0  0.32650  0.76660  0.37190  1.0000 -0.1458907751
C   C64       1.0  0.25870  0.76090  0.38740  1.0000 0.0408733556
C   C65       1.0  0.26780  0.82890  0.45110  1.0000 -0.1180804362
C   C66       1.0  0.34660  0.90760  0.50700  1.0000 -0.1798863543
C   C67       1.0  0.16690  0.67420  0.33050  1.0000 0.0119777976
C   C68       1.0  0.04480  0.44750  0.18830  1.0000 0.3683399741
C   C69       1.0  0.94840  0.38380  0.12380  1.0000 -0.2447526421
C   C70       1.0  0.93170  0.29640  0.08170  1.0000 -0.0196520111
C   C71       1.0  0.99490  0.27580  0.10030  1.0000 -0.1798863543
C   C72       1.0  0.07930  0.33750  0.15760  1.0000 0.1909417768
C   C73       1.0  0.08170  0.57000  0.49950  1.0000 0.1655817662
C   C74       1.0  0.09330  0.51700  0.44110  1.0000 -0.1798863543
C   C75       1.0  0.17350  0.54540  0.44010  1.0000 -0.1458907751
C   C76       1.0  0.24130  0.62870  0.50220  1.0000 0.0408733556
C   C77       1.0  0.23220  0.68330  0.56110  1.0000 -0.1180804362
C   C78       1.0  0.15340  0.66040  0.56100  1.0000 -0.1798863543
C   C79       1.0  0.33310  0.66360  0.50730  1.0000 0.0119777976
C   C80       1.0  0.45520  0.64350  0.40270  1.0000 0.3683399741
C   C81       1.0  0.55160  0.67540  0.43540  1.0000 -0.2460415642
C   C82       1.0  0.56830  0.65000  0.36470  1.0000 -0.0196520111
C   C83       1.0  0.50510  0.60540  0.28090  1.0000 -0.1798863543
C   C84       1.0  0.42070  0.57830  0.25820  1.0000 0.1909417768
C   C85       1.0  0.92950  0.93000  0.01170  1.0000 0.1655817662
C   C86       1.0  0.92410  0.98300  0.07630  1.0000 -0.1798863543
C   C87       1.0  0.89470  0.95460  0.12810  1.0000 -0.1458907751
C   C88       1.0  0.87350  0.87130  0.11260  1.0000 0.0408733556
C   C89       1.0  0.87780  0.81670  0.04890  1.0000 -0.1180804362
C   C90       1.0  0.90060  0.83960  0.99300  1.0000 -0.1798863543
C   C91       1.0  0.84370  0.83640  0.16950  1.0000 0.0119777976
C   C92       1.0  0.75920  0.85650  0.31170  1.0000 0.3683399741
C   C93       1.0  0.76000  0.82460  0.37620  1.0000 -0.2460415642
C   C94       1.0  0.71470  0.85000  0.41830  1.0000 -0.0196520111
C   C95       1.0  0.67550  0.89460  0.39970  1.0000 -0.1798863543
C   C96       1.0  0.67990  0.92170  0.34240  1.0000 0.1909417768
C   C97       1.0  0.91780  0.48830  0.41830  1.0000 0.1655817662
C   C98       1.0  0.84780  0.42370  0.40670  1.0000 -0.1798863543
C   C99       1.0  0.76660  0.37190  0.32650  1.0000 -0.1458907751
C   C100      1.0  0.76090  0.38740  0.25870  1.0000 0.0408733556
C   C101      1.0  0.82890  0.45110  0.26780  1.0000 -0.1180804362
C   C102      1.0  0.90760  0.50700  0.34660  1.0000 -0.1798863543
C   C103      1.0  0.67420  0.33050  0.16690  1.0000 0.0119777976
C   C104      1.0  0.44750  0.18830  0.04480  1.0000 0.3683399741
C   C105      1.0  0.38380  0.12380  0.94840  1.0000 -0.2460415642
C   C106      1.0  0.29640  0.08170  0.93170  1.0000 -0.0196520111
C   C107      1.0  0.27580  0.10030  0.99490  1.0000 -0.1798863543
C   C108      1.0  0.33750  0.15760  0.07930  1.0000 0.1909417768
C   C109      1.0  0.58220  0.00050  0.57050  1.0000 0.1655817662
C   C110      1.0  0.65220  0.05890  0.57590  1.0000 -0.1798863543
C   C111      1.0  0.73340  0.05990  0.60530  1.0000 -0.1458907751
C   C112      1.0  0.73910  0.99780  0.62650  1.0000 0.0408733556
C   C113      1.0  0.67110  0.93890  0.62220  1.0000 -0.1180804362
C   C114      1.0  0.59240  0.93900  0.59940  1.0000 -0.1798863543
C   C115      1.0  0.82580  0.99270  0.65630  1.0000 0.0119777976
C   C116      1.0  0.05250  0.09730  0.74080  1.0000 0.3683399741
C   C117      1.0  0.11620  0.06460  0.74000  1.0000 -0.2460415642
C   C118      1.0  0.20360  0.13530  0.78530  1.0000 -0.0196520111
C   C119      1.0  0.22420  0.21910  0.82450  1.0000 -0.1798863543
C   C120      1.0  0.16250  0.24180  0.82010  1.0000 0.1909417768
C   C121      1.0  0.93000  0.01170  0.92950  1.0000 0.1655817662
C   C122      1.0  0.98300  0.07630  0.92410  1.0000 -0.1798863543
C   C123      1.0  0.95460  0.12810  0.89470  1.0000 -0.1458907751
C   C124      1.0  0.87130  0.11260  0.87350  1.0000 0.0408733556
C   C125      1.0  0.81670  0.04890  0.87780  1.0000 -0.1180804362
C   C126      1.0  0.83960  0.99300  0.90060  1.0000 -0.1798863543
C   C127      1.0  0.83640  0.16950  0.84370  1.0000 0.0119777976
C   C128      1.0  0.85650  0.31170  0.75920  1.0000 0.3683399741
C   C129      1.0  0.82460  0.37620  0.76000  1.0000 -0.2460415642
C   C130      1.0  0.85000  0.41830  0.71470  1.0000 -0.0196520111
C   C131      1.0  0.89460  0.39970  0.67550  1.0000 -0.1798863543
C   C132      1.0  0.92170  0.34240  0.67990  1.0000 0.1909417768
C   C133      1.0  0.57000  0.49950  0.08170  1.0000 0.1655817662
C   C134      1.0  0.51700  0.44110  0.09330  1.0000 -0.1798863543
C   C135      1.0  0.54540  0.44010  0.17350  1.0000 -0.1458907751
C   C136      1.0  0.62870  0.50220  0.24130  1.0000 0.0408733556
C   C137      1.0  0.68330  0.56110  0.23220  1.0000 -0.1180804362
C   C138      1.0  0.66040  0.56100  0.15340  1.0000 -0.1798863543
C   C139      1.0  0.66360  0.50730  0.33310  1.0000 0.0119777976
C   C140      1.0  0.64350  0.40270  0.45520  1.0000 0.3683399741
C   C141      1.0  0.67540  0.43540  0.55160  1.0000 -0.2460415642
C   C142      1.0  0.65000  0.36470  0.56830  1.0000 -0.0196520111
C   C143      1.0  0.60540  0.28090  0.50510  1.0000 -0.1798863543
C   C144      1.0  0.57830  0.25820  0.42070  1.0000 0.1909417768
Br  Br1       1.0  0.31867  0.63188  0.99343  1.0000 -0.0833822393
Br  Br2       1.0  0.13845  0.32524  0.50657  1.0000 -0.0833822393
Br  Br3       1.0  0.18133  0.17476  0.31321  1.0000 -0.0833822393
Br  Br4       1.0  0.36155  0.86812  0.18679  1.0000 -0.0833822393
Br  Br5       1.0  0.86812  0.18679  0.36155  1.0000 -0.0833822393
Br  Br6       1.0  0.17476  0.31321  0.18133  1.0000 -0.0833822393
Br  Br7       1.0  0.32524  0.50657  0.13845  1.0000 -0.0833822393
Br  Br8       1.0  0.63188  0.99343  0.31867  1.0000 -0.0833822393
Br  Br9       1.0  0.31321  0.18133  0.17476  1.0000 -0.0833822393
Br  Br10      1.0  0.18679  0.36155  0.86812  1.0000 -0.0833822393
Br  Br11      1.0  0.99343  0.31867  0.63188  1.0000 -0.0833822393
Br  Br12      1.0  0.50657  0.13845  0.32524  1.0000 -0.0833822393
N   N1        1.0  0.21780  0.82290  0.87230  1.0000 -0.0962651845
N   N2        1.0  0.26590  0.80140  0.83130  1.0000 -0.2305286642
N   N3        1.0  0.29960  0.72790  0.90910  1.0000 -0.3311406216
N   N4        1.0  0.45060  0.34550  0.62770  1.0000 -0.0962651845
N   N5        1.0  0.47010  0.43460  0.66870  1.0000 -0.2305286642
N   N6        1.0  0.31880  0.39050  0.59090  1.0000 -0.3311406216
N   N7        1.0  0.28220  0.15450  0.60510  1.0000 -0.0962651845
N   N8        1.0  0.23410  0.06540  0.53550  1.0000 -0.2305286642
N   N9        1.0  0.20040  0.10950  0.42830  1.0000 -0.3311406216
N   N10       1.0  0.04940  0.67710  0.89490  1.0000 -0.0962651845
N   N11       1.0  0.02990  0.69860  0.96450  1.0000 -0.2305286642
N   N12       1.0  0.18120  0.77210  0.07170  1.0000 -0.3311406216
N   N13       1.0  0.67710  0.89490  0.04940  1.0000 -0.0962651845
N   N14       1.0  0.69860  0.96450  0.02990  1.0000 -0.2305286642
N   N15       1.0  0.77210  0.07170  0.18120  1.0000 -0.3311406216
N   N16       1.0  0.15450  0.60510  0.28220  1.0000 -0.0962651845
N   N17       1.0  0.06540  0.53550  0.23410  1.0000 -0.2305286642
N   N18       1.0  0.10950  0.42830  0.20040  1.0000 -0.3311406216
N   N19       1.0  0.34550  0.62770  0.45060  1.0000 -0.0962651845
N   N20       1.0  0.43460  0.66870  0.47010  1.0000 -0.2305286642
N   N21       1.0  0.39050  0.59090  0.31880  1.0000 -0.3311406216
N   N22       1.0  0.82290  0.87230  0.21780  1.0000 -0.0947841223
N   N23       1.0  0.80140  0.83130  0.26590  1.0000 -0.2305286642
N   N24       1.0  0.72790  0.90910  0.29960  1.0000 -0.3311406216
N   N25       1.0  0.60510  0.28220  0.15450  1.0000 -0.0947841223
N   N26       1.0  0.53550  0.23410  0.06540  1.0000 -0.2305286642
N   N27       1.0  0.42830  0.20040  0.10950  1.0000 -0.3311406216
N   N28       1.0  0.89490  0.04940  0.67710  1.0000 -0.0962651845
N   N29       1.0  0.96450  0.02990  0.69860  1.0000 -0.2305286642
N   N30       1.0  0.07170  0.18120  0.77210  1.0000 -0.3311406216
N   N31       1.0  0.87230  0.21780  0.82290  1.0000 -0.0962651845
N   N32       1.0  0.83130  0.26590  0.80140  1.0000 -0.2305286642
N   N33       1.0  0.90910  0.29960  0.72790  1.0000 -0.3311406216
N   N34       1.0  0.62770  0.45060  0.34550  1.0000 -0.0962651845
N   N35       1.0  0.66870  0.47010  0.43460  1.0000 -0.2305286642
N   N36       1.0  0.59090  0.31880  0.39050  1.0000 -0.3311406216
N   N37       1.0  0.95960  0.95960  0.95960  1.0000 -0.1637698788
N   N38       1.0  0.50000  0.00000  0.54040  1.0000 -0.1637698788
N   N39       1.0  0.54040  0.50000  0.00000  1.0000 -0.1637698788
N   N40       1.0  0.00000  0.54040  0.50000  1.0000 -0.1637698788
Cl  Cl1       1.0  0.81360  0.75000  0.56360  1.0000 1.2669546142
Cl  Cl2       1.0  0.68640  0.25000  0.93640  1.0000 1.2669546142
Cl  Cl3       1.0  0.93640  0.68640  0.25000  1.0000 1.2669546142
Cl  Cl4       1.0  0.56360  0.81360  0.75000  1.0000 1.2669546142
Cl  Cl5       1.0  0.75000  0.56360  0.81360  1.0000 1.2669546142
Cl  Cl6       1.0  0.25000  0.93640  0.68640  1.0000 1.2669546142
O   O1        1.0  0.90040  0.82720  0.62060  1.0000 -0.4988108591
O   O2        1.0  0.75100  0.77330  0.57590  1.0000 -0.4885499319
O   O3        1.0  0.79340  0.67280  0.57320  1.0000 -0.4988108591
O   O4        1.0  0.80260  0.72670  0.47770  1.0000 -0.4885499319
O   O5        1.0  0.59960  0.22020  0.92680  1.0000 -0.4988108591
O   O6        1.0  0.74900  0.32490  0.02230  1.0000 -0.4885499319
O   O7        1.0  0.70660  0.27980  0.87940  1.0000 -0.4988108591
O   O8        1.0  0.69740  0.17510  0.92410  1.0000 -0.4885499319
O   O9        1.0  0.92680  0.59960  0.22020  1.0000 -0.4988108591
O   O10       1.0  0.02230  0.74900  0.32490  1.0000 -0.4885499319
O   O11       1.0  0.87940  0.70660  0.27980  1.0000 -0.4988108591
O   O12       1.0  0.92410  0.69740  0.17510  1.0000 -0.4885499319
O   O13       1.0  0.62060  0.90040  0.82720  1.0000 -0.4988108591
O   O14       1.0  0.57590  0.75100  0.77330  1.0000 -0.4885499319
O   O15       1.0  0.57320  0.79340  0.67280  1.0000 -0.4988108591
O   O16       1.0  0.47770  0.80260  0.72670  1.0000 -0.4885499319
O   O17       1.0  0.67280  0.57320  0.79340  1.0000 -0.4988108591
O   O18       1.0  0.72670  0.47770  0.80260  1.0000 -0.4885499319
O   O19       1.0  0.82720  0.62060  0.90040  1.0000 -0.4988108591
O   O20       1.0  0.77330  0.57590  0.75100  1.0000 -0.4885499319
O   O21       1.0  0.27980  0.87940  0.70660  1.0000 -0.4988108591
O   O22       1.0  0.17510  0.92410  0.69740  1.0000 -0.4885499319
O   O23       1.0  0.22020  0.92680  0.59960  1.0000 -0.4988108591
O   O24       1.0  0.32490  0.02230  0.74900  1.0000 -0.4885499319
