# DDEC6 charges by PACMAN v1.1 (https://github.com/mtap-research/PACMAN-charge/)
data_2017[Ag][srs]3[ION]35
_chemical_formula_sum              "Ag6 H120 C144 N40 Cl6 O24"
_cell_length_a       18.4418
_cell_length_b       18.4418
_cell_length_c       18.4418
_cell_angle_alpha    109.471
_cell_angle_beta     109.471
_cell_angle_gamma    109.471

_symmetry_space_group_name_H-M    "P 1"
_symmetry_Int_Tables_number       1

loop_
  _symmetry_equiv_pos_as_xyz
  'x, y, z'

loop_
  _atom_site_type_symbol
  _atom_site_label
  _atom_site_symmetry_multiplicity
  _atom_site_fract_x
  _atom_site_fract_y
  _atom_site_fract_z
  _atom_site_occupancy
  _atom_site_charge
Ag  Ag1       1.0  0.95807  0.25000  0.20807  1.0000 0.2719360626
Ag  Ag2       1.0  0.54193  0.75000  0.29193  1.0000 0.2719360626
Ag  Ag3       1.0  0.20807  0.95807  0.25000  1.0000 0.2719360626
Ag  Ag4       1.0  0.29193  0.54193  0.75000  1.0000 0.2719360626
Ag  Ag5       1.0  0.25000  0.20807  0.95807  1.0000 0.2719360626
Ag  Ag6       1.0  0.75000  0.29193  0.54193  1.0000 0.2719360626
H   H1        1.0  0.03500  0.45370  0.10290  1.0000 0.1235388795
H   H2        1.0  0.98710  0.31960  0.09790  1.0000 0.1012599789
H   H3        1.0  0.75190  0.21880  0.88790  1.0000 0.1257364586
H   H4        1.0  0.79240  0.35170  0.89390  1.0000 0.1257364586
H   H5        1.0  0.78170  0.11970  0.93400  1.0000 0.1099258982
H   H6        1.0  0.79880  0.91420  0.01120  1.0000 0.1529481595
H   H7        1.0  0.83400  0.87830  0.11950  1.0000 0.1099258982
H   H8        1.0  0.91500  0.99270  0.27210  1.0000 0.1235388795
H   H9        1.0  0.95990  0.13540  0.30170  1.0000 0.1012599789
H   H10       1.0  0.79740  0.02530  0.97550  1.0000 0.2796865613
H   H11       1.0  0.85080  0.93210  0.39710  1.0000 0.1235388795
H   H12       1.0  0.72170  0.88920  0.40210  1.0000 0.1012599789
H   H13       1.0  0.83090  0.86400  0.61210  1.0000 0.1257364586
H   H14       1.0  0.95780  0.89850  0.60610  1.0000 0.1257364586
H   H15       1.0  0.68570  0.84770  0.56600  1.0000 0.1099258982
H   H16       1.0  0.40300  0.78760  0.48880  1.0000 0.1529481595
H   H17       1.0  0.25880  0.71450  0.38050  1.0000 0.1099258982
H   H18       1.0  0.22060  0.64290  0.22790  1.0000 0.1235388795
H   H19       1.0  0.33370  0.65820  0.19830  1.0000 0.1012599789
H   H20       1.0  0.54980  0.82190  0.52450  1.0000 0.2796865613
H   H21       1.0  0.64920  0.04630  0.08130  1.0000 0.1235388795
H   H22       1.0  0.77830  0.18040  0.16750  1.0000 0.1012599789
H   H23       1.0  0.66910  0.28120  0.03310  1.0000 0.1257364586
H   H24       1.0  0.54220  0.14830  0.94070  1.0000 0.1257364586
H   H25       1.0  0.81430  0.38030  0.16200  1.0000 0.1099258982
H   H26       1.0  0.09700  0.58580  0.38460  1.0000 0.1529481595
H   H27       1.0  0.24120  0.62170  0.45570  1.0000 0.1099258982
H   H28       1.0  0.27940  0.50730  0.42230  1.0000 0.1235388795
H   H29       1.0  0.16630  0.36460  0.32450  1.0000 0.1012599789
H   H30       1.0  0.95020  0.47470  0.27210  1.0000 0.2796865613
H   H31       1.0  0.46500  0.56790  0.41870  1.0000 0.1235388795
H   H32       1.0  0.51290  0.61080  0.33250  1.0000 0.1012599789
H   H33       1.0  0.74810  0.63600  0.46690  1.0000 0.1257364586
H   H34       1.0  0.70760  0.60150  0.55930  1.0000 0.1257364586
H   H35       1.0  0.71830  0.65230  0.33800  1.0000 0.1099258982
H   H36       1.0  0.70120  0.71240  0.11540  1.0000 0.1529481595
H   H37       1.0  0.66600  0.78550  0.04430  1.0000 0.1099258982
H   H38       1.0  0.58500  0.85710  0.07770  1.0000 0.1235388795
H   H39       1.0  0.54010  0.84180  0.17550  1.0000 0.1012599789
H   H40       1.0  0.70260  0.67810  0.22790  1.0000 0.2796865613
H   H41       1.0  0.10290  0.03500  0.45370  1.0000 0.1235388795
H   H42       1.0  0.09790  0.98710  0.31960  1.0000 0.1012599789
H   H43       1.0  0.88790  0.75190  0.21880  1.0000 0.1257364586
H   H44       1.0  0.89390  0.79240  0.35170  1.0000 0.1257364586
H   H45       1.0  0.93400  0.78170  0.11970  1.0000 0.1099258982
H   H46       1.0  0.01120  0.79880  0.91420  1.0000 0.1529481595
H   H47       1.0  0.11950  0.83400  0.87830  1.0000 0.1099258982
H   H48       1.0  0.27210  0.91500  0.99270  1.0000 0.1235388795
H   H49       1.0  0.30170  0.95990  0.13540  1.0000 0.1012599789
H   H50       1.0  0.97550  0.79740  0.02530  1.0000 0.2796865613
H   H51       1.0  0.39710  0.85080  0.93210  1.0000 0.1235388795
H   H52       1.0  0.40210  0.72170  0.88920  1.0000 0.1012599789
H   H53       1.0  0.61210  0.83090  0.86400  1.0000 0.1257364586
H   H54       1.0  0.60610  0.95780  0.89850  1.0000 0.1257364586
H   H55       1.0  0.56600  0.68570  0.84770  1.0000 0.1099258982
H   H56       1.0  0.48880  0.40300  0.78760  1.0000 0.1529481595
H   H57       1.0  0.38050  0.25880  0.71450  1.0000 0.1099258982
H   H58       1.0  0.22790  0.22060  0.64290  1.0000 0.1235388795
H   H59       1.0  0.19830  0.33370  0.65820  1.0000 0.1012599789
H   H60       1.0  0.52450  0.54980  0.82190  1.0000 0.2796865613
H   H61       1.0  0.08130  0.64920  0.04630  1.0000 0.1235388795
H   H62       1.0  0.16750  0.77830  0.18040  1.0000 0.1012599789
H   H63       1.0  0.03310  0.66910  0.28120  1.0000 0.1257364586
H   H64       1.0  0.94070  0.54220  0.14830  1.0000 0.1257364586
H   H65       1.0  0.16200  0.81430  0.38030  1.0000 0.1099258982
H   H66       1.0  0.38460  0.09700  0.58580  1.0000 0.1529481595
H   H67       1.0  0.45570  0.24120  0.62170  1.0000 0.1099258982
H   H68       1.0  0.42230  0.27940  0.50730  1.0000 0.1235388795
H   H69       1.0  0.32450  0.16630  0.36460  1.0000 0.1012599789
H   H70       1.0  0.27210  0.95020  0.47470  1.0000 0.2796865613
H   H71       1.0  0.41870  0.46500  0.56790  1.0000 0.1235388795
H   H72       1.0  0.33250  0.51290  0.61080  1.0000 0.1012599789
H   H73       1.0  0.46690  0.74810  0.63600  1.0000 0.1257364586
H   H74       1.0  0.55930  0.70760  0.60150  1.0000 0.1257364586
H   H75       1.0  0.33800  0.71830  0.65230  1.0000 0.1099258982
H   H76       1.0  0.11540  0.70120  0.71240  1.0000 0.1529481595
H   H77       1.0  0.04430  0.66600  0.78550  1.0000 0.1099258982
H   H78       1.0  0.07770  0.58500  0.85710  1.0000 0.1235388795
H   H79       1.0  0.17550  0.54010  0.84180  1.0000 0.1012599789
H   H80       1.0  0.22790  0.70260  0.67810  1.0000 0.2796865613
H   H81       1.0  0.45370  0.10290  0.03500  1.0000 0.1235388795
H   H82       1.0  0.31960  0.09790  0.98710  1.0000 0.1012599789
H   H83       1.0  0.21880  0.88790  0.75190  1.0000 0.1257364586
H   H84       1.0  0.35170  0.89390  0.79240  1.0000 0.1257364586
H   H85       1.0  0.11970  0.93400  0.78170  1.0000 0.1099258982
H   H86       1.0  0.91420  0.01120  0.79880  1.0000 0.1529481595
H   H87       1.0  0.87830  0.11950  0.83400  1.0000 0.1099258982
H   H88       1.0  0.99270  0.27210  0.91500  1.0000 0.1235388795
H   H89       1.0  0.13540  0.30170  0.95990  1.0000 0.1012599789
H   H90       1.0  0.02530  0.97550  0.79740  1.0000 0.2796865613
H   H91       1.0  0.93210  0.39710  0.85080  1.0000 0.1235388795
H   H92       1.0  0.88920  0.40210  0.72170  1.0000 0.1012599789
H   H93       1.0  0.86400  0.61210  0.83090  1.0000 0.1257364586
H   H94       1.0  0.89850  0.60610  0.95780  1.0000 0.1257364586
H   H95       1.0  0.84770  0.56600  0.68570  1.0000 0.1099258982
H   H96       1.0  0.78760  0.48880  0.40300  1.0000 0.1529481595
H   H97       1.0  0.71450  0.38050  0.25880  1.0000 0.1099258982
H   H98       1.0  0.64290  0.22790  0.22060  1.0000 0.1235388795
H   H99       1.0  0.65820  0.19830  0.33370  1.0000 0.1012599789
H   H100      1.0  0.82190  0.52450  0.54980  1.0000 0.2796865613
H   H101      1.0  0.04630  0.08130  0.64920  1.0000 0.1235388795
H   H102      1.0  0.18040  0.16750  0.77830  1.0000 0.1012599789
H   H103      1.0  0.28120  0.03310  0.66910  1.0000 0.1257364586
H   H104      1.0  0.14830  0.94070  0.54220  1.0000 0.1257364586
H   H105      1.0  0.38030  0.16200  0.81430  1.0000 0.1099258982
H   H106      1.0  0.58580  0.38460  0.09700  1.0000 0.1529481595
H   H107      1.0  0.62170  0.45570  0.24120  1.0000 0.1099258982
H   H108      1.0  0.50730  0.42230  0.27940  1.0000 0.1235388795
H   H109      1.0  0.36460  0.32450  0.16630  1.0000 0.1012599789
H   H110      1.0  0.47470  0.27210  0.95020  1.0000 0.2796865613
H   H111      1.0  0.56790  0.41870  0.46500  1.0000 0.1235388795
H   H112      1.0  0.61080  0.33250  0.51290  1.0000 0.1012599789
H   H113      1.0  0.63600  0.46690  0.74810  1.0000 0.1257364586
H   H114      1.0  0.60150  0.55930  0.70760  1.0000 0.1257364586
H   H115      1.0  0.65230  0.33800  0.71830  1.0000 0.1099258982
H   H116      1.0  0.71240  0.11540  0.70120  1.0000 0.1529481595
H   H117      1.0  0.78550  0.04430  0.66600  1.0000 0.1099258982
H   H118      1.0  0.85710  0.07770  0.58500  1.0000 0.1235388795
H   H119      1.0  0.84180  0.17550  0.54010  1.0000 0.1012599789
H   H120      1.0  0.67810  0.22790  0.70260  1.0000 0.2796865613
C   C1        1.0  0.91850  0.41860  0.99790  1.0000 0.1816439167
C   C2        1.0  0.97700  0.40670  0.05970  1.0000 -0.2041838829
C   C3        1.0  0.94810  0.32620  0.05590  1.0000 -0.1374746725
C   C4        1.0  0.86520  0.25500  0.99380  1.0000 0.0529213732
C   C5        1.0  0.80880  0.26710  0.93250  1.0000 -0.119944975
C   C6        1.0  0.83320  0.34570  0.93490  1.0000 -0.190865735
C   C7        1.0  0.83300  0.16820  0.98680  1.0000 -0.0199398571
C   C8        1.0  0.85910  0.04780  0.09450  1.0000 0.3257339732
C   C9        1.0  0.83150  0.95880  0.07130  1.0000 -0.2213379308
C   C10       1.0  0.85180  0.93780  0.13460  1.0000 -0.0199398571
C   C11       1.0  0.90090  0.00580  0.22590  1.0000 -0.190865735
C   C12       1.0  0.92610  0.08960  0.24210  1.0000 0.0579690298
C   C13       1.0  0.92070  0.92060  0.50210  1.0000 0.1816439167
C   C14       1.0  0.84700  0.91730  0.44030  1.0000 -0.2041838829
C   C15       1.0  0.77030  0.89220  0.44410  1.0000 -0.1374746725
C   C16       1.0  0.76120  0.87140  0.50620  1.0000 0.0529213732
C   C17       1.0  0.83460  0.87630  0.56750  1.0000 -0.119944975
C   C18       1.0  0.91080  0.89830  0.56510  1.0000 -0.1849120572
C   C19       1.0  0.68140  0.84620  0.51320  1.0000 -0.0199398571
C   C20       1.0  0.45330  0.76460  0.40550  1.0000 0.3257339732
C   C21       1.0  0.38750  0.76020  0.42870  1.0000 -0.2213379308
C   C22       1.0  0.30320  0.71720  0.36540  1.0000 -0.0199398571
C   C23       1.0  0.27990  0.67500  0.27410  1.0000 -0.190865735
C   C24       1.0  0.34750  0.68400  0.25790  1.0000 0.0579690298
C   C25       1.0  0.57930  0.08140  0.99990  1.0000 0.1816439167
C   C26       1.0  0.65300  0.09330  0.07030  1.0000 -0.2041838829
C   C27       1.0  0.72970  0.17380  0.12190  1.0000 -0.1374746725
C   C28       1.0  0.73880  0.24500  0.11020  1.0000 0.0529213732
C   C29       1.0  0.66540  0.23290  0.04170  1.0000 -0.119944975
C   C30       1.0  0.58920  0.15430  0.98750  1.0000 -0.1849120572
C   C31       1.0  0.81860  0.33180  0.16480  1.0000 -0.0199398571
C   C32       1.0  0.04670  0.45220  0.31130  1.0000 0.3257339732
C   C33       1.0  0.11250  0.54120  0.37270  1.0000 -0.2213379308
C   C34       1.0  0.19680  0.56220  0.41400  1.0000 -0.0199398571
C   C35       1.0  0.22010  0.49420  0.39510  1.0000 -0.190865735
C   C36       1.0  0.15250  0.41040  0.33650  1.0000 0.0579690298
C   C37       1.0  0.58150  0.57940  0.50010  1.0000 0.1816439167
C   C38       1.0  0.52300  0.58270  0.42970  1.0000 -0.2041838829
C   C39       1.0  0.55190  0.60780  0.37810  1.0000 -0.1374746725
C   C40       1.0  0.63480  0.62860  0.38980  1.0000 0.0529213732
C   C41       1.0  0.69120  0.62370  0.45830  1.0000 -0.119944975
C   C42       1.0  0.66680  0.60170  0.51250  1.0000 -0.1849120572
C   C43       1.0  0.66700  0.65380  0.33520  1.0000 -0.0199398571
C   C44       1.0  0.64090  0.73540  0.18870  1.0000 0.3257339732
C   C45       1.0  0.66850  0.73980  0.12730  1.0000 -0.2213379308
C   C46       1.0  0.64820  0.78280  0.08600  1.0000 -0.0199398571
C   C47       1.0  0.59910  0.82500  0.10490  1.0000 -0.190865735
C   C48       1.0  0.57390  0.81600  0.16350  1.0000 0.0579690298
C   C49       1.0  0.99790  0.91850  0.41860  1.0000 0.1816439167
C   C50       1.0  0.05970  0.97700  0.40670  1.0000 -0.2041838829
C   C51       1.0  0.05590  0.94810  0.32620  1.0000 -0.1374746725
C   C52       1.0  0.99380  0.86520  0.25500  1.0000 0.0529213732
C   C53       1.0  0.93250  0.80880  0.26710  1.0000 -0.119944975
C   C54       1.0  0.93490  0.83320  0.34570  1.0000 -0.1849120572
C   C55       1.0  0.98680  0.83300  0.16820  1.0000 -0.0199398571
C   C56       1.0  0.09450  0.85910  0.04780  1.0000 0.3257339732
C   C57       1.0  0.07130  0.83150  0.95880  1.0000 -0.2213379308
C   C58       1.0  0.13460  0.85180  0.93780  1.0000 -0.0199398571
C   C59       1.0  0.22590  0.90090  0.00580  1.0000 -0.190865735
C   C60       1.0  0.24210  0.92610  0.08960  1.0000 0.0579690298
C   C61       1.0  0.50210  0.92070  0.92060  1.0000 0.1816439167
C   C62       1.0  0.44030  0.84700  0.91730  1.0000 -0.2041838829
C   C63       1.0  0.44410  0.77030  0.89220  1.0000 -0.1374746725
C   C64       1.0  0.50620  0.76120  0.87140  1.0000 0.0529213732
C   C65       1.0  0.56750  0.83460  0.87630  1.0000 -0.119944975
C   C66       1.0  0.56510  0.91080  0.89830  1.0000 -0.1849120572
C   C67       1.0  0.51320  0.68140  0.84620  1.0000 -0.0199398571
C   C68       1.0  0.40550  0.45330  0.76460  1.0000 0.3257339732
C   C69       1.0  0.42870  0.38750  0.76020  1.0000 -0.2213379308
C   C70       1.0  0.36540  0.30320  0.71720  1.0000 -0.0199398571
C   C71       1.0  0.27410  0.27990  0.67500  1.0000 -0.190865735
C   C72       1.0  0.25790  0.34750  0.68400  1.0000 0.0579690298
C   C73       1.0  0.99990  0.57930  0.08140  1.0000 0.1816439167
C   C74       1.0  0.07030  0.65300  0.09330  1.0000 -0.2041838829
C   C75       1.0  0.12190  0.72970  0.17380  1.0000 -0.1374746725
C   C76       1.0  0.11020  0.73880  0.24500  1.0000 0.0529213732
C   C77       1.0  0.04170  0.66540  0.23290  1.0000 -0.119944975
C   C78       1.0  0.98750  0.58920  0.15430  1.0000 -0.190865735
C   C79       1.0  0.16480  0.81860  0.33180  1.0000 -0.0199398571
C   C80       1.0  0.31130  0.04670  0.45220  1.0000 0.3257339732
C   C81       1.0  0.37270  0.11250  0.54120  1.0000 -0.2213379308
C   C82       1.0  0.41400  0.19680  0.56220  1.0000 -0.0199398571
C   C83       1.0  0.39510  0.22010  0.49420  1.0000 -0.190865735
C   C84       1.0  0.33650  0.15250  0.41040  1.0000 0.0579690298
C   C85       1.0  0.50010  0.58150  0.57940  1.0000 0.1816439167
C   C86       1.0  0.42970  0.52300  0.58270  1.0000 -0.2041838829
C   C87       1.0  0.37810  0.55190  0.60780  1.0000 -0.1374746725
C   C88       1.0  0.38980  0.63480  0.62860  1.0000 0.0529213732
C   C89       1.0  0.45830  0.69120  0.62370  1.0000 -0.119944975
C   C90       1.0  0.51250  0.66680  0.60170  1.0000 -0.190865735
C   C91       1.0  0.33520  0.66700  0.65380  1.0000 -0.0199398571
C   C92       1.0  0.18870  0.64090  0.73540  1.0000 0.3257339732
C   C93       1.0  0.12730  0.66850  0.73980  1.0000 -0.2213379308
C   C94       1.0  0.08600  0.64820  0.78280  1.0000 -0.0199398571
C   C95       1.0  0.10490  0.59910  0.82500  1.0000 -0.190865735
C   C96       1.0  0.16350  0.57390  0.81600  1.0000 0.0579690298
C   C97       1.0  0.41860  0.99790  0.91850  1.0000 0.1816439167
C   C98       1.0  0.40670  0.05970  0.97700  1.0000 -0.2041838829
C   C99       1.0  0.32620  0.05590  0.94810  1.0000 -0.1374746725
C   C100      1.0  0.25500  0.99380  0.86520  1.0000 0.0529213732
C   C101      1.0  0.26710  0.93250  0.80880  1.0000 -0.119944975
C   C102      1.0  0.34570  0.93490  0.83320  1.0000 -0.1849120572
C   C103      1.0  0.16820  0.98680  0.83300  1.0000 -0.0199398571
C   C104      1.0  0.04780  0.09450  0.85910  1.0000 0.3257339732
C   C105      1.0  0.95880  0.07130  0.83150  1.0000 -0.2213379308
C   C106      1.0  0.93780  0.13460  0.85180  1.0000 -0.0199398571
C   C107      1.0  0.00580  0.22590  0.90090  1.0000 -0.190865735
C   C108      1.0  0.08960  0.24210  0.92610  1.0000 0.0579690298
C   C109      1.0  0.92060  0.50210  0.92070  1.0000 0.1816439167
C   C110      1.0  0.91730  0.44030  0.84700  1.0000 -0.2041838829
C   C111      1.0  0.89220  0.44410  0.77030  1.0000 -0.1374746725
C   C112      1.0  0.87140  0.50620  0.76120  1.0000 0.0529213732
C   C113      1.0  0.87630  0.56750  0.83460  1.0000 -0.119944975
C   C114      1.0  0.89830  0.56510  0.91080  1.0000 -0.190865735
C   C115      1.0  0.84620  0.51320  0.68140  1.0000 -0.0199398571
C   C116      1.0  0.76460  0.40550  0.45330  1.0000 0.3257339732
C   C117      1.0  0.76020  0.42870  0.38750  1.0000 -0.2213379308
C   C118      1.0  0.71720  0.36540  0.30320  1.0000 -0.0199398571
C   C119      1.0  0.67500  0.27410  0.27990  1.0000 -0.190865735
C   C120      1.0  0.68400  0.25790  0.34750  1.0000 0.0579690298
C   C121      1.0  0.08140  0.99990  0.57930  1.0000 0.1816439167
C   C122      1.0  0.09330  0.07030  0.65300  1.0000 -0.2041838829
C   C123      1.0  0.17380  0.12190  0.72970  1.0000 -0.1374746725
C   C124      1.0  0.24500  0.11020  0.73880  1.0000 0.0529213732
C   C125      1.0  0.23290  0.04170  0.66540  1.0000 -0.119944975
C   C126      1.0  0.15430  0.98750  0.58920  1.0000 -0.190865735
C   C127      1.0  0.33180  0.16480  0.81860  1.0000 -0.0199398571
C   C128      1.0  0.45220  0.31130  0.04670  1.0000 0.3257339732
C   C129      1.0  0.54120  0.37270  0.11250  1.0000 -0.2213379308
C   C130      1.0  0.56220  0.41400  0.19680  1.0000 -0.0199398571
C   C131      1.0  0.49420  0.39510  0.22010  1.0000 -0.190865735
C   C132      1.0  0.41040  0.33650  0.15250  1.0000 0.0579690298
C   C133      1.0  0.57940  0.50010  0.58150  1.0000 0.1816439167
C   C134      1.0  0.58270  0.42970  0.52300  1.0000 -0.2041838829
C   C135      1.0  0.60780  0.37810  0.55190  1.0000 -0.1374746725
C   C136      1.0  0.62860  0.38980  0.63480  1.0000 0.0529213732
C   C137      1.0  0.62370  0.45830  0.69120  1.0000 -0.119944975
C   C138      1.0  0.60170  0.51250  0.66680  1.0000 -0.190865735
C   C139      1.0  0.65380  0.33520  0.66700  1.0000 -0.0199398571
C   C140      1.0  0.73540  0.18870  0.64090  1.0000 0.3257339732
C   C141      1.0  0.73980  0.12730  0.66850  1.0000 -0.2213379308
C   C142      1.0  0.78280  0.08600  0.64820  1.0000 -0.0199398571
C   C143      1.0  0.82500  0.10490  0.59910  1.0000 -0.190865735
C   C144      1.0  0.81600  0.16350  0.57390  1.0000 0.0579690298
N   N1        1.0  0.87060  0.15460  0.04820  1.0000 -0.1268749152
N   N2        1.0  0.83570  0.06800  0.03010  1.0000 -0.2109580936
N   N3        1.0  0.90620  0.11210  0.17930  1.0000 -0.264764206
N   N4        1.0  0.60640  0.82240  0.45180  1.0000 -0.1268749152
N   N5        1.0  0.53790  0.80560  0.46990  1.0000 -0.2109580936
N   N6        1.0  0.43280  0.72690  0.32070  1.0000 -0.2656924377
N   N7        1.0  0.89360  0.34540  0.21600  1.0000 -0.1268749152
N   N8        1.0  0.96210  0.43200  0.26770  1.0000 -0.2109580936
N   N9        1.0  0.06720  0.38790  0.29410  1.0000 -0.2656924377
N   N10       1.0  0.62940  0.67760  0.28400  1.0000 -0.1268749152
N   N11       1.0  0.66430  0.69440  0.23230  1.0000 -0.2109580936
N   N12       1.0  0.59380  0.77310  0.20590  1.0000 -0.264764206
N   N13       1.0  0.04820  0.87060  0.15460  1.0000 -0.1268749152
N   N14       1.0  0.03010  0.83570  0.06800  1.0000 -0.2109580936
N   N15       1.0  0.17930  0.90620  0.11210  1.0000 -0.2656924377
N   N16       1.0  0.45180  0.60640  0.82240  1.0000 -0.1268749152
N   N17       1.0  0.46990  0.53790  0.80560  1.0000 -0.2109580936
N   N18       1.0  0.32070  0.43280  0.72690  1.0000 -0.2656924377
N   N19       1.0  0.21600  0.89360  0.34540  1.0000 -0.1268749152
N   N20       1.0  0.26770  0.96210  0.43200  1.0000 -0.2109580936
N   N21       1.0  0.29410  0.06720  0.38790  1.0000 -0.2656924377
N   N22       1.0  0.28400  0.62940  0.67760  1.0000 -0.1268749152
N   N23       1.0  0.23230  0.66430  0.69440  1.0000 -0.2109580936
N   N24       1.0  0.20590  0.59380  0.77310  1.0000 -0.2656924377
N   N25       1.0  0.15460  0.04820  0.87060  1.0000 -0.1268749152
N   N26       1.0  0.06800  0.03010  0.83570  1.0000 -0.2109580936
N   N27       1.0  0.11210  0.17930  0.90620  1.0000 -0.2656924377
N   N28       1.0  0.82240  0.45180  0.60640  1.0000 -0.1268749152
N   N29       1.0  0.80560  0.46990  0.53790  1.0000 -0.2109580936
N   N30       1.0  0.72690  0.32070  0.43280  1.0000 -0.264764206
N   N31       1.0  0.34540  0.21600  0.89360  1.0000 -0.1268749152
N   N32       1.0  0.43200  0.26770  0.96210  1.0000 -0.2109580936
N   N33       1.0  0.38790  0.29410  0.06720  1.0000 -0.264764206
N   N34       1.0  0.67760  0.28400  0.62940  1.0000 -0.1268749152
N   N35       1.0  0.69440  0.23230  0.66430  1.0000 -0.2109580936
N   N36       1.0  0.77310  0.20590  0.59380  1.0000 -0.264764206
N   N37       1.0  0.94540  0.50000  0.00000  1.0000 -0.153688421
N   N38       1.0  1.00000  0.94540  0.50000  1.0000 -0.153688421
N   N39       1.0  0.50000  0.00000  0.94540  1.0000 -0.153688421
N   N40       1.0  0.55460  0.55460  0.55460  1.0000 -0.153688421
Cl  Cl1       1.0  0.55939  0.25000  0.80939  1.0000 1.2535024917
Cl  Cl2       1.0  0.94061  0.75000  0.69061  1.0000 1.2535024917
Cl  Cl3       1.0  0.25000  0.80939  0.55939  1.0000 1.2535024917
Cl  Cl4       1.0  0.75000  0.69061  0.94061  1.0000 1.2535024917
Cl  Cl5       1.0  0.80939  0.55939  0.25000  1.0000 1.2535024917
Cl  Cl6       1.0  0.69061  0.94061  0.75000  1.0000 1.2535024917
O   O1        1.0  0.57120  0.32300  0.79680  1.0000 -0.4893003791
O   O2        1.0  0.62100  0.22570  0.79710  1.0000 -0.4893003791
O   O3        1.0  0.47380  0.17700  0.74820  1.0000 -0.4893003791
O   O4        1.0  0.57140  0.27430  0.89530  1.0000 -0.4893003791
O   O5        1.0  0.92880  0.72560  0.75180  1.0000 -0.4893003791
O   O6        1.0  0.87900  0.67610  0.60470  1.0000 -0.4893003791
O   O7        1.0  0.02620  0.77440  0.70320  1.0000 -0.4893003791
O   O8        1.0  0.92860  0.82390  0.70290  1.0000 -0.4893003791
O   O9        1.0  0.32300  0.79680  0.57120  1.0000 -0.4893003791
O   O10       1.0  0.22570  0.79710  0.62100  1.0000 -0.4893003791
O   O11       1.0  0.17700  0.74820  0.47380  1.0000 -0.4893003791
O   O12       1.0  0.27430  0.89530  0.57140  1.0000 -0.4893003791
O   O13       1.0  0.72560  0.75180  0.92880  1.0000 -0.4893003791
O   O14       1.0  0.67610  0.60470  0.87900  1.0000 -0.4893003791
O   O15       1.0  0.77440  0.70320  0.02620  1.0000 -0.4893003791
O   O16       1.0  0.82390  0.70290  0.92860  1.0000 -0.4893003791
O   O17       1.0  0.79680  0.57120  0.32300  1.0000 -0.4893003791
O   O18       1.0  0.79710  0.62100  0.22570  1.0000 -0.4893003791
O   O19       1.0  0.74820  0.47380  0.17700  1.0000 -0.4893003791
O   O20       1.0  0.89530  0.57140  0.27430  1.0000 -0.4893003791
O   O21       1.0  0.75180  0.92880  0.72560  1.0000 -0.4893003791
O   O22       1.0  0.60470  0.87900  0.67610  1.0000 -0.4893003791
O   O23       1.0  0.70320  0.02620  0.77440  1.0000 -0.4893003791
O   O24       1.0  0.70290  0.92860  0.82390  1.0000 -0.4893003791
