# DDEC6 charges by PACMAN v1.1 (https://github.com/mtap-research/PACMAN-charge/)
data_2017[Ag][srs]3[ION]21
_chemical_formula_sum              "Ag6 H108 C144 N40 Cl18 O24"
_cell_length_a       18.4707
_cell_length_b       18.4707
_cell_length_c       18.4707
_cell_angle_alpha    109.471
_cell_angle_beta     109.471
_cell_angle_gamma    109.471

_symmetry_space_group_name_H-M    "P 1"
_symmetry_Int_Tables_number       1

loop_
  _symmetry_equiv_pos_as_xyz
  'x, y, z'

loop_
  _atom_site_type_symbol
  _atom_site_label
  _atom_site_symmetry_multiplicity
  _atom_site_fract_x
  _atom_site_fract_y
  _atom_site_fract_z
  _atom_site_occupancy
  _atom_site_charge
Ag  Ag1       1.0  0.21053  0.96053  0.25000  1.0000 0.3008116854
Ag  Ag2       1.0  0.28947  0.53947  0.75000  1.0000 0.3008116854
Ag  Ag3       1.0  0.53947  0.75000  0.28947  1.0000 0.3008116854
Ag  Ag4       1.0  0.96053  0.25000  0.21053  1.0000 0.3050393236
Ag  Ag5       1.0  0.75000  0.28947  0.53947  1.0000 0.3008116854
Ag  Ag6       1.0  0.25000  0.21053  0.96053  1.0000 0.3008116854
H   H1        1.0  0.10280  0.03980  0.45420  1.0000 0.128409407
H   H2        1.0  0.10140  0.99190  0.32030  1.0000 0.1108677875
H   H3        1.0  0.89210  0.75600  0.22070  1.0000 0.128409407
H   H4        1.0  0.89490  0.80040  0.35430  1.0000 0.1196334633
H   H5        1.0  0.93630  0.78530  0.12120  1.0000 0.1196334633
H   H6        1.0  0.00740  0.79470  0.91170  1.0000 0.15440727
H   H7        1.0  0.11740  0.83340  0.87520  1.0000 0.1108677875
H   H8        1.0  0.26440  0.91420  0.98440  1.0000 0.128409407
H   H9        1.0  0.97670  0.79700  0.02750  1.0000 0.2819837205
H   H10       1.0  0.08560  0.64860  0.04580  1.0000 0.128409407
H   H11       1.0  0.17160  0.78110  0.17970  1.0000 0.1108677875
H   H12       1.0  0.03530  0.67140  0.27930  1.0000 0.128409407
H   H13       1.0  0.94610  0.54060  0.14570  1.0000 0.1196334633
H   H14       1.0  0.16410  0.81510  0.37880  1.0000 0.1196334633
H   H15       1.0  0.38300  0.09570  0.58830  1.0000 0.15440727
H   H16       1.0  0.45820  0.24220  0.62480  1.0000 0.1108677875
H   H17       1.0  0.42980  0.28000  0.51560  1.0000 0.128409407
H   H18       1.0  0.26950  0.94920  0.47250  1.0000 0.2819837205
H   H19       1.0  0.39720  0.85140  0.93700  1.0000 0.128409407
H   H20       1.0  0.39860  0.71890  0.89050  1.0000 0.1108677875
H   H21       1.0  0.60790  0.82860  0.86390  1.0000 0.128409407
H   H22       1.0  0.60510  0.95940  0.90550  1.0000 0.1196334633
H   H23       1.0  0.56370  0.68490  0.84900  1.0000 0.1196334633
H   H24       1.0  0.49260  0.40430  0.78730  1.0000 0.15440727
H   H25       1.0  0.38260  0.25780  0.71600  1.0000 0.1108677875
H   H26       1.0  0.23560  0.22000  0.64980  1.0000 0.128409407
H   H27       1.0  0.52330  0.55080  0.82030  1.0000 0.2819837205
H   H28       1.0  0.41440  0.46020  0.56300  1.0000 0.128409407
H   H29       1.0  0.32840  0.50810  0.60950  1.0000 0.1108677875
H   H30       1.0  0.46470  0.74400  0.63610  1.0000 0.128409407
H   H31       1.0  0.55390  0.69960  0.59450  1.0000 0.1196334633
H   H32       1.0  0.33590  0.71470  0.65100  1.0000 0.1196334633
H   H33       1.0  0.11700  0.70530  0.71270  1.0000 0.15440727
H   H34       1.0  0.04180  0.66667  0.78400  1.0000 0.1108677875
H   H35       1.0  0.07020  0.58580  0.85020  1.0000 0.128409407
H   H36       1.0  0.23050  0.70300  0.67970  1.0000 0.2819837205
H   H37       1.0  0.46020  0.56300  0.41440  1.0000 0.128409407
H   H38       1.0  0.50810  0.60950  0.32840  1.0000 0.1108677875
H   H39       1.0  0.74400  0.63610  0.46470  1.0000 0.128409407
H   H40       1.0  0.69960  0.59450  0.55390  1.0000 0.1196334633
H   H41       1.0  0.71470  0.65100  0.33590  1.0000 0.1196334633
H   H42       1.0  0.70530  0.71270  0.11700  1.0000 0.15440727
H   H43       1.0  0.66667  0.78400  0.04180  1.0000 0.1108677875
H   H44       1.0  0.58580  0.85020  0.07020  1.0000 0.128409407
H   H45       1.0  0.70300  0.67970  0.23050  1.0000 0.2819837205
H   H46       1.0  0.85140  0.93700  0.39720  1.0000 0.128409407
H   H47       1.0  0.71890  0.89050  0.39860  1.0000 0.1108677875
H   H48       1.0  0.82860  0.86390  0.60790  1.0000 0.128409407
H   H49       1.0  0.95940  0.90550  0.60510  1.0000 0.1196334633
H   H50       1.0  0.68490  0.84900  0.56370  1.0000 0.1196334633
H   H51       1.0  0.40430  0.78730  0.49260  1.0000 0.15440727
H   H52       1.0  0.25780  0.71600  0.38260  1.0000 0.1108677875
H   H53       1.0  0.22000  0.64980  0.23560  1.0000 0.128409407
H   H54       1.0  0.55080  0.82030  0.52330  1.0000 0.2819837205
H   H55       1.0  0.64860  0.04580  0.08560  1.0000 0.128409407
H   H56       1.0  0.78110  0.17970  0.17160  1.0000 0.1108677875
H   H57       1.0  0.67140  0.27930  0.03530  1.0000 0.128409407
H   H58       1.0  0.54060  0.14570  0.94610  1.0000 0.1196334633
H   H59       1.0  0.81510  0.37880  0.16410  1.0000 0.1196334633
H   H60       1.0  0.09570  0.58830  0.38300  1.0000 0.15440727
H   H61       1.0  0.24220  0.62480  0.45820  1.0000 0.1108677875
H   H62       1.0  0.28000  0.51560  0.42980  1.0000 0.128409407
H   H63       1.0  0.94920  0.47250  0.26950  1.0000 0.2819837205
H   H64       1.0  0.03980  0.45420  0.10280  1.0000 0.128409407
H   H65       1.0  0.99190  0.32030  0.10140  1.0000 0.1108677875
H   H66       1.0  0.75600  0.22070  0.89210  1.0000 0.128409407
H   H67       1.0  0.80040  0.35430  0.89490  1.0000 0.1196334633
H   H68       1.0  0.78530  0.12120  0.93630  1.0000 0.1196334633
H   H69       1.0  0.79470  0.91170  0.00740  1.0000 0.15440727
H   H70       1.0  0.83340  0.87520  0.11740  1.0000 0.1108677875
H   H71       1.0  0.91420  0.98440  0.26440  1.0000 0.128409407
H   H72       1.0  0.79700  0.02750  0.97670  1.0000 0.2819837205
H   H73       1.0  0.93700  0.39720  0.85140  1.0000 0.128409407
H   H74       1.0  0.89050  0.39860  0.71890  1.0000 0.1108677875
H   H75       1.0  0.86390  0.60790  0.82860  1.0000 0.128409407
H   H76       1.0  0.90550  0.60510  0.95940  1.0000 0.1196334633
H   H77       1.0  0.84900  0.56370  0.68490  1.0000 0.1196334633
H   H78       1.0  0.78730  0.49260  0.40430  1.0000 0.15440727
H   H79       1.0  0.71600  0.38260  0.25780  1.0000 0.1108677875
H   H80       1.0  0.64980  0.23560  0.22000  1.0000 0.128409407
H   H81       1.0  0.82030  0.52330  0.55080  1.0000 0.2819837205
H   H82       1.0  0.56300  0.41440  0.46020  1.0000 0.128409407
H   H83       1.0  0.60950  0.32840  0.50810  1.0000 0.1108677875
H   H84       1.0  0.63610  0.46470  0.74400  1.0000 0.128409407
H   H85       1.0  0.59450  0.55390  0.69960  1.0000 0.1196334633
H   H86       1.0  0.65100  0.33590  0.71470  1.0000 0.1196334633
H   H87       1.0  0.71270  0.11700  0.70530  1.0000 0.15440727
H   H88       1.0  0.78400  0.04180  0.66667  1.0000 0.1108677875
H   H89       1.0  0.85020  0.07020  0.58580  1.0000 0.128409407
H   H90       1.0  0.67970  0.23050  0.70300  1.0000 0.2819837205
H   H91       1.0  0.45420  0.10280  0.03980  1.0000 0.128409407
H   H92       1.0  0.32030  0.10140  0.99190  1.0000 0.1108677875
H   H93       1.0  0.22070  0.89210  0.75600  1.0000 0.128409407
H   H94       1.0  0.35430  0.89490  0.80040  1.0000 0.1196334633
H   H95       1.0  0.12120  0.93630  0.78530  1.0000 0.1196334633
H   H96       1.0  0.91170  0.00740  0.79470  1.0000 0.15440727
H   H97       1.0  0.87520  0.11740  0.83340  1.0000 0.1108677875
H   H98       1.0  0.98440  0.26440  0.91420  1.0000 0.128409407
H   H99       1.0  0.02750  0.97670  0.79700  1.0000 0.2819837205
H   H100      1.0  0.04580  0.08560  0.64860  1.0000 0.128409407
H   H101      1.0  0.17970  0.17160  0.78110  1.0000 0.1108677875
H   H102      1.0  0.27930  0.03530  0.67140  1.0000 0.128409407
H   H103      1.0  0.14570  0.94610  0.54060  1.0000 0.1196334633
H   H104      1.0  0.37880  0.16410  0.81510  1.0000 0.1196334633
H   H105      1.0  0.58830  0.38300  0.09570  1.0000 0.15440727
H   H106      1.0  0.62480  0.45820  0.24220  1.0000 0.1108677875
H   H107      1.0  0.51560  0.42980  0.28000  1.0000 0.128409407
H   H108      1.0  0.47250  0.26950  0.94920  1.0000 0.2819837205
C   C1        1.0  0.99900  0.92471  0.41831  1.0000 0.1747371366
C   C2        1.0  0.06040  0.98180  0.40720  1.0000 -0.1919018757
C   C3        1.0  0.05900  0.95320  0.32680  1.0000 -0.1351226063
C   C4        1.0  0.99630  0.86890  0.25660  1.0000 0.0593959283
C   C5        1.0  0.93550  0.81350  0.26840  1.0000 -0.1197208168
C   C6        1.0  0.93660  0.83990  0.34790  1.0000 -0.1820266783
C   C7        1.0  0.98940  0.83610  0.16950  1.0000 -0.0057074244
C   C8        1.0  0.09350  0.85850  0.04600  1.0000 0.3428103946
C   C9        1.0  0.06760  0.82880  0.95580  1.0000 -0.2366086545
C   C10       1.0  0.13270  0.85130  0.93460  1.0000 -0.0057074244
C   C11       1.0  0.21920  0.89910  0.99850  1.0000 -0.2330427545
C   C12       1.0  0.23880  0.92480  0.08420  1.0000 0.2819837205
C   C13       1.0  0.00640  0.58069  0.08169  1.0000 0.1747371366
C   C14       1.0  0.07460  0.65320  0.09280  1.0000 -0.1919018757
C   C15       1.0  0.12640  0.73220  0.17320  1.0000 -0.1351226063
C   C16       1.0  0.11230  0.73970  0.24340  1.0000 0.0593959283
C   C17       1.0  0.04510  0.66710  0.23160  1.0000 -0.1197208168
C   C18       1.0  0.99200  0.58870  0.15210  1.0000 -0.1820266783
C   C19       1.0  0.16660  0.81990  0.33050  1.0000 -0.0057074244
C   C20       1.0  0.31250  0.04750  0.45400  1.0000 0.3428103946
C   C21       1.0  0.37300  0.11180  0.54420  1.0000 -0.2366086545
C   C22       1.0  0.41670  0.19810  0.56540  1.0000 -0.0057074244
C   C23       1.0  0.40060  0.22070  0.50150  1.0000 -0.2330427545
C   C24       1.0  0.34060  0.15460  0.41580  1.0000 0.2819837205
C   C25       1.0  0.50100  0.91931  0.92571  1.0000 0.1747371366
C   C26       1.0  0.43960  0.84680  0.92140  1.0000 -0.1919018757
C   C27       1.0  0.44100  0.76780  0.89420  1.0000 -0.1351226063
C   C28       1.0  0.50370  0.76030  0.87260  1.0000 0.0593959283
C   C29       1.0  0.56450  0.83290  0.87800  1.0000 -0.1197208168
C   C30       1.0  0.56340  0.91130  0.90330  1.0000 -0.1820266783
C   C31       1.0  0.51060  0.68010  0.84670  1.0000 -0.0057074244
C   C32       1.0  0.40650  0.45250  0.76500  1.0000 0.3428103946
C   C33       1.0  0.43240  0.38820  0.76120  1.0000 -0.2366086545
C   C34       1.0  0.36730  0.30190  0.71860  1.0000 -0.0057074244
C   C35       1.0  0.28080  0.27930  0.67990  1.0000 -0.2330427545
C   C36       1.0  0.26120  0.34540  0.68600  1.0000 0.2819837205
C   C37       1.0  0.49360  0.57529  0.57429  1.0000 0.1747371366
C   C38       1.0  0.42540  0.51820  0.57860  1.0000 -0.1919018757
C   C39       1.0  0.37360  0.54680  0.60580  1.0000 -0.1351226063
C   C40       1.0  0.38770  0.63110  0.62740  1.0000 0.0593959283
C   C41       1.0  0.45490  0.68650  0.62200  1.0000 -0.1197208168
C   C42       1.0  0.50800  0.66010  0.59670  1.0000 -0.1820266783
C   C43       1.0  0.33340  0.66390  0.65330  1.0000 -0.0057074244
C   C44       1.0  0.18750  0.64150  0.73500  1.0000 0.3428103946
C   C45       1.0  0.12700  0.67120  0.73880  1.0000 -0.2366086545
C   C46       1.0  0.08330  0.64870  0.78140  1.0000 -0.0057074244
C   C47       1.0  0.09940  0.60090  0.82010  1.0000 -0.2330427545
C   C48       1.0  0.15940  0.57520  0.81400  1.0000 0.2819837205
C   C49       1.0  0.57529  0.57429  0.49360  1.0000 0.1747371366
C   C50       1.0  0.51820  0.57860  0.42540  1.0000 -0.1919018757
C   C51       1.0  0.54680  0.60580  0.37360  1.0000 -0.1351226063
C   C52       1.0  0.63110  0.62740  0.38770  1.0000 0.0593959283
C   C53       1.0  0.68650  0.62200  0.45490  1.0000 -0.1197208168
C   C54       1.0  0.66010  0.59670  0.50800  1.0000 -0.1820266783
C   C55       1.0  0.66390  0.65330  0.33340  1.0000 -0.0057074244
C   C56       1.0  0.64150  0.73500  0.18750  1.0000 0.3428103946
C   C57       1.0  0.67120  0.73880  0.12700  1.0000 -0.2366086545
C   C58       1.0  0.64870  0.78140  0.08330  1.0000 -0.0057074244
C   C59       1.0  0.60090  0.82010  0.09940  1.0000 -0.2330427545
C   C60       1.0  0.57520  0.81400  0.15940  1.0000 0.2819837205
C   C61       1.0  0.91931  0.92571  0.50100  1.0000 0.1747371366
C   C62       1.0  0.84680  0.92140  0.43960  1.0000 -0.1919018757
C   C63       1.0  0.76780  0.89420  0.44100  1.0000 -0.1351226063
C   C64       1.0  0.76030  0.87260  0.50370  1.0000 0.0593959283
C   C65       1.0  0.83290  0.87800  0.56450  1.0000 -0.1197208168
C   C66       1.0  0.91130  0.90330  0.56340  1.0000 -0.1820266783
C   C67       1.0  0.68010  0.84670  0.51060  1.0000 -0.0057074244
C   C68       1.0  0.45250  0.76500  0.40650  1.0000 0.3428103946
C   C69       1.0  0.38820  0.76120  0.43240  1.0000 -0.2366086545
C   C70       1.0  0.30190  0.71860  0.36730  1.0000 -0.0057074244
C   C71       1.0  0.27930  0.67990  0.28080  1.0000 -0.2330427545
C   C72       1.0  0.34540  0.68600  0.26120  1.0000 0.2819837205
C   C73       1.0  0.58069  0.08169  0.00640  1.0000 0.1747371366
C   C74       1.0  0.65320  0.09280  0.07460  1.0000 -0.1919018757
C   C75       1.0  0.73220  0.17320  0.12640  1.0000 -0.1351226063
C   C76       1.0  0.73970  0.24340  0.11230  1.0000 0.0593959283
C   C77       1.0  0.66710  0.23160  0.04510  1.0000 -0.1197208168
C   C78       1.0  0.58870  0.15210  0.99200  1.0000 -0.1820266783
C   C79       1.0  0.81990  0.33050  0.16660  1.0000 -0.0057074244
C   C80       1.0  0.04750  0.45400  0.31250  1.0000 0.3428103946
C   C81       1.0  0.11180  0.54420  0.37300  1.0000 -0.2366086545
C   C82       1.0  0.19810  0.56540  0.41670  1.0000 -0.0057074244
C   C83       1.0  0.22070  0.50150  0.40060  1.0000 -0.2330427545
C   C84       1.0  0.15460  0.41580  0.34060  1.0000 0.2819837205
C   C85       1.0  0.92471  0.41831  0.99900  1.0000 0.1747371366
C   C86       1.0  0.98180  0.40720  0.06040  1.0000 -0.1919018757
C   C87       1.0  0.95320  0.32680  0.05900  1.0000 -0.1343904513
C   C88       1.0  0.86890  0.25660  0.99630  1.0000 0.0593959283
C   C89       1.0  0.81350  0.26840  0.93550  1.0000 -0.1197208168
C   C90       1.0  0.83990  0.34790  0.93660  1.0000 -0.1820266783
C   C91       1.0  0.83610  0.16950  0.98940  1.0000 -0.0057074244
C   C92       1.0  0.85850  0.04600  0.09350  1.0000 0.3428103946
C   C93       1.0  0.82880  0.95580  0.06760  1.0000 -0.2366086545
C   C94       1.0  0.85130  0.93460  0.13270  1.0000 -0.0057074244
C   C95       1.0  0.89910  0.99850  0.21920  1.0000 -0.2330427545
C   C96       1.0  0.92480  0.08420  0.23880  1.0000 0.2819837205
C   C97       1.0  0.92571  0.50100  0.91931  1.0000 0.1747371366
C   C98       1.0  0.92140  0.43960  0.84680  1.0000 -0.1919018757
C   C99       1.0  0.89420  0.44100  0.76780  1.0000 -0.1351226063
C   C100      1.0  0.87260  0.50370  0.76030  1.0000 0.0593959283
C   C101      1.0  0.87800  0.56450  0.83290  1.0000 -0.1197208168
C   C102      1.0  0.90330  0.56340  0.91130  1.0000 -0.1820266783
C   C103      1.0  0.84670  0.51060  0.68010  1.0000 -0.0057074244
C   C104      1.0  0.76500  0.40650  0.45250  1.0000 0.3428103946
C   C105      1.0  0.76120  0.43240  0.38820  1.0000 -0.2366086545
C   C106      1.0  0.71860  0.36730  0.30190  1.0000 -0.0057074244
C   C107      1.0  0.67990  0.28080  0.27930  1.0000 -0.2330427545
C   C108      1.0  0.68600  0.26120  0.34540  1.0000 0.2819837205
C   C109      1.0  0.57429  0.49360  0.57529  1.0000 0.1747371366
C   C110      1.0  0.57860  0.42540  0.51820  1.0000 -0.1919018757
C   C111      1.0  0.60580  0.37360  0.54680  1.0000 -0.1351226063
C   C112      1.0  0.62740  0.38770  0.63110  1.0000 0.0593959283
C   C113      1.0  0.62200  0.45490  0.68650  1.0000 -0.1197208168
C   C114      1.0  0.59670  0.50800  0.66010  1.0000 -0.1820266783
C   C115      1.0  0.65330  0.33340  0.66390  1.0000 -0.0057074244
C   C116      1.0  0.73500  0.18750  0.64150  1.0000 0.3428103946
C   C117      1.0  0.73880  0.12700  0.67120  1.0000 -0.2366086545
C   C118      1.0  0.78140  0.08330  0.64870  1.0000 -0.0057074244
C   C119      1.0  0.82010  0.09940  0.60090  1.0000 -0.2330427545
C   C120      1.0  0.81400  0.15940  0.57520  1.0000 0.2819837205
C   C121      1.0  0.41831  0.99900  0.92471  1.0000 0.1747371366
C   C122      1.0  0.40720  0.06040  0.98180  1.0000 -0.1919018757
C   C123      1.0  0.32680  0.05900  0.95320  1.0000 -0.1351226063
C   C124      1.0  0.25660  0.99630  0.86890  1.0000 0.0593959283
C   C125      1.0  0.26840  0.93550  0.81350  1.0000 -0.1197208168
C   C126      1.0  0.34790  0.93660  0.83990  1.0000 -0.1820266783
C   C127      1.0  0.16950  0.98940  0.83610  1.0000 -0.0057074244
C   C128      1.0  0.04600  0.09350  0.85850  1.0000 0.3428103946
C   C129      1.0  0.95580  0.06760  0.82880  1.0000 -0.2366086545
C   C130      1.0  0.93460  0.13270  0.85130  1.0000 -0.0057074244
C   C131      1.0  0.99850  0.21920  0.89910  1.0000 -0.2330427545
C   C132      1.0  0.08420  0.23880  0.92480  1.0000 0.2819837205
C   C133      1.0  0.08169  0.00640  0.58069  1.0000 0.1747371366
C   C134      1.0  0.09280  0.07460  0.65320  1.0000 -0.1919018757
C   C135      1.0  0.17320  0.12640  0.73220  1.0000 -0.1351226063
C   C136      1.0  0.24340  0.11230  0.73970  1.0000 0.0593959283
C   C137      1.0  0.23160  0.04510  0.66710  1.0000 -0.1197208168
C   C138      1.0  0.15210  0.99200  0.58870  1.0000 -0.1820266783
C   C139      1.0  0.33050  0.16660  0.81990  1.0000 -0.0057074244
C   C140      1.0  0.45400  0.31250  0.04750  1.0000 0.3428103946
C   C141      1.0  0.54420  0.37300  0.11180  1.0000 -0.2366086545
C   C142      1.0  0.56540  0.41670  0.19810  1.0000 -0.0057074244
C   C143      1.0  0.50150  0.40060  0.22070  1.0000 -0.2330427545
C   C144      1.0  0.41580  0.34060  0.15460  1.0000 0.2819837205
N   N1        1.0  0.05037  0.87180  0.15523  1.0000 -0.113405547
N   N2        1.0  0.03137  0.83601  0.06912  1.0000 -0.1950117576
N   N3        1.0  0.17949  0.90666  0.10947  1.0000 -0.3355150498
N   N4        1.0  0.21657  0.89514  0.34477  1.0000 -0.113405547
N   N5        1.0  0.26689  0.96225  0.43088  1.0000 -0.1950117576
N   N6        1.0  0.29719  0.07002  0.39053  1.0000 -0.3355150498
N   N7        1.0  0.44963  0.60486  0.82143  1.0000 -0.113405547
N   N8        1.0  0.46863  0.53775  0.80464  1.0000 -0.1950117576
N   N9        1.0  0.32051  0.42998  0.72717  1.0000 -0.3355150498
N   N10       1.0  0.28343  0.62820  0.67857  1.0000 -0.113405547
N   N11       1.0  0.23311  0.66399  0.69536  1.0000 -0.1950117576
N   N12       1.0  0.20281  0.59334  0.77283  1.0000 -0.3355150498
N   N13       1.0  0.62820  0.67857  0.28343  1.0000 -0.113405547
N   N14       1.0  0.66399  0.69536  0.23311  1.0000 -0.1950117576
N   N15       1.0  0.59334  0.77283  0.20281  1.0000 -0.3355150498
N   N16       1.0  0.60486  0.82143  0.44963  1.0000 -0.113405547
N   N17       1.0  0.53775  0.80464  0.46863  1.0000 -0.1919018757
N   N18       1.0  0.42998  0.72717  0.32051  1.0000 -0.3355150498
N   N19       1.0  0.89514  0.34477  0.21657  1.0000 -0.113405547
N   N20       1.0  0.96225  0.43088  0.26689  1.0000 -0.1919018757
N   N21       1.0  0.07002  0.39053  0.29719  1.0000 -0.3355150498
N   N22       1.0  0.87180  0.15523  0.05037  1.0000 -0.113405547
N   N23       1.0  0.83601  0.06912  0.03137  1.0000 -0.1950117576
N   N24       1.0  0.90666  0.10947  0.17949  1.0000 -0.3355150498
N   N25       1.0  0.82143  0.44963  0.60486  1.0000 -0.113405547
N   N26       1.0  0.80464  0.46863  0.53775  1.0000 -0.1950117576
N   N27       1.0  0.72717  0.32051  0.42998  1.0000 -0.3355150498
N   N28       1.0  0.67857  0.28343  0.62820  1.0000 -0.113405547
N   N29       1.0  0.69536  0.23311  0.66399  1.0000 -0.1950117576
N   N30       1.0  0.77283  0.20281  0.59334  1.0000 -0.3355150498
N   N31       1.0  0.15523  0.05037  0.87180  1.0000 -0.113405547
N   N32       1.0  0.06912  0.03137  0.83601  1.0000 -0.1950117576
N   N33       1.0  0.10947  0.17949  0.90666  1.0000 -0.3355150498
N   N34       1.0  0.34477  0.21657  0.89514  1.0000 -0.113405547
N   N35       1.0  0.43088  0.26689  0.96225  1.0000 -0.1950117576
N   N36       1.0  0.39053  0.29719  0.07002  1.0000 -0.3355150498
N   N37       1.0  1.00000  0.95440  0.50000  1.0000 -0.1574865768
N   N38       1.0  0.95440  0.50000  0.00000  1.0000 -0.1574865768
N   N39       1.0  0.50000  1.00000  0.95440  1.0000 -0.1574865768
N   N40       1.0  0.54560  0.54560  0.54560  1.0000 -0.1574865768
Cl  Cl1       1.0  0.34753  0.98827  0.16888  1.0000 -0.113405547
Cl  Cl2       1.0  0.31939  0.17865  0.33112  1.0000 -0.113405547
Cl  Cl3       1.0  0.15247  0.32135  0.64074  1.0000 -0.113405547
Cl  Cl4       1.0  0.18061  0.51173  0.85926  1.0000 -0.113405547
Cl  Cl5       1.0  0.51173  0.85926  0.18061  1.0000 -0.113405547
Cl  Cl6       1.0  0.32135  0.64074  0.15247  1.0000 -0.113405547
Cl  Cl7       1.0  0.17865  0.33112  0.31939  1.0000 -0.113405547
Cl  Cl8       1.0  0.98827  0.16888  0.34753  1.0000 -0.113405547
Cl  Cl9       1.0  0.64074  0.15247  0.32135  1.0000 -0.113405547
Cl  Cl10      1.0  0.85926  0.18061  0.51173  1.0000 -0.113405547
Cl  Cl11      1.0  0.16888  0.34753  0.98827  1.0000 -0.113405547
Cl  Cl12      1.0  0.33112  0.31939  0.17865  1.0000 -0.113405547
Cl  Cl13      1.0  0.81183  0.56183  0.25000  1.0000 1.2645077778
Cl  Cl14      1.0  0.68817  0.93817  0.75000  1.0000 1.2645077778
Cl  Cl15      1.0  0.75000  0.68817  0.93817  1.0000 1.2645077778
Cl  Cl16      1.0  0.25000  0.81183  0.56183  1.0000 1.2645077778
Cl  Cl17      1.0  0.93817  0.75000  0.68817  1.0000 1.2645077778
Cl  Cl18      1.0  0.56183  0.25000  0.81183  1.0000 1.2645077778
O   O1        1.0  0.79754  0.57307  0.32301  1.0000 -0.5027342962
O   O2        1.0  0.89894  0.57498  0.27584  1.0000 -0.5027342962
O   O3        1.0  0.75006  0.47453  0.17699  1.0000 -0.5027342962
O   O4        1.0  0.79914  0.62310  0.22416  1.0000 -0.5027342962
O   O5        1.0  0.70246  0.02547  0.77553  1.0000 -0.5027342962
O   O6        1.0  0.60106  0.87690  0.67604  1.0000 -0.5027342962
O   O7        1.0  0.74994  0.92693  0.72447  1.0000 -0.5027342962
O   O8        1.0  0.70086  0.92502  0.82396  1.0000 -0.5027342962
O   O9        1.0  0.77553  0.70246  0.02547  1.0000 -0.5027342962
O   O10       1.0  0.67604  0.60106  0.87690  1.0000 -0.5027342962
O   O11       1.0  0.72447  0.74994  0.92693  1.0000 -0.5027342962
O   O12       1.0  0.82396  0.70086  0.92502  1.0000 -0.5027342962
O   O13       1.0  0.32301  0.79754  0.57307  1.0000 -0.5027342962
O   O14       1.0  0.27584  0.89894  0.57498  1.0000 -0.5027342962
O   O15       1.0  0.17699  0.75006  0.47453  1.0000 -0.5027342962
O   O16       1.0  0.22416  0.79914  0.62310  1.0000 -0.5027342962
O   O17       1.0  0.92693  0.72447  0.74994  1.0000 -0.5027342962
O   O18       1.0  0.92502  0.82396  0.70086  1.0000 -0.5027342962
O   O19       1.0  0.02547  0.77553  0.70246  1.0000 -0.5027342962
O   O20       1.0  0.87690  0.67604  0.60106  1.0000 -0.5027342962
O   O21       1.0  0.47453  0.17699  0.75006  1.0000 -0.5027342962
O   O22       1.0  0.62310  0.22416  0.79914  1.0000 -0.5027342962
O   O23       1.0  0.57307  0.32301  0.79754  1.0000 -0.5027342962
O   O24       1.0  0.57498  0.27584  0.89894  1.0000 -0.5027342962
