# DDEC6 charges by PACMAN v1.1 (https://github.com/mtap-research/PACMAN-charge/)
data_2017[Ag][srs]3[ION]39
_chemical_formula_sum              "Ag6 H120 C144 N40 Cl6 O24"
_cell_length_a       18.451
_cell_length_b       18.451
_cell_length_c       18.451
_cell_angle_alpha    109.471
_cell_angle_beta     109.471
_cell_angle_gamma    109.471

_symmetry_space_group_name_H-M    "P 1"
_symmetry_Int_Tables_number       1

loop_
  _symmetry_equiv_pos_as_xyz
  'x, y, z'

loop_
  _atom_site_type_symbol
  _atom_site_label
  _atom_site_symmetry_multiplicity
  _atom_site_fract_x
  _atom_site_fract_y
  _atom_site_fract_z
  _atom_site_occupancy
  _atom_site_charge
Ag  Ag1       1.0  0.95775  0.25000  0.20775  1.0000 0.2578543335
Ag  Ag2       1.0  0.54225  0.75000  0.29225  1.0000 0.2578543335
Ag  Ag3       1.0  0.20775  0.95775  0.25000  1.0000 0.2578543335
Ag  Ag4       1.0  0.29225  0.54225  0.75000  1.0000 0.2578543335
Ag  Ag5       1.0  0.25000  0.20775  0.95775  1.0000 0.2578543335
Ag  Ag6       1.0  0.75000  0.29225  0.54225  1.0000 0.2578543335
H   H1        1.0  0.03390  0.45420  0.10270  1.0000 0.1234528834
H   H2        1.0  0.98760  0.31940  0.09840  1.0000 0.1012714174
H   H3        1.0  0.75150  0.21840  0.88830  1.0000 0.125243476
H   H4        1.0  0.79250  0.35260  0.89490  1.0000 0.1234528834
H   H5        1.0  0.78180  0.11930  0.93430  1.0000 0.1101970109
H   H6        1.0  0.79720  0.91420  0.00920  1.0000 0.1529292822
H   H7        1.0  0.83310  0.87730  0.11920  1.0000 0.1101970109
H   H8        1.0  0.91490  0.99270  0.27180  1.0000 0.125243476
H   H9        1.0  0.96090  0.13620  0.30190  1.0000 0.1012714174
H   H10       1.0  0.79700  0.02570  0.97530  1.0000 0.2784816235
H   H11       1.0  0.85150  0.93120  0.39730  1.0000 0.1234528834
H   H12       1.0  0.72100  0.88920  0.40160  1.0000 0.1012714174
H   H13       1.0  0.83010  0.86320  0.61170  1.0000 0.125243476
H   H14       1.0  0.95770  0.89760  0.60510  1.0000 0.1234528834
H   H15       1.0  0.68500  0.84750  0.56570  1.0000 0.1101970109
H   H16       1.0  0.40500  0.78800  0.49080  1.0000 0.1529292822
H   H17       1.0  0.25810  0.71390  0.38080  1.0000 0.1101970109
H   H18       1.0  0.22090  0.64310  0.22820  1.0000 0.125243476
H   H19       1.0  0.33430  0.65900  0.19810  1.0000 0.1012714174
H   H20       1.0  0.55040  0.82170  0.52470  1.0000 0.2784816235
H   H21       1.0  0.64850  0.04580  0.07970  1.0000 0.1234528834
H   H22       1.0  0.77900  0.18060  0.16820  1.0000 0.1012714174
H   H23       1.0  0.66990  0.28160  0.03310  1.0000 0.125243476
H   H24       1.0  0.54230  0.14740  0.93990  1.0000 0.1234528834
H   H25       1.0  0.81500  0.38070  0.16250  1.0000 0.1101970109
H   H26       1.0  0.09500  0.58580  0.38300  1.0000 0.1529292822
H   H27       1.0  0.24190  0.62270  0.45580  1.0000 0.1101970109
H   H28       1.0  0.27910  0.50730  0.42220  1.0000 0.125243476
H   H29       1.0  0.16570  0.36380  0.32470  1.0000 0.1012714174
H   H30       1.0  0.94960  0.47430  0.27130  1.0000 0.2784816235
H   H31       1.0  0.46610  0.56880  0.42030  1.0000 0.1234528834
H   H32       1.0  0.51240  0.61080  0.33180  1.0000 0.1012714174
H   H33       1.0  0.74850  0.63680  0.46690  1.0000 0.125243476
H   H34       1.0  0.70750  0.60240  0.56010  1.0000 0.1234528834
H   H35       1.0  0.71820  0.65250  0.33750  1.0000 0.1101970109
H   H36       1.0  0.70280  0.71200  0.11700  1.0000 0.1529292822
H   H37       1.0  0.66690  0.78610  0.04420  1.0000 0.1101970109
H   H38       1.0  0.58510  0.85690  0.07780  1.0000 0.125243476
H   H39       1.0  0.53910  0.84100  0.17530  1.0000 0.1012714174
H   H40       1.0  0.70300  0.67830  0.22870  1.0000 0.2784816235
H   H41       1.0  0.10270  0.03390  0.45420  1.0000 0.1234528834
H   H42       1.0  0.09840  0.98760  0.31940  1.0000 0.1012714174
H   H43       1.0  0.88830  0.75150  0.21840  1.0000 0.125243476
H   H44       1.0  0.89490  0.79250  0.35260  1.0000 0.1234528834
H   H45       1.0  0.93430  0.78180  0.11930  1.0000 0.1101970109
H   H46       1.0  0.00920  0.79720  0.91420  1.0000 0.1529292822
H   H47       1.0  0.11920  0.83310  0.87730  1.0000 0.1101970109
H   H48       1.0  0.27180  0.91490  0.99270  1.0000 0.125243476
H   H49       1.0  0.30190  0.96090  0.13620  1.0000 0.1012714174
H   H50       1.0  0.97530  0.79700  0.02570  1.0000 0.2784816235
H   H51       1.0  0.39730  0.85150  0.93120  1.0000 0.1234528834
H   H52       1.0  0.40160  0.72100  0.88920  1.0000 0.1012714174
H   H53       1.0  0.61170  0.83010  0.86320  1.0000 0.125243476
H   H54       1.0  0.60510  0.95770  0.89760  1.0000 0.1234528834
H   H55       1.0  0.56570  0.68500  0.84750  1.0000 0.1101970109
H   H56       1.0  0.49080  0.40500  0.78800  1.0000 0.1529292822
H   H57       1.0  0.38080  0.25810  0.71390  1.0000 0.1101970109
H   H58       1.0  0.22820  0.22090  0.64310  1.0000 0.125243476
H   H59       1.0  0.19810  0.33430  0.65900  1.0000 0.1012714174
H   H60       1.0  0.52470  0.55040  0.82170  1.0000 0.2784816235
H   H61       1.0  0.07970  0.64850  0.04580  1.0000 0.1234528834
H   H62       1.0  0.16820  0.77900  0.18060  1.0000 0.1012714174
H   H63       1.0  0.03310  0.66990  0.28160  1.0000 0.125243476
H   H64       1.0  0.93990  0.54230  0.14740  1.0000 0.125243476
H   H65       1.0  0.16250  0.81500  0.38070  1.0000 0.1101970109
H   H66       1.0  0.38300  0.09500  0.58580  1.0000 0.1529292822
H   H67       1.0  0.45580  0.24190  0.62270  1.0000 0.1101970109
H   H68       1.0  0.42220  0.27910  0.50730  1.0000 0.125243476
H   H69       1.0  0.32470  0.16570  0.36380  1.0000 0.1012714174
H   H70       1.0  0.27130  0.94960  0.47430  1.0000 0.2784816235
H   H71       1.0  0.42030  0.46610  0.56880  1.0000 0.1234528834
H   H72       1.0  0.33180  0.51240  0.61080  1.0000 0.1012714174
H   H73       1.0  0.46690  0.74850  0.63680  1.0000 0.125243476
H   H74       1.0  0.56010  0.70750  0.60240  1.0000 0.1234528834
H   H75       1.0  0.33750  0.71820  0.65250  1.0000 0.1101970109
H   H76       1.0  0.11700  0.70280  0.71200  1.0000 0.1529292822
H   H77       1.0  0.04420  0.66690  0.78610  1.0000 0.1101970109
H   H78       1.0  0.07780  0.58510  0.85690  1.0000 0.125243476
H   H79       1.0  0.17530  0.53910  0.84100  1.0000 0.1012714174
H   H80       1.0  0.22870  0.70300  0.67830  1.0000 0.2784816235
H   H81       1.0  0.45420  0.10270  0.03390  1.0000 0.1234528834
H   H82       1.0  0.31940  0.09840  0.98760  1.0000 0.1012714174
H   H83       1.0  0.21840  0.88830  0.75150  1.0000 0.125243476
H   H84       1.0  0.35260  0.89490  0.79250  1.0000 0.1234528834
H   H85       1.0  0.11930  0.93430  0.78180  1.0000 0.1101970109
H   H86       1.0  0.91420  0.00920  0.79720  1.0000 0.1529292822
H   H87       1.0  0.87730  0.11920  0.83310  1.0000 0.1101970109
H   H88       1.0  0.99270  0.27180  0.91490  1.0000 0.125243476
H   H89       1.0  0.13620  0.30190  0.96090  1.0000 0.1012714174
H   H90       1.0  0.02570  0.97530  0.79700  1.0000 0.2784816235
H   H91       1.0  0.93120  0.39730  0.85150  1.0000 0.1234528834
H   H92       1.0  0.88920  0.40160  0.72100  1.0000 0.1012714174
H   H93       1.0  0.86320  0.61170  0.83010  1.0000 0.125243476
H   H94       1.0  0.89760  0.60510  0.95770  1.0000 0.125243476
H   H95       1.0  0.84750  0.56570  0.68500  1.0000 0.1101970109
H   H96       1.0  0.78800  0.49080  0.40500  1.0000 0.1529292822
H   H97       1.0  0.71390  0.38080  0.25810  1.0000 0.1101970109
H   H98       1.0  0.64310  0.22820  0.22090  1.0000 0.125243476
H   H99       1.0  0.65900  0.19810  0.33430  1.0000 0.1012714174
H   H100      1.0  0.82170  0.52470  0.55040  1.0000 0.2784816235
H   H101      1.0  0.04580  0.07970  0.64850  1.0000 0.1234528834
H   H102      1.0  0.18060  0.16820  0.77900  1.0000 0.1012714174
H   H103      1.0  0.28160  0.03310  0.66990  1.0000 0.125243476
H   H104      1.0  0.14740  0.93990  0.54230  1.0000 0.1234528834
H   H105      1.0  0.38070  0.16250  0.81500  1.0000 0.1101970109
H   H106      1.0  0.58580  0.38300  0.09500  1.0000 0.1529292822
H   H107      1.0  0.62270  0.45580  0.24190  1.0000 0.1101970109
H   H108      1.0  0.50730  0.42220  0.27910  1.0000 0.125243476
H   H109      1.0  0.36380  0.32470  0.16570  1.0000 0.1012714174
H   H110      1.0  0.47430  0.27130  0.94960  1.0000 0.2784816235
H   H111      1.0  0.56880  0.42030  0.46610  1.0000 0.1234528834
H   H112      1.0  0.61080  0.33180  0.51240  1.0000 0.1012714174
H   H113      1.0  0.63680  0.46690  0.74850  1.0000 0.125243476
H   H114      1.0  0.60240  0.56010  0.70750  1.0000 0.1234528834
H   H115      1.0  0.65250  0.33750  0.71820  1.0000 0.1101970109
H   H116      1.0  0.71200  0.11700  0.70280  1.0000 0.1529292822
H   H117      1.0  0.78610  0.04420  0.66690  1.0000 0.1101970109
H   H118      1.0  0.85690  0.07780  0.58510  1.0000 0.125243476
H   H119      1.0  0.84100  0.17530  0.53910  1.0000 0.1012714174
H   H120      1.0  0.67830  0.22870  0.70300  1.0000 0.2784816235
C   C1        1.0  0.91820  0.41850  0.99750  1.0000 0.1785952446
C   C2        1.0  0.97620  0.40680  0.05940  1.0000 -0.2066600011
C   C3        1.0  0.94860  0.32610  0.05650  1.0000 -0.138054812
C   C4        1.0  0.86520  0.25570  0.99350  1.0000 0.05896459
C   C5        1.0  0.80840  0.26680  0.93260  1.0000 -0.118231267
C   C6        1.0  0.83340  0.34630  0.93550  1.0000 -0.184002242
C   C7        1.0  0.83290  0.16790  0.98680  1.0000 -0.019525969
C   C8        1.0  0.85860  0.04800  0.09400  1.0000 0.3337821225
C   C9        1.0  0.83010  0.95830  0.06940  1.0000 -0.2306374065
C   C10       1.0  0.85100  0.93670  0.13410  1.0000 -0.0132805038
C   C11       1.0  0.90090  0.00570  0.22560  1.0000 -0.1945706249
C   C12       1.0  0.92670  0.09020  0.24230  1.0000 0.05896459
C   C13       1.0  0.92100  0.92070  0.50250  1.0000 0.1785952446
C   C14       1.0  0.84740  0.91680  0.44060  1.0000 -0.2035336472
C   C15       1.0  0.76960  0.89210  0.44350  1.0000 -0.138054812
C   C16       1.0  0.76220  0.87170  0.50650  1.0000 0.05896459
C   C17       1.0  0.83420  0.87580  0.56740  1.0000 -0.118231267
C   C18       1.0  0.91080  0.89790  0.56450  1.0000 -0.184002242
C   C19       1.0  0.68110  0.84610  0.51320  1.0000 -0.019525969
C   C20       1.0  0.45400  0.76460  0.40600  1.0000 0.3337821225
C   C21       1.0  0.38890  0.76070  0.43060  1.0000 -0.2306374065
C   C22       1.0  0.30260  0.71690  0.36590  1.0000 -0.0132805038
C   C23       1.0  0.28010  0.67530  0.27440  1.0000 -0.1945706249
C   C24       1.0  0.34790  0.68440  0.25770  1.0000 0.05896459
C   C25       1.0  0.57900  0.08150  0.99970  1.0000 0.1785952446
C   C26       1.0  0.65260  0.09320  0.06940  1.0000 -0.2035336472
C   C27       1.0  0.73040  0.17390  0.12250  1.0000 -0.138054812
C   C28       1.0  0.73780  0.24430  0.10950  1.0000 0.05896459
C   C29       1.0  0.66580  0.23320  0.04160  1.0000 -0.118231267
C   C30       1.0  0.58920  0.15370  0.98710  1.0000 -0.184002242
C   C31       1.0  0.81890  0.33210  0.16500  1.0000 -0.019525969
C   C32       1.0  0.04600  0.45200  0.31060  1.0000 0.3337821225
C   C33       1.0  0.11110  0.54170  0.37180  1.0000 -0.2306374065
C   C34       1.0  0.19740  0.56330  0.41430  1.0000 -0.0132805038
C   C35       1.0  0.21990  0.49430  0.39520  1.0000 -0.1945706249
C   C36       1.0  0.15210  0.40980  0.33650  1.0000 0.05896459
C   C37       1.0  0.58180  0.57930  0.50030  1.0000 0.1785952446
C   C38       1.0  0.52380  0.58320  0.43060  1.0000 -0.2035336472
C   C39       1.0  0.55140  0.60790  0.37750  1.0000 -0.138054812
C   C40       1.0  0.63480  0.62830  0.39050  1.0000 0.05896459
C   C41       1.0  0.69160  0.62420  0.45840  1.0000 -0.118231267
C   C42       1.0  0.66667  0.60210  0.51290  1.0000 -0.184002242
C   C43       1.0  0.66710  0.65390  0.33500  1.0000 -0.019525969
C   C44       1.0  0.64140  0.73540  0.18940  1.0000 0.3337821225
C   C45       1.0  0.66990  0.73930  0.12820  1.0000 -0.2306374065
C   C46       1.0  0.64900  0.78310  0.08570  1.0000 -0.0132805038
C   C47       1.0  0.59910  0.82470  0.10480  1.0000 -0.1945706249
C   C48       1.0  0.57330  0.81560  0.16350  1.0000 0.05896459
C   C49       1.0  0.99750  0.91820  0.41850  1.0000 0.1785952446
C   C50       1.0  0.05940  0.97620  0.40680  1.0000 -0.2035336472
C   C51       1.0  0.05650  0.94860  0.32610  1.0000 -0.138054812
C   C52       1.0  0.99350  0.86520  0.25570  1.0000 0.05896459
C   C53       1.0  0.93260  0.80840  0.26680  1.0000 -0.118231267
C   C54       1.0  0.93550  0.83340  0.34630  1.0000 -0.184002242
C   C55       1.0  0.98680  0.83290  0.16790  1.0000 -0.019525969
C   C56       1.0  0.09400  0.85860  0.04800  1.0000 0.3337821225
C   C57       1.0  0.06940  0.83010  0.95830  1.0000 -0.2306374065
C   C58       1.0  0.13410  0.85100  0.93670  1.0000 -0.0132805038
C   C59       1.0  0.22560  0.90090  0.00570  1.0000 -0.1945706249
C   C60       1.0  0.24230  0.92670  0.09020  1.0000 0.05896459
C   C61       1.0  0.50250  0.92100  0.92070  1.0000 0.1785952446
C   C62       1.0  0.44060  0.84740  0.91680  1.0000 -0.2035336472
C   C63       1.0  0.44350  0.76960  0.89210  1.0000 -0.138054812
C   C64       1.0  0.50650  0.76220  0.87170  1.0000 0.05896459
C   C65       1.0  0.56740  0.83420  0.87580  1.0000 -0.118231267
C   C66       1.0  0.56450  0.91080  0.89790  1.0000 -0.184002242
C   C67       1.0  0.51320  0.68110  0.84610  1.0000 -0.019525969
C   C68       1.0  0.40600  0.45400  0.76460  1.0000 0.3337821225
C   C69       1.0  0.43060  0.38890  0.76070  1.0000 -0.2306374065
C   C70       1.0  0.36590  0.30260  0.71690  1.0000 -0.0132805038
C   C71       1.0  0.27440  0.28010  0.67530  1.0000 -0.1945706249
C   C72       1.0  0.25770  0.34790  0.68440  1.0000 0.05896459
C   C73       1.0  0.99970  0.57900  0.08150  1.0000 0.1785952446
C   C74       1.0  0.06940  0.65260  0.09320  1.0000 -0.2035336472
C   C75       1.0  0.12250  0.73040  0.17390  1.0000 -0.138054812
C   C76       1.0  0.10950  0.73780  0.24430  1.0000 0.05896459
C   C77       1.0  0.04160  0.66580  0.23320  1.0000 -0.118231267
C   C78       1.0  0.98710  0.58920  0.15370  1.0000 -0.184002242
C   C79       1.0  0.16500  0.81890  0.33210  1.0000 -0.019525969
C   C80       1.0  0.31060  0.04600  0.45200  1.0000 0.3337821225
C   C81       1.0  0.37180  0.11110  0.54170  1.0000 -0.2306374065
C   C82       1.0  0.41430  0.19740  0.56330  1.0000 -0.0132805038
C   C83       1.0  0.39520  0.21990  0.49430  1.0000 -0.1945706249
C   C84       1.0  0.33650  0.15210  0.40980  1.0000 0.05896459
C   C85       1.0  0.50030  0.58180  0.57930  1.0000 0.1785952446
C   C86       1.0  0.43060  0.52380  0.58320  1.0000 -0.2035336472
C   C87       1.0  0.37750  0.55140  0.60790  1.0000 -0.138054812
C   C88       1.0  0.39050  0.63480  0.62830  1.0000 0.05896459
C   C89       1.0  0.45840  0.69160  0.62420  1.0000 -0.118231267
C   C90       1.0  0.51290  0.66667  0.60210  1.0000 -0.184002242
C   C91       1.0  0.33500  0.66710  0.65390  1.0000 -0.019525969
C   C92       1.0  0.18940  0.64140  0.73540  1.0000 0.3337821225
C   C93       1.0  0.12820  0.66990  0.73930  1.0000 -0.2306374065
C   C94       1.0  0.08570  0.64900  0.78310  1.0000 -0.0132805038
C   C95       1.0  0.10480  0.59910  0.82470  1.0000 -0.1945706249
C   C96       1.0  0.16350  0.57330  0.81560  1.0000 0.05896459
C   C97       1.0  0.41850  0.99750  0.91820  1.0000 0.1785952446
C   C98       1.0  0.40680  0.05940  0.97620  1.0000 -0.2035336472
C   C99       1.0  0.32610  0.05650  0.94860  1.0000 -0.138054812
C   C100      1.0  0.25570  0.99350  0.86520  1.0000 0.05896459
C   C101      1.0  0.26680  0.93260  0.80840  1.0000 -0.118231267
C   C102      1.0  0.34630  0.93550  0.83340  1.0000 -0.184002242
C   C103      1.0  0.16790  0.98680  0.83290  1.0000 -0.019525969
C   C104      1.0  0.04800  0.09400  0.85860  1.0000 0.3337821225
C   C105      1.0  0.95830  0.06940  0.83010  1.0000 -0.2306374065
C   C106      1.0  0.93670  0.13410  0.85100  1.0000 -0.0132805038
C   C107      1.0  0.00570  0.22560  0.90090  1.0000 -0.2035336472
C   C108      1.0  0.09020  0.24230  0.92670  1.0000 0.05896459
C   C109      1.0  0.92070  0.50250  0.92100  1.0000 0.1785952446
C   C110      1.0  0.91680  0.44060  0.84740  1.0000 -0.2035336472
C   C111      1.0  0.89210  0.44350  0.76960  1.0000 -0.138054812
C   C112      1.0  0.87170  0.50650  0.76220  1.0000 0.05896459
C   C113      1.0  0.87580  0.56740  0.83420  1.0000 -0.118231267
C   C114      1.0  0.89790  0.56450  0.91080  1.0000 -0.184002242
C   C115      1.0  0.84610  0.51320  0.68110  1.0000 -0.019525969
C   C116      1.0  0.76460  0.40600  0.45400  1.0000 0.3337821225
C   C117      1.0  0.76070  0.43060  0.38890  1.0000 -0.2306374065
C   C118      1.0  0.71690  0.36590  0.30260  1.0000 -0.0132805038
C   C119      1.0  0.67530  0.27440  0.28010  1.0000 -0.1945706249
C   C120      1.0  0.68440  0.25770  0.34790  1.0000 0.05896459
C   C121      1.0  0.08150  0.99970  0.57900  1.0000 0.1785952446
C   C122      1.0  0.09320  0.06940  0.65260  1.0000 -0.2035336472
C   C123      1.0  0.17390  0.12250  0.73040  1.0000 -0.138054812
C   C124      1.0  0.24430  0.10950  0.73780  1.0000 0.05896459
C   C125      1.0  0.23320  0.04160  0.66580  1.0000 -0.118231267
C   C126      1.0  0.15370  0.98710  0.58920  1.0000 -0.184002242
C   C127      1.0  0.33210  0.16500  0.81890  1.0000 -0.019525969
C   C128      1.0  0.45200  0.31060  0.04600  1.0000 0.3337821225
C   C129      1.0  0.54170  0.37180  0.11110  1.0000 -0.2306374065
C   C130      1.0  0.56330  0.41430  0.19740  1.0000 -0.0132805038
C   C131      1.0  0.49430  0.39520  0.21990  1.0000 -0.1945706249
C   C132      1.0  0.40980  0.33650  0.15210  1.0000 0.05896459
C   C133      1.0  0.57930  0.50030  0.58180  1.0000 0.1785952446
C   C134      1.0  0.58320  0.43060  0.52380  1.0000 -0.2035336472
C   C135      1.0  0.60790  0.37750  0.55140  1.0000 -0.138054812
C   C136      1.0  0.62830  0.39050  0.63480  1.0000 0.05896459
C   C137      1.0  0.62420  0.45840  0.69160  1.0000 -0.118231267
C   C138      1.0  0.60210  0.51290  0.66667  1.0000 -0.184002242
C   C139      1.0  0.65390  0.33500  0.66710  1.0000 -0.019525969
C   C140      1.0  0.73540  0.18940  0.64140  1.0000 0.3337821225
C   C141      1.0  0.73930  0.12820  0.66990  1.0000 -0.2306374065
C   C142      1.0  0.78310  0.08570  0.64900  1.0000 -0.0132805038
C   C143      1.0  0.82470  0.10480  0.59910  1.0000 -0.1945706249
C   C144      1.0  0.81560  0.16350  0.57330  1.0000 0.05896459
N   N1        1.0  0.87040  0.15480  0.04800  1.0000 -0.1265112468
N   N2        1.0  0.83520  0.06820  0.02980  1.0000 -0.2066600011
N   N3        1.0  0.90610  0.11180  0.17870  1.0000 -0.2706408292
N   N4        1.0  0.60680  0.82240  0.45200  1.0000 -0.1265112468
N   N5        1.0  0.53840  0.80540  0.47020  1.0000 -0.2066600011
N   N6        1.0  0.43310  0.72740  0.32130  1.0000 -0.2706408292
N   N7        1.0  0.89320  0.34520  0.21560  1.0000 -0.1265112468
N   N8        1.0  0.96160  0.43180  0.26700  1.0000 -0.2066600011
N   N9        1.0  0.06690  0.38820  0.29430  1.0000 -0.2706408292
N   N10       1.0  0.62960  0.67760  0.28440  1.0000 -0.1265112468
N   N11       1.0  0.66480  0.69460  0.23300  1.0000 -0.2066600011
N   N12       1.0  0.59390  0.77260  0.20570  1.0000 -0.2706408292
N   N13       1.0  0.04800  0.87040  0.15480  1.0000 -0.1265112468
N   N14       1.0  0.02980  0.83520  0.06820  1.0000 -0.2066600011
N   N15       1.0  0.17870  0.90610  0.11180  1.0000 -0.2706408292
N   N16       1.0  0.45200  0.60680  0.82240  1.0000 -0.1265112468
N   N17       1.0  0.47020  0.53840  0.80540  1.0000 -0.2066600011
N   N18       1.0  0.32130  0.43310  0.72740  1.0000 -0.2706408292
N   N19       1.0  0.21560  0.89320  0.34520  1.0000 -0.1265112468
N   N20       1.0  0.26700  0.96160  0.43180  1.0000 -0.2066600011
N   N21       1.0  0.29430  0.06690  0.38820  1.0000 -0.2706408292
N   N22       1.0  0.28440  0.62960  0.67760  1.0000 -0.1265112468
N   N23       1.0  0.23300  0.66480  0.69460  1.0000 -0.2066600011
N   N24       1.0  0.20570  0.59390  0.77260  1.0000 -0.2706408292
N   N25       1.0  0.15480  0.04800  0.87040  1.0000 -0.1265112468
N   N26       1.0  0.06820  0.02980  0.83520  1.0000 -0.2066600011
N   N27       1.0  0.11180  0.17870  0.90610  1.0000 -0.2706408292
N   N28       1.0  0.82240  0.45200  0.60680  1.0000 -0.1265112468
N   N29       1.0  0.80540  0.47020  0.53840  1.0000 -0.2066600011
N   N30       1.0  0.72740  0.32130  0.43310  1.0000 -0.2706408292
N   N31       1.0  0.34520  0.21560  0.89320  1.0000 -0.1265112468
N   N32       1.0  0.43180  0.26700  0.96160  1.0000 -0.2066600011
N   N33       1.0  0.38820  0.29430  0.06690  1.0000 -0.2706408292
N   N34       1.0  0.67760  0.28440  0.62960  1.0000 -0.1265112468
N   N35       1.0  0.69460  0.23300  0.66480  1.0000 -0.2066600011
N   N36       1.0  0.77260  0.20570  0.59390  1.0000 -0.2706408292
N   N37       1.0  0.94500  0.50000  0.00000  1.0000 -0.1607524916
N   N38       1.0  0.00000  0.94500  0.50000  1.0000 -0.1607524916
N   N39       1.0  0.50000  1.00000  0.94500  1.0000 -0.1607524916
N   N40       1.0  0.55500  0.55500  0.55500  1.0000 -0.1607524916
Cl  Cl1       1.0  0.55941  0.25000  0.80941  1.0000 1.2510363966
Cl  Cl2       1.0  0.94059  0.75000  0.69059  1.0000 1.2510363966
Cl  Cl3       1.0  0.25000  0.80941  0.55941  1.0000 1.2510363966
Cl  Cl4       1.0  0.75000  0.69059  0.94059  1.0000 1.2510363966
Cl  Cl5       1.0  0.80941  0.55941  0.25000  1.0000 1.2510363966
Cl  Cl6       1.0  0.69059  0.94059  0.75000  1.0000 1.2510363966
O   O1        1.0  0.57150  0.32330  0.79720  1.0000 -0.488275332
O   O2        1.0  0.62110  0.22670  0.79740  1.0000 -0.488275332
O   O3        1.0  0.47390  0.17670  0.74820  1.0000 -0.488275332
O   O4        1.0  0.57070  0.27330  0.89440  1.0000 -0.488275332
O   O5        1.0  0.92850  0.72570  0.75180  1.0000 -0.488275332
O   O6        1.0  0.87890  0.67630  0.60560  1.0000 -0.488275332
O   O7        1.0  0.02610  0.77430  0.70280  1.0000 -0.488275332
O   O8        1.0  0.92930  0.82370  0.70260  1.0000 -0.488275332
O   O9        1.0  0.32330  0.79720  0.57150  1.0000 -0.488275332
O   O10       1.0  0.22670  0.79740  0.62110  1.0000 -0.488275332
O   O11       1.0  0.17670  0.74820  0.47390  1.0000 -0.488275332
O   O12       1.0  0.27330  0.89440  0.57070  1.0000 -0.488275332
O   O13       1.0  0.72570  0.75180  0.92850  1.0000 -0.488275332
O   O14       1.0  0.67630  0.60560  0.87890  1.0000 -0.488275332
O   O15       1.0  0.77430  0.70280  0.02610  1.0000 -0.488275332
O   O16       1.0  0.82370  0.70260  0.92930  1.0000 -0.488275332
O   O17       1.0  0.79720  0.57150  0.32330  1.0000 -0.488275332
O   O18       1.0  0.79740  0.62110  0.22670  1.0000 -0.488275332
O   O19       1.0  0.74820  0.47390  0.17670  1.0000 -0.488275332
O   O20       1.0  0.89440  0.57070  0.27330  1.0000 -0.488275332
O   O21       1.0  0.75180  0.92850  0.72570  1.0000 -0.488275332
O   O22       1.0  0.60560  0.87890  0.67630  1.0000 -0.488275332
O   O23       1.0  0.70280  0.02610  0.77430  1.0000 -0.488275332
O   O24       1.0  0.70260  0.92930  0.82370  1.0000 -0.488275332
