# DDEC6 charges by PACMAN v1.1 (https://github.com/mtap-research/PACMAN-charge/)
data_2017[Ag][srs]3[ION]13
_chemical_formula_sum              "Ag6 H108 C144 Br12 N40 Cl6 O24"
_cell_length_a       18.4328
_cell_length_b       18.4328
_cell_length_c       18.4328
_cell_angle_alpha    109.471
_cell_angle_beta     109.471
_cell_angle_gamma    109.471

_symmetry_space_group_name_H-M    "P 1"
_symmetry_Int_Tables_number       1

loop_
  _symmetry_equiv_pos_as_xyz
  'x, y, z'

loop_
  _atom_site_type_symbol
  _atom_site_label
  _atom_site_symmetry_multiplicity
  _atom_site_fract_x
  _atom_site_fract_y
  _atom_site_fract_z
  _atom_site_occupancy
  _atom_site_charge
Ag  Ag1       1.0  0.75000  0.28712  0.53712  1.0000 0.3005105403
Ag  Ag2       1.0  0.25000  0.21288  0.96288  1.0000 0.3005105403
Ag  Ag3       1.0  0.21288  0.96288  0.25000  1.0000 0.3005105403
Ag  Ag4       1.0  0.28712  0.53712  0.75000  1.0000 0.3005105403
Ag  Ag5       1.0  0.53712  0.75000  0.28712  1.0000 0.3005105403
Ag  Ag6       1.0  0.96288  0.25000  0.21288  1.0000 0.3005105403
H   H1        1.0  0.59240  0.55120  0.69640  1.0000 0.128936472
H   H2        1.0  0.63400  0.46330  0.74230  1.0000 0.128936472
H   H3        1.0  0.60810  0.32590  0.50580  1.0000 0.1109231745
H   H4        1.0  0.56150  0.41170  0.45720  1.0000 0.128936472
H   H5        1.0  0.65290  0.33650  0.71520  1.0000 0.1172238858
H   H6        1.0  0.71120  0.11510  0.70390  1.0000 0.157130482
H   H7        1.0  0.78610  0.04270  0.67000  1.0000 0.1109231745
H   H8        1.0  0.85570  0.07120  0.58970  1.0000 0.128936472
H   H9        1.0  0.68230  0.23220  0.70550  1.0000 0.2845958195
H   H10       1.0  0.35480  0.89600  0.80360  1.0000 0.128936472
H   H11       1.0  0.22100  0.89170  0.75770  1.0000 0.128936472
H   H12       1.0  0.32010  0.10230  0.99420  1.0000 0.1109231745
H   H13       1.0  0.45450  0.10430  0.04280  1.0000 0.128936472
H   H14       1.0  0.12130  0.93770  0.78480  1.0000 0.1172238858
H   H15       1.0  0.91120  0.00730  0.79610  1.0000 0.157130482
H   H16       1.0  0.87270  0.11610  0.83000  1.0000 0.1109231745
H   H17       1.0  0.98150  0.26600  0.91030  1.0000 0.128936472
H   H18       1.0  0.02670  0.97680  0.79450  1.0000 0.2845958195
H   H19       1.0  0.90760  0.60400  0.95880  1.0000 0.128936472
H   H20       1.0  0.86600  0.60830  0.82930  1.0000 0.128936472
H   H21       1.0  0.89190  0.39770  0.71780  1.0000 0.1109231745
H   H22       1.0  0.93850  0.39570  0.85020  1.0000 0.128936472
H   H23       1.0  0.84710  0.56230  0.68360  1.0000 0.1172238858
H   H24       1.0  0.78880  0.49270  0.40390  1.0000 0.157130482
H   H25       1.0  0.71390  0.38390  0.25660  1.0000 0.1109231745
H   H26       1.0  0.64430  0.23400  0.21550  1.0000 0.128936472
H   H27       1.0  0.81770  0.52320  0.54990  1.0000 0.2845958195
H   H28       1.0  0.14520  0.94880  0.54120  1.0000 0.128936472
H   H29       1.0  0.27900  0.03670  0.67070  1.0000 0.128936472
H   H30       1.0  0.17990  0.17410  0.78220  1.0000 0.1109231745
H   H31       1.0  0.04550  0.08830  0.64980  1.0000 0.128936472
H   H32       1.0  0.37870  0.16350  0.81640  1.0000 0.1172238858
H   H33       1.0  0.58880  0.38490  0.09610  1.0000 0.157130482
H   H34       1.0  0.62730  0.45730  0.24340  1.0000 0.1109231745
H   H35       1.0  0.51850  0.42880  0.28450  1.0000 0.128936472
H   H36       1.0  0.47330  0.26780  0.95010  1.0000 0.2845958195
H   H37       1.0  0.94880  0.54120  0.14520  1.0000 0.128936472
H   H38       1.0  0.03670  0.67070  0.27900  1.0000 0.128936472
H   H39       1.0  0.17410  0.78220  0.17990  1.0000 0.1109231745
H   H40       1.0  0.08830  0.64980  0.04550  1.0000 0.128936472
H   H41       1.0  0.16350  0.81640  0.37870  1.0000 0.1172238858
H   H42       1.0  0.38490  0.09610  0.58880  1.0000 0.157130482
H   H43       1.0  0.45730  0.24340  0.62730  1.0000 0.1109231745
H   H44       1.0  0.42880  0.28450  0.51850  1.0000 0.128936472
H   H45       1.0  0.26780  0.95010  0.47330  1.0000 0.2845958195
H   H46       1.0  0.60400  0.95880  0.90760  1.0000 0.128936472
H   H47       1.0  0.60830  0.82930  0.86600  1.0000 0.128936472
H   H48       1.0  0.39770  0.71780  0.89190  1.0000 0.1109231745
H   H49       1.0  0.39570  0.85020  0.93850  1.0000 0.128936472
H   H50       1.0  0.56230  0.68360  0.84710  1.0000 0.1172238858
H   H51       1.0  0.49270  0.40390  0.78880  1.0000 0.157130482
H   H52       1.0  0.38390  0.25660  0.71390  1.0000 0.1109231745
H   H53       1.0  0.23400  0.21550  0.64430  1.0000 0.128936472
H   H54       1.0  0.52320  0.54990  0.81770  1.0000 0.2845958195
H   H55       1.0  0.89600  0.80360  0.35480  1.0000 0.128936472
H   H56       1.0  0.89170  0.75770  0.22100  1.0000 0.128936472
H   H57       1.0  0.10230  0.99420  0.32010  1.0000 0.1109231745
H   H58       1.0  0.10430  0.04280  0.45450  1.0000 0.128936472
H   H59       1.0  0.93770  0.78480  0.12130  1.0000 0.1172238858
H   H60       1.0  0.00730  0.79610  0.91120  1.0000 0.157130482
H   H61       1.0  0.11610  0.83000  0.87270  1.0000 0.1109231745
H   H62       1.0  0.26600  0.91030  0.98150  1.0000 0.128936472
H   H63       1.0  0.97680  0.79450  0.02670  1.0000 0.2845958195
H   H64       1.0  0.55120  0.69640  0.59240  1.0000 0.128936472
H   H65       1.0  0.46330  0.74230  0.63400  1.0000 0.128936472
H   H66       1.0  0.32590  0.50580  0.60810  1.0000 0.1109231745
H   H67       1.0  0.41170  0.45720  0.56150  1.0000 0.128936472
H   H68       1.0  0.33650  0.71520  0.65290  1.0000 0.1172238858
H   H69       1.0  0.11510  0.70390  0.71120  1.0000 0.157130482
H   H70       1.0  0.04270  0.67000  0.78610  1.0000 0.1109231745
H   H71       1.0  0.07120  0.58970  0.85570  1.0000 0.128936472
H   H72       1.0  0.23220  0.70550  0.68230  1.0000 0.2845958195
H   H73       1.0  0.95880  0.90760  0.60400  1.0000 0.128936472
H   H74       1.0  0.82930  0.86600  0.60830  1.0000 0.128936472
H   H75       1.0  0.71780  0.89190  0.39770  1.0000 0.1109231745
H   H76       1.0  0.85020  0.93850  0.39570  1.0000 0.128936472
H   H77       1.0  0.68360  0.84710  0.56230  1.0000 0.1172238858
H   H78       1.0  0.40390  0.78880  0.49270  1.0000 0.157130482
H   H79       1.0  0.25660  0.71390  0.38390  1.0000 0.1109231745
H   H80       1.0  0.21550  0.64430  0.23400  1.0000 0.128936472
H   H81       1.0  0.54990  0.81770  0.52320  1.0000 0.2845958195
H   H82       1.0  0.54120  0.14520  0.94880  1.0000 0.128936472
H   H83       1.0  0.67070  0.27900  0.03670  1.0000 0.128936472
H   H84       1.0  0.78220  0.17990  0.17410  1.0000 0.1109231745
H   H85       1.0  0.64980  0.04550  0.08830  1.0000 0.128936472
H   H86       1.0  0.81640  0.37870  0.16350  1.0000 0.1172238858
H   H87       1.0  0.09610  0.58880  0.38490  1.0000 0.157130482
H   H88       1.0  0.24340  0.62730  0.45730  1.0000 0.1109231745
H   H89       1.0  0.28450  0.51850  0.42880  1.0000 0.128936472
H   H90       1.0  0.95010  0.47330  0.26780  1.0000 0.2845958195
H   H91       1.0  0.69640  0.59240  0.55120  1.0000 0.128936472
H   H92       1.0  0.74230  0.63400  0.46330  1.0000 0.128936472
H   H93       1.0  0.50580  0.60810  0.32590  1.0000 0.1109231745
H   H94       1.0  0.45720  0.56150  0.41170  1.0000 0.128936472
H   H95       1.0  0.71520  0.65290  0.33650  1.0000 0.1172238858
H   H96       1.0  0.70390  0.71120  0.11510  1.0000 0.157130482
H   H97       1.0  0.67000  0.78610  0.04270  1.0000 0.1109231745
H   H98       1.0  0.58970  0.85570  0.07120  1.0000 0.128936472
H   H99       1.0  0.70550  0.68230  0.23220  1.0000 0.2845958195
H   H100      1.0  0.80360  0.35480  0.89600  1.0000 0.128936472
H   H101      1.0  0.75770  0.22100  0.89170  1.0000 0.128936472
H   H102      1.0  0.99420  0.32010  0.10230  1.0000 0.1109231745
H   H103      1.0  0.04280  0.45450  0.10430  1.0000 0.128936472
H   H104      1.0  0.78480  0.12130  0.93770  1.0000 0.1172238858
H   H105      1.0  0.79610  0.91120  0.00730  1.0000 0.157130482
H   H106      1.0  0.83000  0.87270  0.11610  1.0000 0.1109231745
H   H107      1.0  0.91030  0.98150  0.26600  1.0000 0.128936472
H   H108      1.0  0.79450  0.02670  0.97680  1.0000 0.2845958195
C   C1        1.0  0.57220  0.49040  0.57220  1.0000 0.1728496747
C   C2        1.0  0.59470  0.50510  0.65720  1.0000 -0.1772331971
C   C3        1.0  0.62030  0.45320  0.68470  1.0000 -0.1168147857
C   C4        1.0  0.62650  0.38630  0.62960  1.0000 0.06229416
C   C5        1.0  0.60440  0.37130  0.54430  1.0000 -0.1345592542
C   C6        1.0  0.57690  0.42260  0.51530  1.0000 -0.1885212937
C   C7        1.0  0.65390  0.33300  0.66350  1.0000 -0.0151127139
C   C8        1.0  0.73700  0.18710  0.64190  1.0000 0.3507640259
C   C9        1.0  0.73920  0.12600  0.67140  1.0000 -0.2313138349
C   C10       1.0  0.78330  0.08360  0.65110  1.0000 0.0021630898
C   C11       1.0  0.82410  0.09950  0.60300  1.0000 -0.221812631
C   C12       1.0  0.81670  0.15840  0.57590  1.0000 0.2285253005
C   C13       1.0  0.41820  0.00000  0.92780  1.0000 0.1728496747
C   C14       1.0  0.34790  0.93750  0.84280  1.0000 -0.1772331971
C   C15       1.0  0.26850  0.93560  0.81530  1.0000 -0.1168147857
C   C16       1.0  0.25670  0.99690  0.87040  1.0000 0.06229416
C   C17       1.0  0.32700  0.06010  0.95570  1.0000 -0.1350064678
C   C18       1.0  0.40730  0.06160  0.98470  1.0000 -0.1885212937
C   C19       1.0  0.16950  0.99040  0.83650  1.0000 -0.0151127139
C   C20       1.0  0.04520  0.09510  0.85810  1.0000 0.3507640259
C   C21       1.0  0.95460  0.06780  0.82860  1.0000 -0.2313138349
C   C22       1.0  0.93250  0.13220  0.84890  1.0000 0.0021630898
C   C23       1.0  0.99650  0.22110  0.89700  1.0000 -0.221812631
C   C24       1.0  0.08250  0.24080  0.92410  1.0000 0.2285253005
C   C25       1.0  0.92780  0.50000  0.91820  1.0000 0.1728496747
C   C26       1.0  0.90530  0.56250  0.91040  1.0000 -0.1772331971
C   C27       1.0  0.87970  0.56440  0.83290  1.0000 -0.1168147857
C   C28       1.0  0.87350  0.50310  0.75980  1.0000 0.06229416
C   C29       1.0  0.89560  0.43990  0.76690  1.0000 -0.1350064678
C   C30       1.0  0.92310  0.43840  0.84570  1.0000 -0.1885212937
C   C31       1.0  0.84610  0.50960  0.67910  1.0000 -0.0145699037
C   C32       1.0  0.76300  0.40490  0.45010  1.0000 0.3507640259
C   C33       1.0  0.76080  0.43220  0.38680  1.0000 -0.2313138349
C   C34       1.0  0.71670  0.36780  0.30030  1.0000 0.0021630898
C   C35       1.0  0.67590  0.27890  0.27540  1.0000 -0.221812631
C   C36       1.0  0.68330  0.25920  0.34170  1.0000 0.2285253005
C   C37       1.0  0.08180  0.00960  0.58180  1.0000 0.1728496747
C   C38       1.0  0.15210  0.99490  0.58960  1.0000 -0.1772331971
C   C39       1.0  0.23150  0.04680  0.66710  1.0000 -0.1168147857
C   C40       1.0  0.24330  0.11370  0.74020  1.0000 0.06229416
C   C41       1.0  0.17300  0.12870  0.73310  1.0000 -0.1350064678
C   C42       1.0  0.09270  0.07740  0.65430  1.0000 -0.1885212937
C   C43       1.0  0.33050  0.16700  0.82090  1.0000 -0.0151127139
C   C44       1.0  0.45480  0.31290  0.04990  1.0000 0.3507640259
C   C45       1.0  0.54540  0.37400  0.11320  1.0000 -0.2313138349
C   C46       1.0  0.56750  0.41640  0.19970  1.0000 0.0021630898
C   C47       1.0  0.50350  0.40050  0.22460  1.0000 -0.221812631
C   C48       1.0  0.41750  0.34160  0.15830  1.0000 0.2285253005
C   C49       1.0  0.00960  0.58180  0.08180  1.0000 0.1728496747
C   C50       1.0  0.99490  0.58960  0.15210  1.0000 -0.1772331971
C   C51       1.0  0.04680  0.66710  0.23150  1.0000 -0.1168147857
C   C52       1.0  0.11370  0.74020  0.24330  1.0000 0.06229416
C   C53       1.0  0.12870  0.73310  0.17300  1.0000 -0.1350064678
C   C54       1.0  0.07740  0.65430  0.09270  1.0000 -0.1885212937
C   C55       1.0  0.16700  0.82090  0.33050  1.0000 -0.0151127139
C   C56       1.0  0.31290  0.04990  0.45480  1.0000 0.3507640259
C   C57       1.0  0.37400  0.11320  0.54540  1.0000 -0.2313138349
C   C58       1.0  0.41640  0.19970  0.56750  1.0000 0.0021630898
C   C59       1.0  0.40050  0.22460  0.50350  1.0000 -0.221812631
C   C60       1.0  0.34160  0.15830  0.41750  1.0000 0.2285253005
C   C61       1.0  0.50000  0.91820  0.92780  1.0000 0.1728496747
C   C62       1.0  0.56250  0.91040  0.90530  1.0000 -0.1772331971
C   C63       1.0  0.56440  0.83290  0.87970  1.0000 -0.1168147857
C   C64       1.0  0.50310  0.75980  0.87350  1.0000 0.06229416
C   C65       1.0  0.43990  0.76690  0.89560  1.0000 -0.1350064678
C   C66       1.0  0.43840  0.84570  0.92310  1.0000 -0.1885212937
C   C67       1.0  0.50960  0.67910  0.84610  1.0000 -0.0151127139
C   C68       1.0  0.40490  0.45010  0.76300  1.0000 0.3507640259
C   C69       1.0  0.43220  0.38680  0.76080  1.0000 -0.2313138349
C   C70       1.0  0.36780  0.30030  0.71670  1.0000 0.0021630898
C   C71       1.0  0.27890  0.27540  0.67590  1.0000 -0.221812631
C   C72       1.0  0.25920  0.34170  0.68330  1.0000 0.2285253005
C   C73       1.0  0.00000  0.92780  0.41820  1.0000 0.1728496747
C   C74       1.0  0.93750  0.84280  0.34790  1.0000 -0.1772331971
C   C75       1.0  0.93560  0.81530  0.26850  1.0000 -0.1168147857
C   C76       1.0  0.99690  0.87040  0.25670  1.0000 0.06229416
C   C77       1.0  0.06010  0.95570  0.32700  1.0000 -0.1350064678
C   C78       1.0  0.06160  0.98470  0.40730  1.0000 -0.1885212937
C   C79       1.0  0.99040  0.83650  0.16950  1.0000 -0.0145699037
C   C80       1.0  0.09510  0.85810  0.04520  1.0000 0.3507640259
C   C81       1.0  0.06780  0.82860  0.95460  1.0000 -0.2313138349
C   C82       1.0  0.13220  0.84890  0.93250  1.0000 0.0021630898
C   C83       1.0  0.22110  0.89700  0.99650  1.0000 -0.221812631
C   C84       1.0  0.24080  0.92410  0.08250  1.0000 0.2285253005
C   C85       1.0  0.49040  0.57220  0.57220  1.0000 0.1728496747
C   C86       1.0  0.50510  0.65720  0.59470  1.0000 -0.1772331971
C   C87       1.0  0.45320  0.68470  0.62030  1.0000 -0.1168147857
C   C88       1.0  0.38630  0.62960  0.62650  1.0000 0.06229416
C   C89       1.0  0.37130  0.54430  0.60440  1.0000 -0.1350064678
C   C90       1.0  0.42260  0.51530  0.57690  1.0000 -0.1885212937
C   C91       1.0  0.33300  0.66350  0.65390  1.0000 -0.0145699037
C   C92       1.0  0.18710  0.64190  0.73700  1.0000 0.3507640259
C   C93       1.0  0.12600  0.67140  0.73920  1.0000 -0.2313138349
C   C94       1.0  0.08360  0.65110  0.78330  1.0000 0.0021630898
C   C95       1.0  0.09950  0.60300  0.82410  1.0000 -0.221812631
C   C96       1.0  0.15840  0.57590  0.81670  1.0000 0.2285253005
C   C97       1.0  0.91820  0.92780  0.50000  1.0000 0.1728496747
C   C98       1.0  0.91040  0.90530  0.56250  1.0000 -0.1772331971
C   C99       1.0  0.83290  0.87970  0.56440  1.0000 -0.1168147857
C   C100      1.0  0.75980  0.87350  0.50310  1.0000 0.06229416
C   C101      1.0  0.76690  0.89560  0.43990  1.0000 -0.1350064678
C   C102      1.0  0.84570  0.92310  0.43840  1.0000 -0.1885212937
C   C103      1.0  0.67910  0.84610  0.50960  1.0000 -0.0145699037
C   C104      1.0  0.45010  0.76300  0.40490  1.0000 0.3507640259
C   C105      1.0  0.38680  0.76080  0.43220  1.0000 -0.2313138349
C   C106      1.0  0.30030  0.71670  0.36780  1.0000 0.0021630898
C   C107      1.0  0.27540  0.67590  0.27890  1.0000 -0.221812631
C   C108      1.0  0.34170  0.68330  0.25920  1.0000 0.2285253005
C   C109      1.0  0.58180  0.08180  0.00960  1.0000 0.1728496747
C   C110      1.0  0.58960  0.15210  0.99490  1.0000 -0.1772331971
C   C111      1.0  0.66710  0.23150  0.04680  1.0000 -0.1168147857
C   C112      1.0  0.74020  0.24330  0.11370  1.0000 0.06229416
C   C113      1.0  0.73310  0.17300  0.12870  1.0000 -0.1350064678
C   C114      1.0  0.65430  0.09270  0.07740  1.0000 -0.1885212937
C   C115      1.0  0.82090  0.33050  0.16700  1.0000 -0.0145699037
C   C116      1.0  0.04990  0.45480  0.31290  1.0000 0.3507640259
C   C117      1.0  0.11320  0.54540  0.37400  1.0000 -0.2313138349
C   C118      1.0  0.19970  0.56750  0.41640  1.0000 0.0021630898
C   C119      1.0  0.22460  0.50350  0.40050  1.0000 -0.221812631
C   C120      1.0  0.15830  0.41750  0.34160  1.0000 0.2285253005
C   C121      1.0  0.57220  0.57220  0.49040  1.0000 0.1728496747
C   C122      1.0  0.65720  0.59470  0.50510  1.0000 -0.1772331971
C   C123      1.0  0.68470  0.62030  0.45320  1.0000 -0.1168147857
C   C124      1.0  0.62960  0.62650  0.38630  1.0000 0.06229416
C   C125      1.0  0.54430  0.60440  0.37130  1.0000 -0.1350064678
C   C126      1.0  0.51530  0.57690  0.42260  1.0000 -0.1885212937
C   C127      1.0  0.66350  0.65390  0.33300  1.0000 -0.0145699037
C   C128      1.0  0.64190  0.73700  0.18710  1.0000 0.3507640259
C   C129      1.0  0.67140  0.73920  0.12600  1.0000 -0.2313138349
C   C130      1.0  0.65110  0.78330  0.08360  1.0000 0.0021630898
C   C131      1.0  0.60300  0.82410  0.09950  1.0000 -0.221812631
C   C132      1.0  0.57590  0.81670  0.15840  1.0000 0.2285253005
C   C133      1.0  0.92780  0.41820  0.00000  1.0000 0.1728496747
C   C134      1.0  0.84280  0.34790  0.93750  1.0000 -0.1772331971
C   C135      1.0  0.81530  0.26850  0.93560  1.0000 -0.1168147857
C   C136      1.0  0.87040  0.25670  0.99690  1.0000 0.06229416
C   C137      1.0  0.95570  0.32700  0.06010  1.0000 -0.1345592542
C   C138      1.0  0.98470  0.40730  0.06160  1.0000 -0.1885212937
C   C139      1.0  0.83650  0.16950  0.99040  1.0000 -0.0151127139
C   C140      1.0  0.85810  0.04520  0.09510  1.0000 0.3507640259
C   C141      1.0  0.82860  0.95460  0.06780  1.0000 -0.2313138349
C   C142      1.0  0.84890  0.93250  0.13220  1.0000 0.0021630898
C   C143      1.0  0.89700  0.99650  0.22110  1.0000 -0.221812631
C   C144      1.0  0.92410  0.08250  0.24080  1.0000 0.2285253005
Br  Br1       1.0  0.86542  0.17935  0.50557  1.0000 -0.0966214789
Br  Br2       1.0  0.17378  0.35985  0.99443  1.0000 -0.0966214789
Br  Br3       1.0  0.63458  0.14015  0.31393  1.0000 -0.0966214789
Br  Br4       1.0  0.32622  0.32065  0.18607  1.0000 -0.0966214789
Br  Br5       1.0  0.32065  0.18607  0.32622  1.0000 -0.0966214789
Br  Br6       1.0  0.14015  0.31393  0.63458  1.0000 -0.0966214789
Br  Br7       1.0  0.35985  0.99443  0.17378  1.0000 -0.0946077509
Br  Br8       1.0  0.17935  0.50557  0.86542  1.0000 -0.0966214789
Br  Br9       1.0  0.31393  0.63458  0.14015  1.0000 -0.0946077509
Br  Br10      1.0  0.18607  0.32622  0.32065  1.0000 -0.0966214789
Br  Br11      1.0  0.50557  0.86542  0.17935  1.0000 -0.0966214789
Br  Br12      1.0  0.99443  0.17378  0.35985  1.0000 -0.0966214789
N   N1        1.0  0.67888  0.28241  0.62725  1.0000 -0.1146634156
N   N2        1.0  0.69680  0.23360  0.66540  1.0000 -0.1974295852
N   N3        1.0  0.77410  0.20243  0.59387  1.0000 -0.3237908163
N   N4        1.0  0.15516  0.05163  0.87275  1.0000 -0.1146634156
N   N5        1.0  0.06820  0.03140  0.83460  1.0000 -0.1974295852
N   N6        1.0  0.10856  0.18023  0.90613  1.0000 -0.3237908163
N   N7        1.0  0.82112  0.44837  0.60353  1.0000 -0.1146634156
N   N8        1.0  0.80320  0.46860  0.53680  1.0000 -0.1974295852
N   N9        1.0  0.72590  0.31977  0.42833  1.0000 -0.3237908163
N   N10       1.0  0.34484  0.21759  0.89647  1.0000 -0.1146634156
N   N11       1.0  0.43180  0.26640  0.96320  1.0000 -0.1974295852
N   N12       1.0  0.39144  0.29757  0.07167  1.0000 -0.3237908163
N   N13       1.0  0.21759  0.89647  0.34484  1.0000 -0.1146634156
N   N14       1.0  0.26640  0.96320  0.43180  1.0000 -0.1974295852
N   N15       1.0  0.29757  0.07167  0.39144  1.0000 -0.3237908163
N   N16       1.0  0.44837  0.60353  0.82112  1.0000 -0.1146634156
N   N17       1.0  0.46860  0.53680  0.80320  1.0000 -0.1974295852
N   N18       1.0  0.31977  0.42833  0.72590  1.0000 -0.3237908163
N   N19       1.0  0.05163  0.87275  0.15516  1.0000 -0.1146634156
N   N20       1.0  0.03140  0.83460  0.06820  1.0000 -0.1974295852
N   N21       1.0  0.18023  0.90613  0.10856  1.0000 -0.3237908163
N   N22       1.0  0.28241  0.62725  0.67888  1.0000 -0.1146634156
N   N23       1.0  0.23360  0.66540  0.69680  1.0000 -0.1974295852
N   N24       1.0  0.20243  0.59387  0.77410  1.0000 -0.3237908163
N   N25       1.0  0.60353  0.82112  0.44837  1.0000 -0.1146634156
N   N26       1.0  0.53680  0.80320  0.46860  1.0000 -0.1974295852
N   N27       1.0  0.42833  0.72590  0.31977  1.0000 -0.3237908163
N   N28       1.0  0.89647  0.34484  0.21759  1.0000 -0.1146634156
N   N29       1.0  0.96320  0.43180  0.26640  1.0000 -0.1974295852
N   N30       1.0  0.07167  0.39144  0.29757  1.0000 -0.3237908163
N   N31       1.0  0.62725  0.67888  0.28241  1.0000 -0.1146634156
N   N32       1.0  0.66540  0.69680  0.23360  1.0000 -0.1974295852
N   N33       1.0  0.59387  0.77410  0.20243  1.0000 -0.3237908163
N   N34       1.0  0.87275  0.15516  0.05163  1.0000 -0.1146634156
N   N35       1.0  0.83460  0.06820  0.03140  1.0000 -0.1974295852
N   N36       1.0  0.90613  0.10856  0.18023  1.0000 -0.3237908163
N   N37       1.0  0.54140  0.54140  0.54140  1.0000 -0.1678917213
N   N38       1.0  0.50000  1.00000  0.95860  1.0000 -0.1678917213
N   N39       1.0  0.95860  0.50000  0.00000  1.0000 -0.1678917213
N   N40       1.0  1.00000  0.95860  0.50000  1.0000 -0.1678917213
Cl  Cl1       1.0  0.75000  0.68692  0.93692  1.0000 1.271265268
Cl  Cl2       1.0  0.25000  0.81308  0.56308  1.0000 1.271265268
Cl  Cl3       1.0  0.93692  0.75000  0.68692  1.0000 1.271265268
Cl  Cl4       1.0  0.56308  0.25000  0.81308  1.0000 1.271265268
Cl  Cl5       1.0  0.81308  0.56308  0.25000  1.0000 1.271265268
Cl  Cl6       1.0  0.68692  0.93692  0.75000  1.0000 1.271265268
O   O1        1.0  0.77590  0.70100  0.02470  1.0000 -0.5127120071
O   O2        1.0  0.67430  0.59960  0.87550  1.0000 -0.5127120071
O   O3        1.0  0.72410  0.74880  0.92510  1.0000 -0.5127120071
O   O4        1.0  0.82570  0.70120  0.92530  1.0000 -0.5127120071
O   O5        1.0  0.32370  0.79900  0.57490  1.0000 -0.5127120071
O   O6        1.0  0.27590  0.90040  0.57470  1.0000 -0.5127120071
O   O7        1.0  0.17630  0.75120  0.47530  1.0000 -0.5127120071
O   O8        1.0  0.22410  0.79880  0.62450  1.0000 -0.5127120071
O   O9        1.0  0.92510  0.72410  0.74880  1.0000 -0.5127120071
O   O10       1.0  0.92530  0.82570  0.70120  1.0000 -0.5127120071
O   O11       1.0  0.02470  0.77590  0.70100  1.0000 -0.5127120071
O   O12       1.0  0.87550  0.67430  0.59960  1.0000 -0.5127120071
O   O13       1.0  0.47530  0.17630  0.75120  1.0000 -0.5127120071
O   O14       1.0  0.62450  0.22410  0.79880  1.0000 -0.5127120071
O   O15       1.0  0.57490  0.32370  0.79900  1.0000 -0.5127120071
O   O16       1.0  0.57470  0.27590  0.90040  1.0000 -0.5127120071
O   O17       1.0  0.79900  0.57490  0.32370  1.0000 -0.5127120071
O   O18       1.0  0.90040  0.57470  0.27590  1.0000 -0.5127120071
O   O19       1.0  0.75120  0.47530  0.17630  1.0000 -0.5127120071
O   O20       1.0  0.79880  0.62450  0.22410  1.0000 -0.5127120071
O   O21       1.0  0.70100  0.02470  0.77590  1.0000 -0.5127120071
O   O22       1.0  0.59960  0.87550  0.67430  1.0000 -0.5127120071
O   O23       1.0  0.74880  0.92510  0.72410  1.0000 -0.5127120071
O   O24       1.0  0.70120  0.92530  0.82570  1.0000 -0.5127120071
