# DDEC6 charges by PACMAN v1.1 (https://github.com/mtap-research/PACMAN-charge/)
data_2017[Ag][srs]3[ION]8
_chemical_formula_sum              "Ag6 H108 C144 Br12 N40 Cl6 O24"
_cell_length_a       18.4624
_cell_length_b       18.4624
_cell_length_c       18.4624
_cell_angle_alpha    109.471
_cell_angle_beta     109.471
_cell_angle_gamma    109.471

_symmetry_space_group_name_H-M    "P 1"
_symmetry_Int_Tables_number       1

loop_
  _symmetry_equiv_pos_as_xyz
  'x, y, z'

loop_
  _atom_site_type_symbol
  _atom_site_label
  _atom_site_symmetry_multiplicity
  _atom_site_fract_x
  _atom_site_fract_y
  _atom_site_fract_z
  _atom_site_occupancy
  _atom_site_charge
Ag  Ag1       1.0  0.71265  0.46265  0.25000  1.0000 0.2853126953
Ag  Ag2       1.0  0.78735  0.03735  0.75000  1.0000 0.2853126953
Ag  Ag3       1.0  0.03735  0.75000  0.78735  1.0000 0.2843226113
Ag  Ag4       1.0  0.46265  0.25000  0.71265  1.0000 0.2853126953
Ag  Ag5       1.0  0.75000  0.78735  0.03735  1.0000 0.2853126953
Ag  Ag6       1.0  0.25000  0.71265  0.46265  1.0000 0.2853126953
H   H1        1.0  0.60460  0.14980  0.06200  1.0000 0.1297759447
H   H2        1.0  0.60290  0.28260  0.11010  1.0000 0.1108819469
H   H3        1.0  0.39080  0.17000  0.13340  1.0000 0.1297759447
H   H4        1.0  0.39760  0.04160  0.09480  1.0000 0.1297759447
H   H5        1.0  0.43830  0.31680  0.15330  1.0000 0.1174737357
H   H6        1.0  0.50750  0.59630  0.21220  1.0000 0.1579848745
H   H7        1.0  0.61480  0.74270  0.28510  1.0000 0.1108819469
H   H8        1.0  0.76550  0.78390  0.35460  1.0000 0.1297759447
H   H9        1.0  0.47640  0.45010  0.18150  1.0000 0.2853126953
H   H10       1.0  0.58780  0.54260  0.43800  1.0000 0.1297759447
H   H11       1.0  0.67250  0.49280  0.38990  1.0000 0.1108819469
H   H12       1.0  0.53660  0.25740  0.36660  1.0000 0.1297759447
H   H13       1.0  0.44680  0.30280  0.40520  1.0000 0.1297759447
H   H14       1.0  0.66350  0.28500  0.34670  1.0000 0.1174737357
H   H15       1.0  0.88410  0.29530  0.28780  1.0000 0.1579848745
H   H16       1.0  0.95760  0.32970  0.21490  1.0000 0.1108819469
H   H17       1.0  0.92930  0.41090  0.14540  1.0000 0.1297759447
H   H18       1.0  0.76860  0.29490  0.31850  1.0000 0.2853126953
H   H19       1.0  0.89540  0.95740  0.54520  1.0000 0.1297759447
H   H20       1.0  0.89710  0.00720  0.67970  1.0000 0.1108819469
H   H21       1.0  0.10920  0.24260  0.77920  1.0000 0.1297759447
H   H22       1.0  0.10240  0.19720  0.64400  1.0000 0.1297759447
H   H23       1.0  0.06170  0.21500  0.87850  1.0000 0.1174737357
H   H24       1.0  0.99250  0.20470  0.08880  1.0000 0.1579848745
H   H25       1.0  0.88520  0.17030  0.12790  1.0000 0.1108819469
H   H26       1.0  0.73450  0.08910  0.01840  1.0000 0.1297759447
H   H27       1.0  0.02360  0.20510  0.97370  1.0000 0.2853126953
H   H28       1.0  0.91220  0.35020  0.95480  1.0000 0.1297759447
H   H29       1.0  0.82750  0.21740  0.82030  1.0000 0.1108819469
H   H30       1.0  0.96340  0.33000  0.72080  1.0000 0.1297759447
H   H31       1.0  0.05320  0.45840  0.85600  1.0000 0.1297759447
H   H32       1.0  0.83650  0.18320  0.62150  1.0000 0.1174737357
H   H33       1.0  0.61590  0.90370  0.41120  1.0000 0.1579848745
H   H34       1.0  0.54240  0.75730  0.37210  1.0000 0.1108819469
H   H35       1.0  0.57070  0.71610  0.48160  1.0000 0.1297759447
H   H36       1.0  0.73140  0.04990  0.52630  1.0000 0.2853126953
H   H37       1.0  0.35020  0.95480  0.91220  1.0000 0.1297759447
H   H38       1.0  0.21740  0.82030  0.82750  1.0000 0.1108819469
H   H39       1.0  0.33000  0.72080  0.96340  1.0000 0.1297759447
H   H40       1.0  0.45840  0.85600  0.05320  1.0000 0.1297759447
H   H41       1.0  0.18320  0.62150  0.83650  1.0000 0.1174737357
H   H42       1.0  0.90370  0.41120  0.61590  1.0000 0.1579848745
H   H43       1.0  0.75730  0.37210  0.54240  1.0000 0.1108819469
H   H44       1.0  0.71610  0.48160  0.57070  1.0000 0.1297759447
H   H45       1.0  0.04990  0.52630  0.73140  1.0000 0.2853126953
H   H46       1.0  0.95740  0.54520  0.89540  1.0000 0.1297759447
H   H47       1.0  0.00720  0.67970  0.89710  1.0000 0.1108819469
H   H48       1.0  0.24260  0.77920  0.10920  1.0000 0.1297759447
H   H49       1.0  0.19720  0.64400  0.10240  1.0000 0.1297759447
H   H50       1.0  0.21500  0.87850  0.06170  1.0000 0.1174737357
H   H51       1.0  0.20470  0.08880  0.99250  1.0000 0.1579848745
H   H52       1.0  0.17030  0.12790  0.88520  1.0000 0.1108819469
H   H53       1.0  0.08910  0.01840  0.73450  1.0000 0.1297759447
H   H54       1.0  0.20510  0.97370  0.02360  1.0000 0.2853126953
H   H55       1.0  0.54260  0.43800  0.58780  1.0000 0.1297759447
H   H56       1.0  0.49280  0.38990  0.67250  1.0000 0.1108819469
H   H57       1.0  0.25740  0.36660  0.53660  1.0000 0.1297759447
H   H58       1.0  0.30280  0.40520  0.44680  1.0000 0.1297759447
H   H59       1.0  0.28500  0.34670  0.66350  1.0000 0.1174737357
H   H60       1.0  0.29530  0.28780  0.88410  1.0000 0.1579848745
H   H61       1.0  0.32970  0.21490  0.95760  1.0000 0.1108819469
H   H62       1.0  0.41090  0.14540  0.92930  1.0000 0.1297759447
H   H63       1.0  0.29490  0.31850  0.76860  1.0000 0.2853126953
H   H64       1.0  0.14980  0.06200  0.60460  1.0000 0.1297759447
H   H65       1.0  0.28260  0.11010  0.60290  1.0000 0.1108819469
H   H66       1.0  0.17000  0.13340  0.39080  1.0000 0.1297759447
H   H67       1.0  0.04160  0.09480  0.39760  1.0000 0.1297759447
H   H68       1.0  0.31680  0.15330  0.43830  1.0000 0.1174737357
H   H69       1.0  0.59630  0.21220  0.50750  1.0000 0.1579848745
H   H70       1.0  0.74270  0.28510  0.61480  1.0000 0.1108819469
H   H71       1.0  0.78390  0.35460  0.76550  1.0000 0.1297759447
H   H72       1.0  0.45010  0.18150  0.47640  1.0000 0.2853126953
H   H73       1.0  0.54520  0.89540  0.95740  1.0000 0.1297759447
H   H74       1.0  0.67970  0.89710  0.00720  1.0000 0.1108819469
H   H75       1.0  0.77920  0.10920  0.24260  1.0000 0.1297759447
H   H76       1.0  0.64400  0.10240  0.19720  1.0000 0.1297759447
H   H77       1.0  0.87850  0.06170  0.21500  1.0000 0.1174737357
H   H78       1.0  0.08880  0.99250  0.20470  1.0000 0.1579848745
H   H79       1.0  0.12790  0.88520  0.17030  1.0000 0.1108819469
H   H80       1.0  0.01840  0.73450  0.08910  1.0000 0.1297759447
H   H81       1.0  0.97370  0.02360  0.20510  1.0000 0.2853126953
H   H82       1.0  0.95480  0.91220  0.35020  1.0000 0.1297759447
H   H83       1.0  0.82030  0.82750  0.21740  1.0000 0.1108819469
H   H84       1.0  0.72080  0.96340  0.33000  1.0000 0.1297759447
H   H85       1.0  0.85600  0.05320  0.45840  1.0000 0.1297759447
H   H86       1.0  0.62150  0.83650  0.18320  1.0000 0.1174737357
H   H87       1.0  0.41120  0.61590  0.90370  1.0000 0.1579848745
H   H88       1.0  0.37210  0.54240  0.75730  1.0000 0.1108819469
H   H89       1.0  0.48160  0.57070  0.71610  1.0000 0.1297759447
H   H90       1.0  0.52630  0.73140  0.04990  1.0000 0.2853126953
H   H91       1.0  0.06200  0.60460  0.14980  1.0000 0.1297759447
H   H92       1.0  0.11010  0.60290  0.28260  1.0000 0.1108819469
H   H93       1.0  0.13340  0.39080  0.17000  1.0000 0.1297759447
H   H94       1.0  0.09480  0.39760  0.04160  1.0000 0.1297759447
H   H95       1.0  0.15330  0.43830  0.31680  1.0000 0.1174737357
H   H96       1.0  0.21220  0.50750  0.59630  1.0000 0.1579848745
H   H97       1.0  0.28510  0.61480  0.74270  1.0000 0.1108819469
H   H98       1.0  0.35460  0.76550  0.78390  1.0000 0.1297759447
H   H99       1.0  0.18150  0.47640  0.45010  1.0000 0.2853126953
H   H100      1.0  0.43800  0.58780  0.54260  1.0000 0.1297759447
H   H101      1.0  0.38990  0.67250  0.49280  1.0000 0.1108819469
H   H102      1.0  0.36660  0.53660  0.25740  1.0000 0.1297759447
H   H103      1.0  0.40520  0.44680  0.30280  1.0000 0.1297759447
H   H104      1.0  0.34670  0.66350  0.28500  1.0000 0.1174737357
H   H105      1.0  0.28780  0.88410  0.29530  1.0000 0.1579848745
H   H106      1.0  0.21490  0.95760  0.32970  1.0000 0.1108819469
H   H107      1.0  0.14540  0.92930  0.41090  1.0000 0.1297759447
H   H108      1.0  0.31850  0.76860  0.29490  1.0000 0.2853126953
C   C1        1.0  0.49946  0.08124  0.07142  1.0000 0.1758451566
C   C2        1.0  0.56174  0.15407  0.07713  1.0000 -0.1931755922
C   C3        1.0  0.56016  0.23318  0.10526  1.0000 -0.1348121397
C   C4        1.0  0.49706  0.23986  0.12598  1.0000 0.0624106147
C   C5        1.0  0.43490  0.16647  0.12019  1.0000 -0.1183003933
C   C6        1.0  0.43783  0.08953  0.09550  1.0000 -0.179349972
C   C7        1.0  0.49073  0.32123  0.15410  1.0000 -0.0074033958
C   C8        1.0  0.59458  0.54906  0.23684  1.0000 0.3526361205
C   C9        1.0  0.56800  0.61330  0.23970  1.0000 -0.2290054666
C   C10       1.0  0.63130  0.69930  0.28260  1.0000 0.0013000628
C   C11       1.0  0.72060  0.72410  0.32330  1.0000 -0.2235298574
C   C12       1.0  0.74000  0.65770  0.31570  1.0000 0.2371360926
C   C13       1.0  0.50982  0.42804  0.42858  1.0000 0.1758451566
C   C14       1.0  0.57694  0.48461  0.42287  1.0000 -0.1931755922
C   C15       1.0  0.62792  0.45490  0.39474  1.0000 -0.1348121397
C   C16       1.0  0.61388  0.37108  0.37402  1.0000 0.0624106147
C   C17       1.0  0.54628  0.31471  0.37981  1.0000 -0.1183003933
C   C18       1.0  0.49403  0.34233  0.40450  1.0000 -0.179349972
C   C19       1.0  0.66713  0.33663  0.34590  1.0000 -0.0074033958
C   C20       1.0  0.81222  0.35774  0.26316  1.0000 0.3526361205
C   C21       1.0  0.87360  0.32830  0.26030  1.0000 -0.2290054666
C   C22       1.0  0.91670  0.34870  0.21740  1.0000 0.0013000628
C   C23       1.0  0.90080  0.39730  0.17670  1.0000 -0.2235298574
C   C24       1.0  0.84200  0.42430  0.18430  1.0000 0.2371360926
C   C25       1.0  0.00054  0.07196  0.58178  1.0000 0.1758451566
C   C26       1.0  0.93826  0.01539  0.59233  1.0000 -0.1931755922
C   C27       1.0  0.93984  0.04510  0.67302  1.0000 -0.1348121397
C   C28       1.0  0.00294  0.12892  0.74280  1.0000 0.0624106147
C   C29       1.0  0.06510  0.18529  0.73157  1.0000 -0.1183003933
C   C30       1.0  0.06217  0.15767  0.65170  1.0000 -0.179349972
C   C31       1.0  0.00927  0.16337  0.83050  1.0000 -0.0074033958
C   C32       1.0  0.90542  0.14226  0.95448  1.0000 0.3526361205
C   C33       1.0  0.93200  0.17170  0.04530  1.0000 -0.2290054666
C   C34       1.0  0.86870  0.15130  0.06800  1.0000 0.0013000628
C   C35       1.0  0.77940  0.10270  0.00350  1.0000 -0.2235298574
C   C36       1.0  0.76000  0.07570  0.91770  1.0000 0.2371360926
C   C37       1.0  0.99018  0.41876  0.91822  1.0000 0.1758451566
C   C38       1.0  0.92306  0.34593  0.90767  1.0000 -0.1931755922
C   C39       1.0  0.87208  0.26682  0.82698  1.0000 -0.1348121397
C   C40       1.0  0.88612  0.26014  0.75720  1.0000 0.0624106147
C   C41       1.0  0.95372  0.33353  0.76843  1.0000 -0.1183003933
C   C42       1.0  0.00597  0.41047  0.84830  1.0000 -0.179349972
C   C43       1.0  0.83287  0.17877  0.66950  1.0000 -0.0074033958
C   C44       1.0  0.68778  0.95094  0.54552  1.0000 0.3526361205
C   C45       1.0  0.62640  0.88670  0.45470  1.0000 -0.2290054666
C   C46       1.0  0.58330  0.80070  0.43200  1.0000 0.0013000628
C   C47       1.0  0.59920  0.77590  0.49650  1.0000 -0.2235298574
C   C48       1.0  0.65800  0.84230  0.58230  1.0000 0.2371360926
C   C49       1.0  0.41876  0.91822  0.99018  1.0000 0.1758451566
C   C50       1.0  0.34593  0.90767  0.92306  1.0000 -0.1931755922
C   C51       1.0  0.26682  0.82698  0.87208  1.0000 -0.1348121397
C   C52       1.0  0.26014  0.75720  0.88612  1.0000 0.0624106147
C   C53       1.0  0.33353  0.76843  0.95372  1.0000 -0.1183003933
C   C54       1.0  0.41047  0.84830  0.00597  1.0000 -0.179349972
C   C55       1.0  0.17877  0.66950  0.83287  1.0000 -0.0074033958
C   C56       1.0  0.95094  0.54552  0.68778  1.0000 0.3526361205
C   C57       1.0  0.88670  0.45470  0.62640  1.0000 -0.2290054666
C   C58       1.0  0.80070  0.43200  0.58330  1.0000 0.0013000628
C   C59       1.0  0.77590  0.49650  0.59920  1.0000 -0.2235298574
C   C60       1.0  0.84230  0.58230  0.65800  1.0000 0.2371360926
C   C61       1.0  0.07196  0.58178  0.00054  1.0000 0.1758451566
C   C62       1.0  0.01539  0.59233  0.93826  1.0000 -0.1931755922
C   C63       1.0  0.04510  0.67302  0.93984  1.0000 -0.1348121397
C   C64       1.0  0.12892  0.74280  0.00294  1.0000 0.0624106147
C   C65       1.0  0.18529  0.73157  0.06510  1.0000 -0.1183003933
C   C66       1.0  0.15767  0.65170  0.06217  1.0000 -0.179349972
C   C67       1.0  0.16337  0.83050  0.00927  1.0000 -0.0074033958
C   C68       1.0  0.14226  0.95448  0.90542  1.0000 0.3526361205
C   C69       1.0  0.17170  0.04530  0.93200  1.0000 -0.2290054666
C   C70       1.0  0.15130  0.06800  0.86870  1.0000 0.0013000628
C   C71       1.0  0.10270  0.00350  0.77940  1.0000 -0.2235298574
C   C72       1.0  0.07570  0.91770  0.76000  1.0000 0.2371360926
C   C73       1.0  0.42804  0.42858  0.50982  1.0000 0.1758451566
C   C74       1.0  0.48461  0.42287  0.57694  1.0000 -0.1931755922
C   C75       1.0  0.45490  0.39474  0.62792  1.0000 -0.1348121397
C   C76       1.0  0.37108  0.37402  0.61388  1.0000 0.0624106147
C   C77       1.0  0.31471  0.37981  0.54628  1.0000 -0.1183003933
C   C78       1.0  0.34233  0.40450  0.49403  1.0000 -0.179349972
C   C79       1.0  0.33663  0.34590  0.66713  1.0000 -0.0074033958
C   C80       1.0  0.35774  0.26316  0.81222  1.0000 0.3526361205
C   C81       1.0  0.32830  0.26030  0.87360  1.0000 -0.2290054666
C   C82       1.0  0.34870  0.21740  0.91670  1.0000 0.0013000628
C   C83       1.0  0.39730  0.17670  0.90080  1.0000 -0.2235298574
C   C84       1.0  0.42430  0.18430  0.84200  1.0000 0.2371360926
C   C85       1.0  0.08124  0.07142  0.49946  1.0000 0.1758451566
C   C86       1.0  0.15407  0.07713  0.56174  1.0000 -0.1931755922
C   C87       1.0  0.23318  0.10526  0.56016  1.0000 -0.1348121397
C   C88       1.0  0.23986  0.12598  0.49706  1.0000 0.0624106147
C   C89       1.0  0.16647  0.12019  0.43490  1.0000 -0.1183003933
C   C90       1.0  0.08953  0.09550  0.43783  1.0000 -0.179349972
C   C91       1.0  0.32123  0.15410  0.49073  1.0000 -0.0074033958
C   C92       1.0  0.54906  0.23684  0.59458  1.0000 0.3526361205
C   C93       1.0  0.61330  0.23970  0.56800  1.0000 -0.2290054666
C   C94       1.0  0.69930  0.28260  0.63130  1.0000 0.0013000628
C   C95       1.0  0.72410  0.32330  0.72060  1.0000 -0.2235298574
C   C96       1.0  0.65770  0.31570  0.74000  1.0000 0.2371360926
C   C97       1.0  0.58178  0.00054  0.07196  1.0000 0.1758451566
C   C98       1.0  0.59233  0.93826  0.01539  1.0000 -0.1931755922
C   C99       1.0  0.67302  0.93984  0.04510  1.0000 -0.1348121397
C   C100      1.0  0.74280  0.00294  0.12892  1.0000 0.0624106147
C   C101      1.0  0.73157  0.06510  0.18529  1.0000 -0.1183003933
C   C102      1.0  0.65170  0.06217  0.15767  1.0000 -0.179349972
C   C103      1.0  0.83050  0.00927  0.16337  1.0000 -0.0074033958
C   C104      1.0  0.95448  0.90542  0.14226  1.0000 0.3526361205
C   C105      1.0  0.04530  0.93200  0.17170  1.0000 -0.2290054666
C   C106      1.0  0.06800  0.86870  0.15130  1.0000 0.0013000628
C   C107      1.0  0.00350  0.77940  0.10270  1.0000 -0.2235298574
C   C108      1.0  0.91770  0.76000  0.07570  1.0000 0.2371360926
C   C109      1.0  0.91822  0.99018  0.41876  1.0000 0.1758451566
C   C110      1.0  0.90767  0.92306  0.34593  1.0000 -0.1931755922
C   C111      1.0  0.82698  0.87208  0.26682  1.0000 -0.1348121397
C   C112      1.0  0.75720  0.88612  0.26014  1.0000 0.0624106147
C   C113      1.0  0.76843  0.95372  0.33353  1.0000 -0.1183003933
C   C114      1.0  0.84830  0.00597  0.41047  1.0000 -0.179349972
C   C115      1.0  0.66950  0.83287  0.17877  1.0000 -0.0074033958
C   C116      1.0  0.54552  0.68778  0.95094  1.0000 0.3526361205
C   C117      1.0  0.45470  0.62640  0.88670  1.0000 -0.2290054666
C   C118      1.0  0.43200  0.58330  0.80070  1.0000 0.0013000628
C   C119      1.0  0.49650  0.59920  0.77590  1.0000 -0.2235298574
C   C120      1.0  0.58230  0.65800  0.84230  1.0000 0.2371360926
C   C121      1.0  0.07142  0.49946  0.08124  1.0000 0.1758451566
C   C122      1.0  0.07713  0.56174  0.15407  1.0000 -0.1931755922
C   C123      1.0  0.10526  0.56016  0.23318  1.0000 -0.1348121397
C   C124      1.0  0.12598  0.49706  0.23986  1.0000 0.0624106147
C   C125      1.0  0.12019  0.43490  0.16647  1.0000 -0.1183003933
C   C126      1.0  0.09550  0.43783  0.08953  1.0000 -0.179349972
C   C127      1.0  0.15410  0.49073  0.32123  1.0000 -0.0074033958
C   C128      1.0  0.23684  0.59458  0.54906  1.0000 0.3526361205
C   C129      1.0  0.23970  0.56800  0.61330  1.0000 -0.2290054666
C   C130      1.0  0.28260  0.63130  0.69930  1.0000 0.0013000628
C   C131      1.0  0.32330  0.72060  0.72410  1.0000 -0.2235298574
C   C132      1.0  0.31570  0.74000  0.65770  1.0000 0.2371360926
C   C133      1.0  0.42858  0.50982  0.42804  1.0000 0.1758451566
C   C134      1.0  0.42287  0.57694  0.48461  1.0000 -0.1931755922
C   C135      1.0  0.39474  0.62792  0.45490  1.0000 -0.1348121397
C   C136      1.0  0.37402  0.61388  0.37108  1.0000 0.0624106147
C   C137      1.0  0.37981  0.54628  0.31471  1.0000 -0.1183003933
C   C138      1.0  0.40450  0.49403  0.34233  1.0000 -0.179349972
C   C139      1.0  0.34590  0.66713  0.33663  1.0000 -0.0074033958
C   C140      1.0  0.26316  0.81222  0.35774  1.0000 0.3526361205
C   C141      1.0  0.26030  0.87360  0.32830  1.0000 -0.2290054666
C   C142      1.0  0.21740  0.91670  0.34870  1.0000 0.0013000628
C   C143      1.0  0.17670  0.90080  0.39730  1.0000 -0.2235298574
C   C144      1.0  0.18430  0.84200  0.42430  1.0000 0.2371360926
Br  Br1       1.0  0.85963  0.68582  0.36535  1.0000 -0.0931208249
Br  Br2       1.0  0.82047  0.49428  0.13465  1.0000 -0.0931208249
Br  Br3       1.0  0.64037  0.00572  0.82619  1.0000 -0.0958286605
Br  Br4       1.0  0.67953  0.81418  0.67381  1.0000 -0.0931208249
Br  Br5       1.0  0.81418  0.67381  0.67953  1.0000 -0.0931208249
Br  Br6       1.0  0.00572  0.82619  0.64037  1.0000 -0.0931208249
Br  Br7       1.0  0.49428  0.13465  0.82047  1.0000 -0.0931208249
Br  Br8       1.0  0.68582  0.36535  0.85963  1.0000 -0.0931208249
Br  Br9       1.0  0.82619  0.64037  0.00572  1.0000 -0.0931208249
Br  Br10      1.0  0.67381  0.67953  0.81418  1.0000 -0.0931208249
Br  Br11      1.0  0.36535  0.85963  0.68582  1.0000 -0.0931208249
Br  Br12      1.0  0.13465  0.82047  0.49428  1.0000 -0.0931208249
N   N1        1.0  0.55185  0.39642  0.17903  1.0000 -0.1183003933
N   N2        1.0  0.53100  0.46333  0.19657  1.0000 -0.2006082927
N   N3        1.0  0.68072  0.57206  0.27430  1.0000 -0.3229095123
N   N4        1.0  0.71739  0.37282  0.32097  1.0000 -0.1183003933
N   N5        1.0  0.76676  0.33443  0.30343  1.0000 -0.2006082927
N   N6        1.0  0.79776  0.40642  0.22570  1.0000 -0.3229095123
N   N7        1.0  0.94815  0.12718  0.84457  1.0000 -0.1183003933
N   N8        1.0  0.96900  0.16557  0.93233  1.0000 -0.2006082927
N   N9        1.0  0.81928  0.09358  0.89134  1.0000 -0.3229095123
N   N10       1.0  0.78261  0.10358  0.65543  1.0000 -0.1183003933
N   N11       1.0  0.73324  0.03667  0.56767  1.0000 -0.2006082927
N   N12       1.0  0.70224  0.92794  0.60866  1.0000 -0.3229095123
N   N13       1.0  0.10358  0.65543  0.78261  1.0000 -0.1183003933
N   N14       1.0  0.03667  0.56767  0.73324  1.0000 -0.2006082927
N   N15       1.0  0.92794  0.60866  0.70224  1.0000 -0.3229095123
N   N16       1.0  0.12718  0.84457  0.94815  1.0000 -0.1183003933
N   N17       1.0  0.16557  0.93233  0.96900  1.0000 -0.2006082927
N   N18       1.0  0.09358  0.89134  0.81928  1.0000 -0.3229095123
N   N19       1.0  0.37282  0.32097  0.71739  1.0000 -0.1183003933
N   N20       1.0  0.33443  0.30343  0.76676  1.0000 -0.2006082927
N   N21       1.0  0.40642  0.22570  0.79776  1.0000 -0.3229095123
N   N22       1.0  0.39642  0.17903  0.55185  1.0000 -0.1183003933
N   N23       1.0  0.46333  0.19657  0.53100  1.0000 -0.2006082927
N   N24       1.0  0.57206  0.27430  0.68072  1.0000 -0.3229095123
N   N25       1.0  0.84457  0.94815  0.12718  1.0000 -0.1183003933
N   N26       1.0  0.93233  0.96900  0.16557  1.0000 -0.2006082927
N   N27       1.0  0.89134  0.81928  0.09358  1.0000 -0.3229095123
N   N28       1.0  0.65543  0.78261  0.10358  1.0000 -0.1183003933
N   N29       1.0  0.56767  0.73324  0.03667  1.0000 -0.2006082927
N   N30       1.0  0.60866  0.70224  0.92794  1.0000 -0.3229095123
N   N31       1.0  0.17903  0.55185  0.39642  1.0000 -0.1183003933
N   N32       1.0  0.19657  0.53100  0.46333  1.0000 -0.2006082927
N   N33       1.0  0.27430  0.68072  0.57206  1.0000 -0.3229095123
N   N34       1.0  0.32097  0.71739  0.37282  1.0000 -0.1183003933
N   N35       1.0  0.30343  0.76676  0.33443  1.0000 -0.2006082927
N   N36       1.0  0.22570  0.79776  0.40642  1.0000 -0.3229095123
N   N37       1.0  0.50000  0.00000  0.04192  1.0000 -0.1670708142
N   N38       1.0  0.45808  0.45808  0.45808  1.0000 -0.1670708142
N   N39       1.0  0.00000  0.04192  0.50000  1.0000 -0.1670708142
N   N40       1.0  0.04192  0.50000  0.00000  1.0000 -0.1670708142
Cl  Cl1       1.0  0.18717  0.43717  0.75000  1.0000 1.2723337926
Cl  Cl2       1.0  0.31283  0.06283  0.25000  1.0000 1.2723337926
Cl  Cl3       1.0  0.25000  0.31283  0.06283  1.0000 1.2723337926
Cl  Cl4       1.0  0.75000  0.18717  0.43717  1.0000 1.2723337926
Cl  Cl5       1.0  0.06283  0.25000  0.31283  1.0000 1.2723337926
Cl  Cl6       1.0  0.43717  0.75000  0.18717  1.0000 1.2723337926
O   O1        1.0  0.20130  0.37560  0.77630  1.0000 -0.5206797602
O   O2        1.0  0.24921  0.52468  0.82307  1.0000 -0.5125962379
O   O3        1.0  0.09930  0.42500  0.72370  1.0000 -0.5206797602
O   O4        1.0  0.20161  0.42614  0.67693  1.0000 -0.5125962379
O   O5        1.0  0.29870  0.07500  0.17430  1.0000 -0.5206797602
O   O6        1.0  0.25079  0.07386  0.27547  1.0000 -0.5125962379
O   O7        1.0  0.40070  0.12440  0.32570  1.0000 -0.5206797602
O   O8        1.0  0.29839  0.97532  0.22453  1.0000 -0.5125962379
O   O9        1.0  0.17430  0.29870  0.07500  1.0000 -0.5206797602
O   O10       1.0  0.27547  0.25079  0.07386  1.0000 -0.5125962379
O   O11       1.0  0.32570  0.40070  0.12440  1.0000 -0.5206797602
O   O12       1.0  0.22453  0.29839  0.97532  1.0000 -0.5125962379
O   O13       1.0  0.77630  0.20130  0.37560  1.0000 -0.5206797602
O   O14       1.0  0.82307  0.24921  0.52468  1.0000 -0.5125962379
O   O15       1.0  0.72370  0.09930  0.42500  1.0000 -0.5206797602
O   O16       1.0  0.67693  0.20161  0.42614  1.0000 -0.5125962379
O   O17       1.0  0.12440  0.32570  0.40070  1.0000 -0.5206797602
O   O18       1.0  0.97532  0.22453  0.29839  1.0000 -0.5125962379
O   O19       1.0  0.07500  0.17430  0.29870  1.0000 -0.5206797602
O   O20       1.0  0.07386  0.27547  0.25079  1.0000 -0.5125962379
O   O21       1.0  0.42500  0.72370  0.09930  1.0000 -0.5206797602
O   O22       1.0  0.42614  0.67693  0.20161  1.0000 -0.5125962379
O   O23       1.0  0.37560  0.77630  0.20130  1.0000 -0.5206797602
O   O24       1.0  0.52468  0.82307  0.24921  1.0000 -0.5125962379
