# DDEC6 charges by PACMAN v1.1 (https://github.com/mtap-research/PACMAN-charge/)
data_2017[Ag][srs]3[ION]14
_chemical_formula_sum              "Ag6 H108 C144 Br12 N40 Cl6 O24"
_cell_length_a       18.467
_cell_length_b       18.467
_cell_length_c       18.467
_cell_angle_alpha    109.471
_cell_angle_beta     109.471
_cell_angle_gamma    109.471

_symmetry_space_group_name_H-M    "P 1"
_symmetry_Int_Tables_number       1

loop_
  _symmetry_equiv_pos_as_xyz
  'x, y, z'

loop_
  _atom_site_type_symbol
  _atom_site_label
  _atom_site_symmetry_multiplicity
  _atom_site_fract_x
  _atom_site_fract_y
  _atom_site_fract_z
  _atom_site_occupancy
  _atom_site_charge
Ag  Ag1       1.0  0.25000  0.53735  0.28735  1.0000 0.287310806
Ag  Ag2       1.0  0.75000  0.96265  0.21265  1.0000 0.287310806
Ag  Ag3       1.0  0.96265  0.21265  0.75000  1.0000 0.287310806
Ag  Ag4       1.0  0.53735  0.28735  0.25000  1.0000 0.287310806
Ag  Ag5       1.0  0.28735  0.25000  0.53735  1.0000 0.287310806
Ag  Ag6       1.0  0.21265  0.75000  0.96265  1.0000 0.287310806
H   H1        1.0  0.04560  0.45710  0.39570  1.0000 0.1283287476
H   H2        1.0  0.17960  0.50680  0.39700  1.0000 0.111083604
H   H3        1.0  0.27920  0.74290  0.60910  1.0000 0.1283287476
H   H4        1.0  0.14460  0.69690  0.60310  1.0000 0.1283287476
H   H5        1.0  0.37860  0.71620  0.56140  1.0000 0.1175686639
H   H6        1.0  0.58840  0.70420  0.49220  1.0000 0.1582462858
H   H7        1.0  0.62750  0.66940  0.38510  1.0000 0.111083604
H   H8        1.0  0.51860  0.58990  0.23450  1.0000 0.1283287476
H   H9        1.0  0.47360  0.70540  0.52320  1.0000 0.287310806
H   H10       1.0  0.56140  0.64990  0.10430  1.0000 0.1283287476
H   H11       1.0  0.60980  0.78260  0.10300  1.0000 0.111083604
H   H12       1.0  0.63380  0.67010  0.89090  1.0000 0.1283287476
H   H13       1.0  0.59380  0.54150  0.89690  1.0000 0.1283287476
H   H14       1.0  0.65480  0.81720  0.93860  1.0000 0.1175686639
H   H15       1.0  0.71200  0.09620  0.00780  1.0000 0.1582462858
H   H16       1.0  0.78430  0.24240  0.11490  1.0000 0.111083604
H   H17       1.0  0.85540  0.28410  0.26550  1.0000 0.1283287476
H   H18       1.0  0.68220  0.95040  0.97680  1.0000 0.287310806
H   H19       1.0  0.45440  0.85010  0.41150  1.0000 0.1283287476
H   H20       1.0  0.32040  0.71740  0.32720  1.0000 0.111083604
H   H21       1.0  0.22080  0.82990  0.46370  1.0000 0.1283287476
H   H22       1.0  0.35540  0.95850  0.55230  1.0000 0.1283287476
H   H23       1.0  0.12140  0.68280  0.33760  1.0000 0.1175686639
H   H24       1.0  0.91160  0.40380  0.11580  1.0000 0.1582462858
H   H25       1.0  0.87250  0.25760  0.04190  1.0000 0.111083604
H   H26       1.0  0.98140  0.21590  0.07130  1.0000 0.1283287476
H   H27       1.0  0.02640  0.54960  0.23180  1.0000 0.287310806
H   H28       1.0  0.93860  0.04290  0.08850  1.0000 0.1283287476
H   H29       1.0  0.89020  0.99320  0.17280  1.0000 0.111083604
H   H30       1.0  0.86620  0.75710  0.03630  1.0000 0.1283287476
H   H31       1.0  0.90620  0.80310  0.94770  1.0000 0.1283287476
H   H32       1.0  0.84520  0.78380  0.16240  1.0000 0.1175686639
H   H33       1.0  0.78800  0.79580  0.38420  1.0000 0.1582462858
H   H34       1.0  0.71570  0.83060  0.45810  1.0000 0.111083604
H   H35       1.0  0.64460  0.91010  0.42870  1.0000 0.1283287476
H   H36       1.0  0.81780  0.79460  0.26820  1.0000 0.287310806
H   H37       1.0  0.04290  0.08850  0.93860  1.0000 0.1283287476
H   H38       1.0  0.99320  0.17280  0.89020  1.0000 0.111083604
H   H39       1.0  0.75710  0.03630  0.86620  1.0000 0.1283287476
H   H40       1.0  0.80310  0.94770  0.90620  1.0000 0.1283287476
H   H41       1.0  0.78380  0.16240  0.84520  1.0000 0.1175686639
H   H42       1.0  0.79580  0.38420  0.78800  1.0000 0.1582462858
H   H43       1.0  0.83060  0.45810  0.71570  1.0000 0.111083604
H   H44       1.0  0.91010  0.42870  0.64460  1.0000 0.1283287476
H   H45       1.0  0.79460  0.26820  0.81780  1.0000 0.287310806
H   H46       1.0  0.85010  0.41150  0.45440  1.0000 0.1283287476
H   H47       1.0  0.71740  0.32720  0.32040  1.0000 0.111083604
H   H48       1.0  0.82990  0.46370  0.22080  1.0000 0.1283287476
H   H49       1.0  0.95850  0.55230  0.35540  1.0000 0.1283287476
H   H50       1.0  0.68280  0.33760  0.12140  1.0000 0.1175686639
H   H51       1.0  0.40380  0.11580  0.91160  1.0000 0.1582462858
H   H52       1.0  0.25760  0.04190  0.87250  1.0000 0.111083604
H   H53       1.0  0.21590  0.07130  0.98140  1.0000 0.1283287476
H   H54       1.0  0.54960  0.23180  0.02640  1.0000 0.287310806
H   H55       1.0  0.64990  0.10430  0.56140  1.0000 0.1283287476
H   H56       1.0  0.78260  0.10300  0.60980  1.0000 0.111083604
H   H57       1.0  0.67010  0.89090  0.63380  1.0000 0.1283287476
H   H58       1.0  0.54150  0.89690  0.59380  1.0000 0.1283287476
H   H59       1.0  0.81720  0.93860  0.65480  1.0000 0.1175686639
H   H60       1.0  0.09620  0.00780  0.71200  1.0000 0.1582462858
H   H61       1.0  0.24240  0.11490  0.78430  1.0000 0.111083604
H   H62       1.0  0.28410  0.26550  0.85540  1.0000 0.1283287476
H   H63       1.0  0.95040  0.97680  0.68220  1.0000 0.287310806
H   H64       1.0  0.45710  0.39570  0.04560  1.0000 0.1283287476
H   H65       1.0  0.50680  0.39700  0.17960  1.0000 0.111083604
H   H66       1.0  0.74290  0.60910  0.27920  1.0000 0.1283287476
H   H67       1.0  0.69690  0.60310  0.14460  1.0000 0.1283287476
H   H68       1.0  0.71620  0.56140  0.37860  1.0000 0.1175686639
H   H69       1.0  0.70420  0.49220  0.58840  1.0000 0.1582462858
H   H70       1.0  0.66940  0.38510  0.62750  1.0000 0.111083604
H   H71       1.0  0.58990  0.23450  0.51860  1.0000 0.1283287476
H   H72       1.0  0.70540  0.52320  0.47360  1.0000 0.287310806
H   H73       1.0  0.41150  0.45440  0.85010  1.0000 0.1283287476
H   H74       1.0  0.32720  0.32040  0.71740  1.0000 0.111083604
H   H75       1.0  0.46370  0.22080  0.82990  1.0000 0.1283287476
H   H76       1.0  0.55230  0.35540  0.95850  1.0000 0.1283287476
H   H77       1.0  0.33760  0.12140  0.68280  1.0000 0.1175686639
H   H78       1.0  0.11580  0.91160  0.40380  1.0000 0.1582462858
H   H79       1.0  0.04190  0.87250  0.25760  1.0000 0.111083604
H   H80       1.0  0.07130  0.98140  0.21590  1.0000 0.1283287476
H   H81       1.0  0.23180  0.02640  0.54960  1.0000 0.287310806
H   H82       1.0  0.08850  0.93860  0.04290  1.0000 0.1283287476
H   H83       1.0  0.17280  0.89020  0.99320  1.0000 0.111083604
H   H84       1.0  0.03630  0.86620  0.75710  1.0000 0.1283287476
H   H85       1.0  0.94770  0.90620  0.80310  1.0000 0.1283287476
H   H86       1.0  0.16240  0.84520  0.78380  1.0000 0.1175686639
H   H87       1.0  0.38420  0.78800  0.79580  1.0000 0.1582462858
H   H88       1.0  0.45810  0.71570  0.83060  1.0000 0.111083604
H   H89       1.0  0.42870  0.64460  0.91010  1.0000 0.1283287476
H   H90       1.0  0.26820  0.81780  0.79460  1.0000 0.287310806
H   H91       1.0  0.39570  0.04560  0.45710  1.0000 0.1283287476
H   H92       1.0  0.39700  0.17960  0.50680  1.0000 0.111083604
H   H93       1.0  0.60910  0.27920  0.74290  1.0000 0.1283287476
H   H94       1.0  0.60310  0.14460  0.69690  1.0000 0.1283287476
H   H95       1.0  0.56140  0.37860  0.71620  1.0000 0.1175686639
H   H96       1.0  0.49220  0.58840  0.70420  1.0000 0.1582462858
H   H97       1.0  0.38510  0.62750  0.66940  1.0000 0.111083604
H   H98       1.0  0.23450  0.51860  0.58990  1.0000 0.1283287476
H   H99       1.0  0.52320  0.47360  0.70540  1.0000 0.287310806
H   H100      1.0  0.10430  0.56140  0.64990  1.0000 0.1283287476
H   H101      1.0  0.10300  0.60980  0.78260  1.0000 0.111083604
H   H102      1.0  0.89090  0.63380  0.67010  1.0000 0.1283287476
H   H103      1.0  0.89690  0.59380  0.54150  1.0000 0.1283287476
H   H104      1.0  0.93860  0.65480  0.81720  1.0000 0.1175686639
H   H105      1.0  0.00780  0.71200  0.09620  1.0000 0.1582462858
H   H106      1.0  0.11490  0.78430  0.24240  1.0000 0.111083604
H   H107      1.0  0.26550  0.85540  0.28410  1.0000 0.1283287476
H   H108      1.0  0.97680  0.68220  0.95040  1.0000 0.287310806
C   C1        1.0  0.08163  0.57166  0.50053  1.0000 0.1766864578
C   C2        1.0  0.09263  0.51523  0.43850  1.0000 -0.196550243
C   C3        1.0  0.17298  0.54482  0.43986  1.0000 -0.1362832938
C   C4        1.0  0.24317  0.62898  0.50291  1.0000 0.0615214645
C   C5        1.0  0.23175  0.68550  0.56525  1.0000 -0.1168602303
C   C6        1.0  0.15208  0.65748  0.56246  1.0000 -0.1818548967
C   C7        1.0  0.33072  0.66396  0.50928  1.0000 -0.0056190616
C   C8        1.0  0.45446  0.64212  0.40520  1.0000 0.3539026449
C   C9        1.0  0.54507  0.67137  0.43190  1.0000 -0.2307043843
C   C10       1.0  0.56770  0.65090  0.36860  1.0000 0.003290007
C   C11       1.0  0.50350  0.60290  0.27920  1.0000 -0.2307043843
C   C12       1.0  0.41690  0.57500  0.25910  1.0000 0.2382486235
C   C13       1.0  0.57113  0.58110  0.99947  1.0000 0.1766864578
C   C14       1.0  0.57673  0.65413  0.06150  1.0000 -0.196550243
C   C15       1.0  0.60496  0.73312  0.06014  1.0000 -0.1362832938
C   C16       1.0  0.62607  0.74026  0.99709  1.0000 0.0615214645
C   C17       1.0  0.62025  0.66650  0.93475  1.0000 -0.1168602303
C   C18       1.0  0.59502  0.58962  0.93754  1.0000 -0.1818548967
C   C19       1.0  0.65468  0.82144  0.99072  1.0000 -0.0056190616
C   C20       1.0  0.73692  0.04926  0.09480  1.0000 0.3539026449
C   C21       1.0  0.73947  0.11317  0.06810  1.0000 -0.2307043843
C   C22       1.0  0.78230  0.19910  0.13140  1.0000 0.003290007
C   C23       1.0  0.82370  0.22430  0.22080  1.0000 -0.2307043843
C   C24       1.0  0.81590  0.15780  0.24090  1.0000 0.2382486235
C   C25       1.0  0.41837  0.91890  0.49003  1.0000 0.1766864578
C   C26       1.0  0.40737  0.84587  0.42260  1.0000 -0.196550243
C   C27       1.0  0.32702  0.76688  0.37184  1.0000 -0.1362832938
C   C28       1.0  0.25683  0.75974  0.38581  1.0000 0.0615214645
C   C29       1.0  0.26825  0.83350  0.45375  1.0000 -0.1168602303
C   C30       1.0  0.34792  0.91038  0.50540  1.0000 -0.1818548967
C   C31       1.0  0.16928  0.67856  0.33324  1.0000 -0.0056190616
C   C32       1.0  0.04554  0.45074  0.18766  1.0000 0.3539026449
C   C33       1.0  0.95493  0.38683  0.12630  1.0000 -0.2307043843
C   C34       1.0  0.93230  0.30090  0.08320  1.0000 0.003290007
C   C35       1.0  0.99650  0.27570  0.09940  1.0000 -0.2307043843
C   C36       1.0  0.08310  0.34220  0.15810  1.0000 0.2382486235
C   C37       1.0  0.92887  0.92834  0.00997  1.0000 0.1766864578
C   C38       1.0  0.92327  0.98477  0.07740  1.0000 -0.196550243
C   C39       1.0  0.89504  0.95518  0.12816  1.0000 -0.1362832938
C   C40       1.0  0.87393  0.87102  0.11419  1.0000 0.0615214645
C   C41       1.0  0.87975  0.81450  0.04625  1.0000 -0.1168602303
C   C42       1.0  0.90498  0.84252  0.99460  1.0000 -0.1818548967
C   C43       1.0  0.84532  0.83604  0.16676  1.0000 -0.0056190616
C   C44       1.0  0.76308  0.85788  0.31234  1.0000 0.3539026449
C   C45       1.0  0.76053  0.82863  0.37370  1.0000 -0.2307043843
C   C46       1.0  0.71770  0.84910  0.41680  1.0000 0.003290007
C   C47       1.0  0.67630  0.89710  0.40060  1.0000 -0.2307043843
C   C48       1.0  0.68410  0.92500  0.34190  1.0000 0.2382486235
C   C49       1.0  0.92834  0.00997  0.92887  1.0000 0.1766864578
C   C50       1.0  0.98477  0.07740  0.92327  1.0000 -0.196550243
C   C51       1.0  0.95518  0.12816  0.89504  1.0000 -0.1362832938
C   C52       1.0  0.87102  0.11419  0.87393  1.0000 0.0615214645
C   C53       1.0  0.81450  0.04625  0.87975  1.0000 -0.1168602303
C   C54       1.0  0.84252  0.99460  0.90498  1.0000 -0.1818548967
C   C55       1.0  0.83604  0.16676  0.84532  1.0000 -0.0056190616
C   C56       1.0  0.85788  0.31234  0.76308  1.0000 0.3539026449
C   C57       1.0  0.82863  0.37370  0.76053  1.0000 -0.2307043843
C   C58       1.0  0.84910  0.41680  0.71770  1.0000 0.003290007
C   C59       1.0  0.89710  0.40060  0.67630  1.0000 -0.2307043843
C   C60       1.0  0.92500  0.34190  0.68410  1.0000 0.2382486235
C   C61       1.0  0.91890  0.49003  0.41837  1.0000 0.1766864578
C   C62       1.0  0.84587  0.42260  0.40737  1.0000 -0.196550243
C   C63       1.0  0.76688  0.37184  0.32702  1.0000 -0.1362832938
C   C64       1.0  0.75974  0.38581  0.25683  1.0000 0.0615214645
C   C65       1.0  0.83350  0.45375  0.26825  1.0000 -0.1168602303
C   C66       1.0  0.91038  0.50540  0.34792  1.0000 -0.1818548967
C   C67       1.0  0.67856  0.33324  0.16928  1.0000 -0.0056190616
C   C68       1.0  0.45074  0.18766  0.04554  1.0000 0.3539026449
C   C69       1.0  0.38683  0.12630  0.95493  1.0000 -0.2307043843
C   C70       1.0  0.30090  0.08320  0.93230  1.0000 0.003290007
C   C71       1.0  0.27570  0.09940  0.99650  1.0000 -0.2307043843
C   C72       1.0  0.34220  0.15810  0.08310  1.0000 0.2382486235
C   C73       1.0  0.58110  0.99947  0.57113  1.0000 0.1766864578
C   C74       1.0  0.65413  0.06150  0.57673  1.0000 -0.196550243
C   C75       1.0  0.73312  0.06014  0.60496  1.0000 -0.1362832938
C   C76       1.0  0.74026  0.99709  0.62607  1.0000 0.0615214645
C   C77       1.0  0.66650  0.93475  0.62025  1.0000 -0.1168602303
C   C78       1.0  0.58962  0.93754  0.59502  1.0000 -0.1818548967
C   C79       1.0  0.82144  0.99072  0.65468  1.0000 -0.0056190616
C   C80       1.0  0.04926  0.09480  0.73692  1.0000 0.3539026449
C   C81       1.0  0.11317  0.06810  0.73947  1.0000 -0.2307043843
C   C82       1.0  0.19910  0.13140  0.78230  1.0000 0.003290007
C   C83       1.0  0.22430  0.22080  0.82370  1.0000 -0.2307043843
C   C84       1.0  0.15780  0.24090  0.81590  1.0000 0.2382486235
C   C85       1.0  0.57166  0.50053  0.08163  1.0000 0.1766864578
C   C86       1.0  0.51523  0.43850  0.09263  1.0000 -0.196550243
C   C87       1.0  0.54482  0.43986  0.17298  1.0000 -0.1362832938
C   C88       1.0  0.62898  0.50291  0.24317  1.0000 0.0615214645
C   C89       1.0  0.68550  0.56525  0.23175  1.0000 -0.1168602303
C   C90       1.0  0.65748  0.56246  0.15208  1.0000 -0.1818548967
C   C91       1.0  0.66396  0.50928  0.33072  1.0000 -0.0056190616
C   C92       1.0  0.64212  0.40520  0.45446  1.0000 0.3539026449
C   C93       1.0  0.67137  0.43190  0.54507  1.0000 -0.2307043843
C   C94       1.0  0.65090  0.36860  0.56770  1.0000 0.003290007
C   C95       1.0  0.60290  0.27920  0.50350  1.0000 -0.2307043843
C   C96       1.0  0.57500  0.25910  0.41690  1.0000 0.2382486235
C   C97       1.0  0.49003  0.41837  0.91890  1.0000 0.1766864578
C   C98       1.0  0.42260  0.40737  0.84587  1.0000 -0.196550243
C   C99       1.0  0.37184  0.32702  0.76688  1.0000 -0.1362832938
C   C100      1.0  0.38581  0.25683  0.75974  1.0000 0.0615214645
C   C101      1.0  0.45375  0.26825  0.83350  1.0000 -0.1168602303
C   C102      1.0  0.50540  0.34792  0.91038  1.0000 -0.1818548967
C   C103      1.0  0.33324  0.16928  0.67856  1.0000 -0.0056190616
C   C104      1.0  0.18766  0.04554  0.45074  1.0000 0.3539026449
C   C105      1.0  0.12630  0.95493  0.38683  1.0000 -0.2307043843
C   C106      1.0  0.08320  0.93230  0.30090  1.0000 0.003290007
C   C107      1.0  0.09940  0.99650  0.27570  1.0000 -0.2307043843
C   C108      1.0  0.15810  0.08310  0.34220  1.0000 0.2382486235
C   C109      1.0  0.00997  0.92887  0.92834  1.0000 0.1766864578
C   C110      1.0  0.07740  0.92327  0.98477  1.0000 -0.196550243
C   C111      1.0  0.12816  0.89504  0.95518  1.0000 -0.1362832938
C   C112      1.0  0.11419  0.87393  0.87102  1.0000 0.0615214645
C   C113      1.0  0.04625  0.87975  0.81450  1.0000 -0.1168602303
C   C114      1.0  0.99460  0.90498  0.84252  1.0000 -0.1818548967
C   C115      1.0  0.16676  0.84532  0.83604  1.0000 -0.0056190616
C   C116      1.0  0.31234  0.76308  0.85788  1.0000 0.3539026449
C   C117      1.0  0.37370  0.76053  0.82863  1.0000 -0.2307043843
C   C118      1.0  0.41680  0.71770  0.84910  1.0000 0.003290007
C   C119      1.0  0.40060  0.67630  0.89710  1.0000 -0.2307043843
C   C120      1.0  0.34190  0.68410  0.92500  1.0000 0.2382486235
C   C121      1.0  0.50053  0.08163  0.57166  1.0000 0.1766864578
C   C122      1.0  0.43850  0.09263  0.51523  1.0000 -0.196550243
C   C123      1.0  0.43986  0.17298  0.54482  1.0000 -0.1362832938
C   C124      1.0  0.50291  0.24317  0.62898  1.0000 0.0615214645
C   C125      1.0  0.56525  0.23175  0.68550  1.0000 -0.1168602303
C   C126      1.0  0.56246  0.15208  0.65748  1.0000 -0.1818548967
C   C127      1.0  0.50928  0.33072  0.66396  1.0000 -0.0056190616
C   C128      1.0  0.40520  0.45446  0.64212  1.0000 0.3539026449
C   C129      1.0  0.43190  0.54507  0.67137  1.0000 -0.2307043843
C   C130      1.0  0.36860  0.56770  0.65090  1.0000 0.003290007
C   C131      1.0  0.27920  0.50350  0.60290  1.0000 -0.2307043843
C   C132      1.0  0.25910  0.41690  0.57500  1.0000 0.2382486235
C   C133      1.0  0.99947  0.57113  0.58110  1.0000 0.1766864578
C   C134      1.0  0.06150  0.57673  0.65413  1.0000 -0.196550243
C   C135      1.0  0.06014  0.60496  0.73312  1.0000 -0.1362832938
C   C136      1.0  0.99709  0.62607  0.74026  1.0000 0.0615214645
C   C137      1.0  0.93475  0.62025  0.66650  1.0000 -0.1168602303
C   C138      1.0  0.93754  0.59502  0.58962  1.0000 -0.1818548967
C   C139      1.0  0.99072  0.65468  0.82144  1.0000 -0.0056190616
C   C140      1.0  0.09480  0.73692  0.04926  1.0000 0.3539026449
C   C141      1.0  0.06810  0.73947  0.11317  1.0000 -0.2307043843
C   C142      1.0  0.13140  0.78230  0.19910  1.0000 0.003290007
C   C143      1.0  0.22080  0.82370  0.22430  1.0000 -0.2307043843
C   C144      1.0  0.24090  0.81590  0.15780  1.0000 0.2382486235
Br  Br1       1.0  0.32604  0.50551  0.14019  1.0000 -0.0935616032
Br  Br2       1.0  0.86532  0.18585  0.35981  1.0000 -0.0935616032
Br  Br3       1.0  0.17396  0.31415  0.17947  1.0000 -0.0935616032
Br  Br4       1.0  0.63468  0.99449  0.32053  1.0000 -0.0935616032
Br  Br5       1.0  0.99449  0.32053  0.63468  1.0000 -0.0935616032
Br  Br6       1.0  0.31415  0.17947  0.17396  1.0000 -0.0935616032
Br  Br7       1.0  0.18585  0.35981  0.86532  1.0000 -0.0935616032
Br  Br8       1.0  0.50551  0.14019  0.32604  1.0000 -0.0935616032
Br  Br9       1.0  0.17947  0.17396  0.31415  1.0000 -0.0935616032
Br  Br10      1.0  0.32053  0.63468  0.99449  1.0000 -0.0935616032
Br  Br11      1.0  0.14019  0.32604  0.50551  1.0000 -0.0935616032
Br  Br12      1.0  0.35981  0.86532  0.18585  1.0000 -0.0935616032
N   N1        1.0  0.34462  0.62722  0.44810  1.0000 -0.1168602303
N   N2        1.0  0.43217  0.66559  0.46872  1.0000 -0.196550243
N   N3        1.0  0.39156  0.59403  0.31959  1.0000 -0.3245948847
N   N4        1.0  0.67912  0.89652  0.05190  1.0000 -0.1168602303
N   N5        1.0  0.69687  0.96345  0.03128  1.0000 -0.196550243
N   N6        1.0  0.77444  0.07197  0.18041  1.0000 -0.3245948847
N   N7        1.0  0.15538  0.60348  0.28260  1.0000 -0.1168602303
N   N8        1.0  0.06783  0.53655  0.23342  1.0000 -0.196550243
N   N9        1.0  0.10844  0.42803  0.20247  1.0000 -0.3245948847
N   N10       1.0  0.82088  0.87278  0.21740  1.0000 -0.1168602303
N   N11       1.0  0.80313  0.83441  0.26658  1.0000 -0.196550243
N   N12       1.0  0.72556  0.90597  0.29753  1.0000 -0.3245948847
N   N13       1.0  0.87278  0.21740  0.82088  1.0000 -0.1168602303
N   N14       1.0  0.83441  0.26658  0.80313  1.0000 -0.196550243
N   N15       1.0  0.90597  0.29753  0.72556  1.0000 -0.3245948847
N   N16       1.0  0.60348  0.28260  0.15538  1.0000 -0.1168602303
N   N17       1.0  0.53655  0.23342  0.06783  1.0000 -0.196550243
N   N18       1.0  0.42803  0.20247  0.10844  1.0000 -0.3256669272
N   N19       1.0  0.89652  0.05190  0.67912  1.0000 -0.1168602303
N   N20       1.0  0.96345  0.03128  0.69687  1.0000 -0.196550243
N   N21       1.0  0.07197  0.18041  0.77444  1.0000 -0.3256669272
N   N22       1.0  0.62722  0.44810  0.34462  1.0000 -0.1168602303
N   N23       1.0  0.66559  0.46872  0.43217  1.0000 -0.196550243
N   N24       1.0  0.59403  0.31959  0.39156  1.0000 -0.3245948847
N   N25       1.0  0.28260  0.15538  0.60348  1.0000 -0.1168602303
N   N26       1.0  0.23342  0.06783  0.53655  1.0000 -0.196550243
N   N27       1.0  0.20247  0.10844  0.42803  1.0000 -0.3245948847
N   N28       1.0  0.21740  0.82088  0.87278  1.0000 -0.1168602303
N   N29       1.0  0.26658  0.80313  0.83441  1.0000 -0.196550243
N   N30       1.0  0.29753  0.72556  0.90597  1.0000 -0.3256669272
N   N31       1.0  0.44810  0.34462  0.62722  1.0000 -0.1168602303
N   N32       1.0  0.46872  0.43217  0.66559  1.0000 -0.196550243
N   N33       1.0  0.31959  0.39156  0.59403  1.0000 -0.3245948847
N   N34       1.0  0.05190  0.67912  0.89652  1.0000 -0.1168602303
N   N35       1.0  0.03128  0.69687  0.96345  1.0000 -0.196550243
N   N36       1.0  0.18041  0.77444  0.07197  1.0000 -0.3245948847
N   N37       1.0  0.00000  0.54202  0.50000  1.0000 -0.1646757056
N   N38       1.0  0.54202  0.50000  0.00000  1.0000 -0.1646757056
N   N39       1.0  0.50000  0.00000  0.54202  1.0000 -0.1646757056
N   N40       1.0  0.95798  0.95798  0.95798  1.0000 -0.1646757056
Cl  Cl1       1.0  0.56287  0.81287  0.75000  1.0000 1.2725035817
Cl  Cl2       1.0  0.93713  0.68713  0.25000  1.0000 1.2725035817
Cl  Cl3       1.0  0.25000  0.93713  0.68713  1.0000 1.2725035817
Cl  Cl4       1.0  0.75000  0.56287  0.81287  1.0000 1.2725035817
Cl  Cl5       1.0  0.68713  0.25000  0.93713  1.0000 1.2725035817
Cl  Cl6       1.0  0.81287  0.75000  0.56287  1.0000 1.2725035817
O   O1        1.0  0.47520  0.79831  0.72437  1.0000 -0.5103740324
O   O2        1.0  0.57492  0.79940  0.67452  1.0000 -0.5164869457
O   O3        1.0  0.57394  0.75083  0.77563  1.0000 -0.5103740324
O   O4        1.0  0.62488  0.90040  0.82548  1.0000 -0.5164869457
O   O5        1.0  0.02480  0.74917  0.32311  1.0000 -0.5103740324
O   O6        1.0  0.92508  0.59960  0.22448  1.0000 -0.5164869457
O   O7        1.0  0.92606  0.70169  0.17689  1.0000 -0.5103740324
O   O8        1.0  0.87512  0.70060  0.27552  1.0000 -0.5164869457
O   O9        1.0  0.32311  0.02480  0.74917  1.0000 -0.5103740324
O   O10       1.0  0.22448  0.92508  0.59960  1.0000 -0.5164869457
O   O11       1.0  0.17689  0.92606  0.70169  1.0000 -0.5103740324
O   O12       1.0  0.27552  0.87512  0.70060  1.0000 -0.5164869457
O   O13       1.0  0.72437  0.47520  0.79831  1.0000 -0.5103740324
O   O14       1.0  0.67452  0.57492  0.79940  1.0000 -0.5164869457
O   O15       1.0  0.77563  0.57394  0.75083  1.0000 -0.5103740324
O   O16       1.0  0.82548  0.62488  0.90040  1.0000 -0.5164869457
O   O17       1.0  0.70169  0.17689  0.92606  1.0000 -0.5103740324
O   O18       1.0  0.70060  0.27552  0.87512  1.0000 -0.5164869457
O   O19       1.0  0.74917  0.32311  0.02480  1.0000 -0.5103740324
O   O20       1.0  0.59960  0.22448  0.92508  1.0000 -0.5164869457
O   O21       1.0  0.75083  0.77563  0.57394  1.0000 -0.5103740324
O   O22       1.0  0.90040  0.82548  0.62488  1.0000 -0.5164869457
O   O23       1.0  0.79831  0.72437  0.47520  1.0000 -0.5103740324
O   O24       1.0  0.79940  0.67452  0.57492  1.0000 -0.5164869457
