# DDEC6 charges by PACMAN v1.1 (https://github.com/mtap-research/PACMAN-charge/)
data_2017[CuSi][nan]2[ION]1
_chemical_formula_sum              "Cu4 Si4 H96 C112 N16 Cl11"
_cell_length_a       20.2512
_cell_length_b       20.2512
_cell_length_c       20.2512
_cell_angle_alpha    138.02
_cell_angle_beta     138.02
_cell_angle_gamma    60.8717

_symmetry_space_group_name_H-M    "P 1"
_symmetry_Int_Tables_number       1

loop_
  _symmetry_equiv_pos_as_xyz
  'x, y, z'

loop_
  _atom_site_type_symbol
  _atom_site_label
  _atom_site_symmetry_multiplicity
  _atom_site_fract_x
  _atom_site_fract_y
  _atom_site_fract_z
  _atom_site_occupancy
  _atom_site_charge
Cu  Cu1       1.0  0.27179  0.27179  0.00000  1.0000 0.5912615597
Cu  Cu2       1.0  0.72821  0.72821  0.00000  1.0000 0.5912615597
Cu  Cu3       1.0  0.57291  0.57291  0.00000  1.0000 0.6138428389
Cu  Cu4       1.0  0.42709  0.42709  0.00000  1.0000 0.6138428389
Si  Si1       1.0  0.67214  0.17214  0.50000  1.0000 0.8960355758
Si  Si2       1.0  0.17214  0.67214  0.50000  1.0000 0.8960355758
Si  Si3       1.0  0.32786  0.82786  0.50000  1.0000 0.8960355758
Si  Si4       1.0  0.82786  0.32786  0.50000  1.0000 0.8960355758
H   H1        1.0  0.77130  0.33390  0.66740  1.0000 0.1806907156
H   H2        1.0  0.88380  0.19640  0.70040  1.0000 0.1256655468
H   H3        1.0  0.05620  0.22090  0.83210  1.0000 0.1217571076
H   H4        1.0  0.20940  0.45990  0.04190  1.0000 0.1076207051
H   H5        1.0  0.06410  0.52940  0.96930  1.0000 0.1358730552
H   H6        1.0  0.91040  0.44050  0.82130  1.0000 0.1217571076
H   H7        1.0  0.75240  0.07320  0.56600  1.0000 0.1806907156
H   H8        1.0  0.63760  0.96210  0.30290  1.0000 0.1217571076
H   H9        1.0  0.60470  0.78970  0.15960  1.0000 0.1076207051
H   H10       1.0  0.69460  0.63450  0.25770  1.0000 0.1076207051
H   H11       1.0  0.78260  0.77800  0.47600  1.0000 0.1358730552
H   H12       1.0  0.77730  0.93270  0.53660  1.0000 0.1358730552
H   H13       1.0  0.66650  0.10390  0.33260  1.0000 0.1806907156
H   H14       1.0  0.49600  0.18340  0.29960  1.0000 0.1256655468
H   H15       1.0  0.38880  0.22410  0.16790  1.0000 0.1217571076
H   H16       1.0  0.41800  0.16750  0.95810  1.0000 0.1076207051
H   H17       1.0  0.56010  0.09480  0.03070  1.0000 0.1358730552
H   H18       1.0  0.61920  0.08910  0.17870  1.0000 0.1217571076
H   H19       1.0  0.50720  0.18640  0.43400  1.0000 0.1806907156
H   H20       1.0  0.65920  0.33470  0.69710  1.0000 0.1217571076
H   H21       1.0  0.63010  0.44510  0.84040  1.0000 0.1076207051
H   H22       1.0  0.37680  0.43690  0.74230  1.0000 0.1076207051
H   H23       1.0  0.30200  0.30660  0.52400  1.0000 0.1358730552
H   H24       1.0  0.39610  0.24070  0.46340  1.0000 0.1358730552
H   H25       1.0  0.33390  0.66650  0.56260  1.0000 0.1806907156
H   H26       1.0  0.19640  0.49600  0.31260  1.0000 0.1256655468
H   H27       1.0  0.22090  0.38880  0.16470  1.0000 0.1217571076
H   H28       1.0  0.45990  0.41800  0.25050  1.0000 0.1076207051
H   H29       1.0  0.52940  0.56010  0.46530  1.0000 0.1358730552
H   H30       1.0  0.44050  0.61920  0.53010  1.0000 0.1217571076
H   H31       1.0  0.07320  0.50720  0.32080  1.0000 0.1806907156
H   H32       1.0  0.96210  0.65920  0.32450  1.0000 0.1217571076
H   H33       1.0  0.78970  0.63010  0.18500  1.0000 0.1076207051
H   H34       1.0  0.63450  0.37680  0.93990  1.0000 0.1076207051
H   H35       1.0  0.77800  0.30200  0.99540  1.0000 0.1358730552
H   H36       1.0  0.93270  0.39610  0.15540  1.0000 0.1358730552
H   H37       1.0  0.10390  0.77130  0.43740  1.0000 0.1806907156
H   H38       1.0  0.18340  0.88380  0.68740  1.0000 0.1256655468
H   H39       1.0  0.22410  0.05620  0.83530  1.0000 0.1217571076
H   H40       1.0  0.16750  0.20940  0.74950  1.0000 0.1076207051
H   H41       1.0  0.09480  0.06410  0.53470  1.0000 0.1358730552
H   H42       1.0  0.08910  0.91040  0.46990  1.0000 0.1217571076
H   H43       1.0  0.18640  0.75240  0.67920  1.0000 0.1806907156
H   H44       1.0  0.33470  0.63760  0.67550  1.0000 0.1217571076
H   H45       1.0  0.44510  0.60470  0.81500  1.0000 0.1076207051
H   H46       1.0  0.43690  0.69460  0.06010  1.0000 0.1076207051
H   H47       1.0  0.30660  0.78260  0.00460  1.0000 0.1358730552
H   H48       1.0  0.24070  0.77730  0.84460  1.0000 0.1358730552
H   H49       1.0  0.22870  0.66610  0.33260  1.0000 0.1806907156
H   H50       1.0  0.11620  0.80360  0.29960  1.0000 0.1256655468
H   H51       1.0  0.94380  0.77910  0.16790  1.0000 0.1217571076
H   H52       1.0  0.79060  0.54010  0.95810  1.0000 0.1076207051
H   H53       1.0  0.93590  0.47060  0.03070  1.0000 0.1358730552
H   H54       1.0  0.08960  0.55950  0.17870  1.0000 0.1217571076
H   H55       1.0  0.24760  0.92680  0.43400  1.0000 0.1806907156
H   H56       1.0  0.36240  0.03790  0.69710  1.0000 0.1217571076
H   H57       1.0  0.39530  0.21030  0.84040  1.0000 0.1076207051
H   H58       1.0  0.30540  0.36550  0.74230  1.0000 0.1076207051
H   H59       1.0  0.21740  0.22200  0.52400  1.0000 0.1358730552
H   H60       1.0  0.22270  0.06730  0.46340  1.0000 0.1358730552
H   H61       1.0  0.33350  0.89610  0.66740  1.0000 0.1806907156
H   H62       1.0  0.50400  0.81660  0.70040  1.0000 0.1256655468
H   H63       1.0  0.61120  0.77590  0.83210  1.0000 0.1217571076
H   H64       1.0  0.58200  0.83250  0.04190  1.0000 0.1076207051
H   H65       1.0  0.43990  0.90520  0.96930  1.0000 0.1358730552
H   H66       1.0  0.38080  0.91090  0.82130  1.0000 0.1217571076
H   H67       1.0  0.49280  0.81360  0.56600  1.0000 0.1806907156
H   H68       1.0  0.34080  0.66530  0.30290  1.0000 0.1217571076
H   H69       1.0  0.36990  0.55490  0.15960  1.0000 0.1076207051
H   H70       1.0  0.62320  0.56310  0.25770  1.0000 0.1076207051
H   H71       1.0  0.69800  0.69340  0.47600  1.0000 0.1358730552
H   H72       1.0  0.60390  0.75930  0.53660  1.0000 0.1358730552
H   H73       1.0  0.66610  0.33350  0.43740  1.0000 0.1806907156
H   H74       1.0  0.80360  0.50400  0.68740  1.0000 0.1256655468
H   H75       1.0  0.77910  0.61120  0.83530  1.0000 0.1217571076
H   H76       1.0  0.54010  0.58200  0.74950  1.0000 0.1076207051
H   H77       1.0  0.47060  0.43990  0.53470  1.0000 0.1358730552
H   H78       1.0  0.55950  0.38080  0.46990  1.0000 0.1217571076
H   H79       1.0  0.92680  0.49280  0.67920  1.0000 0.1806907156
H   H80       1.0  0.03790  0.34080  0.67550  1.0000 0.1217571076
H   H81       1.0  0.21030  0.36990  0.81500  1.0000 0.1076207051
H   H82       1.0  0.36550  0.62320  0.06010  1.0000 0.1076207051
H   H83       1.0  0.22200  0.69800  0.00460  1.0000 0.1358730552
H   H84       1.0  0.06730  0.60390  0.84460  1.0000 0.1358730552
H   H85       1.0  0.89610  0.22870  0.56260  1.0000 0.1806907156
H   H86       1.0  0.81660  0.11620  0.31260  1.0000 0.1256655468
H   H87       1.0  0.77590  0.94380  0.16470  1.0000 0.1217571076
H   H88       1.0  0.83250  0.79060  0.25050  1.0000 0.1076207051
H   H89       1.0  0.90520  0.93590  0.46530  1.0000 0.1358730552
H   H90       1.0  0.91090  0.08960  0.53010  1.0000 0.1217571076
H   H91       1.0  0.81360  0.24760  0.32080  1.0000 0.1806907156
H   H92       1.0  0.66530  0.36240  0.32450  1.0000 0.1217571076
H   H93       1.0  0.55490  0.39530  0.18500  1.0000 0.1076207051
H   H94       1.0  0.56310  0.30540  0.93990  1.0000 0.1076207051
H   H95       1.0  0.69340  0.21740  0.99540  1.0000 0.1358730552
H   H96       1.0  0.75930  0.22270  0.15540  1.0000 0.1358730552
C   C1        1.0  0.78209  0.27010  0.64325  1.0000 -0.4616392241
C   C2        1.0  0.87567  0.25495  0.71390  1.0000 -0.0559770256
C   C3        1.0  0.96745  0.32051  0.81082  1.0000 0.0895951032
C   C4        1.0  0.05718  0.28397  0.85903  1.0000 0.0158536569
C   C5        1.0  0.14711  0.42376  0.98221  1.0000 0.0515430872
C   C6        1.0  0.06096  0.46547  0.93931  1.0000 -0.1192347394
C   C7        1.0  0.97030  0.41322  0.85236  1.0000 -0.0754787805
C   C8        1.0  0.70822  0.06271  0.48873  1.0000 -0.4219339848
C   C9        1.0  0.67434  0.96975  0.37601  1.0000 -0.0513514541
C   C10       1.0  0.68731  0.87801  0.35210  1.0000 0.0895951032
C   C11       1.0  0.64061  0.78829  0.22548  1.0000 0.0058114153
C   C12       1.0  0.69376  0.69686  0.28210  1.0000 0.0515430872
C   C13       1.0  0.74535  0.78205  0.41190  1.0000 -0.1365638007
C   C14       1.0  0.74229  0.87339  0.44770  1.0000 -0.0721639353
C   C15       1.0  0.62685  0.13884  0.35675  1.0000 -0.4616392241
C   C16       1.0  0.54105  0.16177  0.28610  1.0000 -0.0559770256
C   C17       1.0  0.50969  0.15663  0.18918  1.0000 0.0895951032
C   C18       1.0  0.42494  0.19815  0.14097  1.0000 0.0158536569
C   C19       1.0  0.44155  0.16490  0.01779  1.0000 0.0515430872
C   C20       1.0  0.52616  0.12165  0.06069  1.0000 -0.1192347394
C   C21       1.0  0.56086  0.11794  0.14764  1.0000 -0.0754787805
C   C22       1.0  0.57398  0.21949  0.51127  1.0000 -0.4219339848
C   C23       1.0  0.59374  0.29833  0.62399  1.0000 -0.0513514541
C   C24       1.0  0.52591  0.33521  0.64790  1.0000 0.0895951032
C   C25       1.0  0.56281  0.41513  0.77452  1.0000 0.0058114153
C   C26       1.0  0.41476  0.41166  0.71790  1.0000 0.0515430872
C   C27       1.0  0.37015  0.33345  0.58810  1.0000 -0.1365638007
C   C28       1.0  0.42569  0.29459  0.55230  1.0000 -0.0721639353
C   C29       1.0  0.27010  0.62685  0.48801  1.0000 -0.4616392241
C   C30       1.0  0.25495  0.54105  0.37928  1.0000 -0.0559770256
C   C31       1.0  0.32051  0.50969  0.35306  1.0000 0.0895951032
C   C32       1.0  0.28397  0.42494  0.22679  1.0000 0.0158536569
C   C33       1.0  0.42376  0.44155  0.27665  1.0000 0.0515430872
C   C34       1.0  0.46547  0.52616  0.40451  1.0000 -0.1192347394
C   C35       1.0  0.41322  0.56086  0.44292  1.0000 -0.0754787805
C   C36       1.0  0.06271  0.57398  0.35449  1.0000 -0.4219339848
C   C37       1.0  0.96975  0.59374  0.29541  1.0000 -0.0513514541
C   C38       1.0  0.87801  0.52591  0.19070  1.0000 0.0895951032
C   C39       1.0  0.78829  0.56281  0.14768  1.0000 0.0049479869
C   C40       1.0  0.69686  0.41476  0.00310  1.0000 0.0515430872
C   C41       1.0  0.78205  0.37015  0.03670  1.0000 -0.1365638007
C   C42       1.0  0.87339  0.42569  0.13110  1.0000 -0.0721639353
C   C43       1.0  0.13884  0.78209  0.51199  1.0000 -0.4616392241
C   C44       1.0  0.16177  0.87567  0.62072  1.0000 -0.0559770256
C   C45       1.0  0.15663  0.96745  0.64694  1.0000 0.0895951032
C   C46       1.0  0.19815  0.05718  0.77321  1.0000 0.0158536569
C   C47       1.0  0.16490  0.14711  0.72335  1.0000 0.0515430872
C   C48       1.0  0.12165  0.06096  0.59549  1.0000 -0.1192347394
C   C49       1.0  0.11794  0.97030  0.55708  1.0000 -0.0754787805
C   C50       1.0  0.21949  0.70822  0.64551  1.0000 -0.4219339848
C   C51       1.0  0.29833  0.67434  0.70459  1.0000 -0.0513514541
C   C52       1.0  0.33521  0.68731  0.80930  1.0000 0.0895951032
C   C53       1.0  0.41513  0.64061  0.85232  1.0000 0.0058114153
C   C54       1.0  0.41166  0.69376  0.99690  1.0000 0.0515430872
C   C55       1.0  0.33345  0.74535  0.96330  1.0000 -0.1365638007
C   C56       1.0  0.29459  0.74229  0.86890  1.0000 -0.0721639353
C   C57       1.0  0.21791  0.72990  0.35675  1.0000 -0.4616392241
C   C58       1.0  0.12433  0.74505  0.28610  1.0000 -0.0559770256
C   C59       1.0  0.03255  0.67949  0.18918  1.0000 0.0895951032
C   C60       1.0  0.94282  0.71603  0.14097  1.0000 0.0158536569
C   C61       1.0  0.85289  0.57624  0.01779  1.0000 0.0515430872
C   C62       1.0  0.93904  0.53453  0.06069  1.0000 -0.1192347394
C   C63       1.0  0.02970  0.58678  0.14764  1.0000 -0.0754787805
C   C64       1.0  0.29178  0.93729  0.51127  1.0000 -0.4219339848
C   C65       1.0  0.32566  0.03025  0.62399  1.0000 -0.0513514541
C   C66       1.0  0.31269  0.12199  0.64790  1.0000 0.0895951032
C   C67       1.0  0.35939  0.21171  0.77452  1.0000 0.0058114153
C   C68       1.0  0.30624  0.30314  0.71790  1.0000 0.0515430872
C   C69       1.0  0.25465  0.21795  0.58810  1.0000 -0.1365638007
C   C70       1.0  0.25771  0.12661  0.55230  1.0000 -0.0721639353
C   C71       1.0  0.37315  0.86116  0.64325  1.0000 -0.4616392241
C   C72       1.0  0.45895  0.83823  0.71390  1.0000 -0.0559770256
C   C73       1.0  0.49031  0.84337  0.81082  1.0000 0.0895951032
C   C74       1.0  0.57506  0.80185  0.85903  1.0000 0.0158536569
C   C75       1.0  0.55845  0.83510  0.98221  1.0000 0.0515430872
C   C76       1.0  0.47384  0.87835  0.93931  1.0000 -0.1192347394
C   C77       1.0  0.43914  0.88206  0.85236  1.0000 -0.0754787805
C   C78       1.0  0.42602  0.78051  0.48873  1.0000 -0.4219339848
C   C79       1.0  0.40626  0.70167  0.37601  1.0000 -0.0513514541
C   C80       1.0  0.47409  0.66479  0.35210  1.0000 0.0895951032
C   C81       1.0  0.43719  0.58487  0.22548  1.0000 0.0058114153
C   C82       1.0  0.58524  0.58834  0.28210  1.0000 0.0515430872
C   C83       1.0  0.62985  0.66655  0.41190  1.0000 -0.1365638007
C   C84       1.0  0.57431  0.70541  0.44770  1.0000 -0.0721639353
C   C85       1.0  0.72990  0.37315  0.51199  1.0000 -0.4616392241
C   C86       1.0  0.74505  0.45895  0.62072  1.0000 -0.0559770256
C   C87       1.0  0.67949  0.49031  0.64694  1.0000 0.0895951032
C   C88       1.0  0.71603  0.57506  0.77321  1.0000 0.0158536569
C   C89       1.0  0.57624  0.55845  0.72335  1.0000 0.0515430872
C   C90       1.0  0.53453  0.47384  0.59549  1.0000 -0.1192347394
C   C91       1.0  0.58678  0.43914  0.55708  1.0000 -0.0754787805
C   C92       1.0  0.93729  0.42602  0.64551  1.0000 -0.4219339848
C   C93       1.0  0.03025  0.40626  0.70459  1.0000 -0.0513514541
C   C94       1.0  0.12199  0.47409  0.80930  1.0000 0.0895951032
C   C95       1.0  0.21171  0.43719  0.85232  1.0000 0.0058114153
C   C96       1.0  0.30314  0.58524  0.99690  1.0000 0.0515430872
C   C97       1.0  0.21795  0.62985  0.96330  1.0000 -0.1365638007
C   C98       1.0  0.12661  0.57431  0.86890  1.0000 -0.0721639353
C   C99       1.0  0.86116  0.21791  0.48801  1.0000 -0.4616392241
C   C100      1.0  0.83823  0.12433  0.37928  1.0000 -0.0559770256
C   C101      1.0  0.84337  0.03255  0.35306  1.0000 0.0895951032
C   C102      1.0  0.80185  0.94282  0.22679  1.0000 0.0158536569
C   C103      1.0  0.83510  0.85289  0.27665  1.0000 0.0515430872
C   C104      1.0  0.87835  0.93904  0.40451  1.0000 -0.1192347394
C   C105      1.0  0.88206  0.02970  0.44292  1.0000 -0.0754787805
C   C106      1.0  0.78051  0.29178  0.35449  1.0000 -0.4219339848
C   C107      1.0  0.70167  0.32566  0.29541  1.0000 -0.0513514541
C   C108      1.0  0.66479  0.31269  0.19070  1.0000 0.0895951032
C   C109      1.0  0.58487  0.35939  0.14768  1.0000 0.0049479869
C   C110      1.0  0.58834  0.30624  0.00310  1.0000 0.0515430872
C   C111      1.0  0.66655  0.25465  0.03670  1.0000 -0.1365638007
C   C112      1.0  0.70541  0.25771  0.13110  1.0000 -0.0721639353
N   N1        1.0  0.14509  0.33378  0.94183  1.0000 -0.1963763
N   N2        1.0  0.64263  0.69923  0.18944  1.0000 -0.1886885636
N   N3        1.0  0.39195  0.20326  0.05817  1.0000 -0.1963763
N   N4        1.0  0.50979  0.45319  0.81056  1.0000 -0.1886885636
N   N5        1.0  0.33378  0.39195  0.18869  1.0000 -0.1963763
N   N6        1.0  0.69923  0.50979  0.05660  1.0000 -0.1886885636
N   N7        1.0  0.20326  0.14509  0.81131  1.0000 -0.1963763
N   N8        1.0  0.45319  0.64263  0.94340  1.0000 -0.1886885636
N   N9        1.0  0.85491  0.66622  0.05817  1.0000 -0.1963763
N   N10       1.0  0.35737  0.30077  0.81056  1.0000 -0.1886885636
N   N11       1.0  0.60805  0.79674  0.94183  1.0000 -0.1963763
N   N12       1.0  0.49021  0.54681  0.18944  1.0000 -0.1886885636
N   N13       1.0  0.66622  0.60805  0.81131  1.0000 -0.1963763
N   N14       1.0  0.30077  0.49021  0.94340  1.0000 -0.1886885636
N   N15       1.0  0.79674  0.85491  0.18869  1.0000 -0.1963763
N   N16       1.0  0.54681  0.35737  0.05660  1.0000 -0.1886885636
Cl  Cl1       1.0  0.34489  0.34489  0.00000  1.0000 -0.6337750615
Cl  Cl2       1.0  0.65511  0.65511  0.00000  1.0000 -0.6391097665
Cl  Cl3       1.0  0.50000  0.50000  0.00000  1.0000 -0.6391097665
Cl  Cl4       1.0  0.98999  0.04160  0.71669  1.0000 -0.6142706336
Cl  Cl5       1.0  0.32491  0.27330  0.28331  1.0000 -0.6205532314
Cl  Cl6       1.0  0.27330  0.98999  0.94839  1.0000 -0.6205532314
Cl  Cl7       1.0  0.04160  0.32491  0.05161  1.0000 -0.6142706336
Cl  Cl8       1.0  0.01001  0.95840  0.28331  1.0000 -0.6205532314
Cl  Cl9       1.0  0.67509  0.72670  0.71669  1.0000 -0.6205532314
Cl  Cl10      1.0  0.72670  0.01001  0.05161  1.0000 -0.6142706336
Cl  Cl11      1.0  0.95840  0.67509  0.94839  1.0000 -0.6142706336
