# DDEC6 charges by PACMAN v1.1 (https://github.com/mtap-research/PACMAN-charge/)
data_2017[Ag][sql]2[ION]2
_chemical_formula_sum              "Ag6 H60 C66 S8 N12 Cl2 O8"
_cell_length_a       9.5865
_cell_length_b       14.4713
_cell_length_c       18.8006
_cell_angle_alpha    72.909
_cell_angle_beta     81.6
_cell_angle_gamma    80.627

_symmetry_space_group_name_H-M    "P 1"
_symmetry_Int_Tables_number       1

loop_
  _symmetry_equiv_pos_as_xyz
  'x, y, z'

loop_
  _atom_site_type_symbol
  _atom_site_label
  _atom_site_symmetry_multiplicity
  _atom_site_fract_x
  _atom_site_fract_y
  _atom_site_fract_z
  _atom_site_occupancy
  _atom_site_charge
Ag  Ag1       1.0  0.90832  0.15358  0.29181  1.0000 0.2822837918
Ag  Ag2       1.0  0.12826  0.29887  0.19231  1.0000 0.2881677537
Ag  Ag3       1.0  0.88231  0.93803  0.06229  1.0000 0.4023845284
Ag  Ag4       1.0  0.09168  0.84642  0.70819  1.0000 0.2822837918
Ag  Ag5       1.0  0.87174  0.70113  0.80769  1.0000 0.2881677537
Ag  Ag6       1.0  0.11769  0.06197  0.93771  1.0000 0.4023845284
H   H1        1.0  0.70390  0.19440  0.17250  1.0000 0.1182285695
H   H2        1.0  0.52460  0.30490  0.11850  1.0000 0.1297972174
H   H3        1.0  0.58770  0.47970  0.23720  1.0000 0.1403902683
H   H4        1.0  0.75770  0.36270  0.29210  1.0000 0.1016721806
H   H5        1.0  0.38080  0.57000  0.21760  1.0000 0.1297972174
H   H6        1.0  0.47380  0.61760  0.14390  1.0000 0.1403902683
H   H7        1.0  0.29430  0.67490  0.02600  1.0000 0.1297972174
H   H8        1.0  0.10860  0.79490  0.99340  1.0000 0.1106144306
H   H9        1.0  0.99810  0.79200  0.20110  1.0000 0.1182285695
H   H10       1.0  0.18280  0.67650  0.23770  1.0000 0.1403902683
H   H11       1.0  0.05650  0.16930  0.42060  1.0000 0.0935456543
H   H12       1.0  0.20960  0.07770  0.50850  1.0000 0.1297972174
H   H13       1.0  0.22460  0.85420  0.42660  1.0000 0.1473884522
H   H14       1.0  0.07520  0.94650  0.34130  1.0000 0.1297972174
H   H15       1.0  0.42730  0.87080  0.50970  1.0000 0.1403902683
H   H16       1.0  0.29440  0.82820  0.56120  1.0000 0.1297972174
H   H17       1.0  0.51740  0.98480  0.69620  1.0000 0.1473884522
H   H18       1.0  0.69810  0.90070  0.76170  1.0000 0.1182285695
H   H19       1.0  0.69400  0.67620  0.69140  1.0000 0.1016721806
H   H20       1.0  0.52270  0.76130  0.61130  1.0000 0.1297972174
H   H21       1.0  0.71860  0.04970  0.92900  1.0000 0.1182285695
H   H22       1.0  0.51860  0.15460  0.89620  1.0000 0.1403902683
H   H23       1.0  0.40750  0.14110  0.11220  1.0000 0.1297972174
H   H24       1.0  0.61360  0.04100  0.13900  1.0000 0.1106144306
H   H25       1.0  0.22160  0.19810  0.00820  1.0000 0.1473884522
H   H26       1.0  0.29470  0.23890  0.92650  1.0000 0.1297972174
H   H27       1.0  0.12380  0.35390  0.88800  1.0000 0.1403902683
H   H28       1.0  0.97960  0.48170  0.82330  1.0000 0.1016721806
H   H29       1.0  0.07520  0.65350  0.92810  1.0000 0.1106144306
H   H30       1.0  0.22810  0.53250  0.99380  1.0000 0.1182285695
H   H31       1.0  0.29610  0.80560  0.82750  1.0000 0.1182285695
H   H32       1.0  0.47540  0.69510  0.88150  1.0000 0.1297972174
H   H33       1.0  0.41230  0.52030  0.76280  1.0000 0.1403902683
H   H34       1.0  0.24230  0.63730  0.70790  1.0000 0.1016721806
H   H35       1.0  0.61920  0.43000  0.78240  1.0000 0.1297972174
H   H36       1.0  0.52620  0.38240  0.85610  1.0000 0.1403902683
H   H37       1.0  0.70570  0.32510  0.97400  1.0000 0.1297972174
H   H38       1.0  0.89140  0.20510  0.00660  1.0000 0.1106144306
H   H39       1.0  0.00190  0.20800  0.79890  1.0000 0.1182285695
H   H40       1.0  0.81720  0.32350  0.76230  1.0000 0.1403902683
H   H41       1.0  0.94350  0.83070  0.57940  1.0000 0.0935456543
H   H42       1.0  0.79040  0.92230  0.49150  1.0000 0.1297972174
H   H43       1.0  0.77540  0.14580  0.57340  1.0000 0.1473884522
H   H44       1.0  0.92480  0.05350  0.65870  1.0000 0.1297972174
H   H45       1.0  0.57270  0.12920  0.49030  1.0000 0.1403902683
H   H46       1.0  0.70560  0.17180  0.43880  1.0000 0.1297972174
H   H47       1.0  0.48260  0.01520  0.30380  1.0000 0.1473884522
H   H48       1.0  0.30190  0.09930  0.23830  1.0000 0.1182285695
H   H49       1.0  0.30600  0.32380  0.30860  1.0000 0.1016721806
H   H50       1.0  0.47730  0.23870  0.38870  1.0000 0.1297972174
H   H51       1.0  0.28140  0.95030  0.07100  1.0000 0.1182285695
H   H52       1.0  0.48140  0.84540  0.10380  1.0000 0.1403902683
H   H53       1.0  0.59250  0.85890  0.88780  1.0000 0.1297972174
H   H54       1.0  0.38640  0.95900  0.86100  1.0000 0.1106144306
H   H55       1.0  0.77840  0.80190  0.99180  1.0000 0.1473884522
H   H56       1.0  0.70530  0.76110  0.07350  1.0000 0.1297972174
H   H57       1.0  0.87620  0.64610  0.11200  1.0000 0.1403902683
H   H58       1.0  0.02040  0.51830  0.17670  1.0000 0.1016721806
H   H59       1.0  0.92480  0.34650  0.07190  1.0000 0.1106144306
H   H60       1.0  0.77190  0.46750  0.00620  1.0000 0.1182285695
C   C1        1.0  0.68000  0.25220  0.18610  1.0000 0.07151165
C   C2        1.0  0.57170  0.31840  0.15350  1.0000 -0.2002798976
C   C3        1.0  0.53280  0.40430  0.17260  1.0000 0.1016721806
C   C4        1.0  0.60800  0.42140  0.22420  1.0000 -0.1888500743
C   C5        1.0  0.71230  0.35150  0.25550  1.0000 0.0608268717
C   C6        1.0  0.38640  0.58900  0.16340  1.0000 -0.2864491553
C   C7        1.0  0.26190  0.66270  0.13800  1.0000 0.1577618322
C   C8        1.0  0.23650  0.69900  0.06250  1.0000 -0.2184973271
C   C9        1.0  0.12450  0.77090  0.04350  1.0000 0.0608268717
C   C10       1.0  0.05990  0.76990  0.16490  1.0000 0.0807583327
C   C11       1.0  0.17040  0.69960  0.18710  1.0000 -0.1888500743
C   C12       1.0  0.09020  0.10510  0.42130  1.0000 0.0935456543
C   C13       1.0  0.18320  0.04970  0.47470  1.0000 -0.2121918138
C   C14       1.0  0.23280  0.95830  0.47670  1.0000 0.1577618322
C   C15       1.0  0.19150  0.91840  0.42610  1.0000 -0.2002798976
C   C16       1.0  0.10200  0.97390  0.37540  1.0000 0.07151165
C   C17       1.0  0.33530  0.88770  0.53510  1.0000 -0.3106061132
C   C18       1.0  0.49670  0.88330  0.64660  1.0000 0.1016721806
C   C19       1.0  0.55320  0.92240  0.69260  1.0000 -0.2002798976
C   C20       1.0  0.66040  0.87080  0.73260  1.0000 0.0807583327
C   C21       1.0  0.66040  0.74050  0.69040  1.0000 0.0608268717
C   C22       1.0  0.55360  0.79020  0.64330  1.0000 -0.2121918138
C   C23       1.0  0.65570  0.06900  0.96600  1.0000 0.07151165
C   C24       1.0  0.53520  0.13170  0.94630  1.0000 -0.1888500743
C   C25       1.0  0.43760  0.16120  0.00000  1.0000 0.1728359251
C   C26       1.0  0.46960  0.12440  0.07370  1.0000 -0.2121918138
C   C27       1.0  0.59340  0.06340  0.08940  1.0000 0.0807583327
C   C28       1.0  0.30390  0.22690  0.97920  1.0000 -0.2837192179
C   C29       1.0  0.19720  0.42830  0.94890  1.0000 0.1106144306
C   C30       1.0  0.11710  0.41460  0.89660  1.0000 -0.1828744621
C   C31       1.0  0.02950  0.49160  0.85880  1.0000 0.0468155848
C   C32       1.0  0.08590  0.59240  0.91970  1.0000 0.0807583327
C   C33       1.0  0.17820  0.51990  0.95950  1.0000 -0.2002798976
C   C34       1.0  0.32000  0.74780  0.81390  1.0000 0.07151165
C   C35       1.0  0.42830  0.68160  0.84650  1.0000 -0.2002798976
C   C36       1.0  0.46720  0.59570  0.82740  1.0000 0.1016721806
C   C37       1.0  0.39200  0.57860  0.77580  1.0000 -0.1888500743
C   C38       1.0  0.28770  0.64850  0.74450  1.0000 0.0608268717
C   C39       1.0  0.61360  0.41100  0.83660  1.0000 -0.2864491553
C   C40       1.0  0.73810  0.33730  0.86200  1.0000 0.1577618322
C   C41       1.0  0.76350  0.30100  0.93750  1.0000 -0.2184973271
C   C42       1.0  0.87550  0.22910  0.95650  1.0000 0.0608268717
C   C43       1.0  0.94010  0.23010  0.83510  1.0000 0.0807583327
C   C44       1.0  0.82960  0.30040  0.81290  1.0000 -0.1888500743
C   C45       1.0  0.90980  0.89490  0.57870  1.0000 0.0935456543
C   C46       1.0  0.81680  0.95030  0.52530  1.0000 -0.2121918138
C   C47       1.0  0.76720  0.04170  0.52330  1.0000 0.1577618322
C   C48       1.0  0.80850  0.08160  0.57390  1.0000 -0.2002798976
C   C49       1.0  0.89800  0.02610  0.62460  1.0000 0.07151165
C   C50       1.0  0.66470  0.11230  0.46490  1.0000 -0.3106061132
C   C51       1.0  0.50330  0.11670  0.35340  1.0000 0.1016721806
C   C52       1.0  0.44680  0.07760  0.30740  1.0000 -0.2002798976
C   C53       1.0  0.33960  0.12920  0.26740  1.0000 0.0807583327
C   C54       1.0  0.33960  0.25950  0.30960  1.0000 0.0608268717
C   C55       1.0  0.44640  0.20980  0.35670  1.0000 -0.2121918138
C   C56       1.0  0.34430  0.93100  0.03400  1.0000 0.07151165
C   C57       1.0  0.46480  0.86830  0.05370  1.0000 -0.1888500743
C   C58       1.0  0.56240  0.83880  0.00000  1.0000 0.1728359251
C   C59       1.0  0.53040  0.87560  0.92630  1.0000 -0.2121918138
C   C60       1.0  0.40660  0.93660  0.91060  1.0000 0.0807583327
C   C61       1.0  0.69610  0.77310  0.02080  1.0000 -0.2837192179
C   C62       1.0  0.80280  0.57170  0.05110  1.0000 0.1106144306
C   C63       1.0  0.88290  0.58540  0.10340  1.0000 -0.1828744621
C   C64       1.0  0.97050  0.50840  0.14120  1.0000 0.0468155848
C   C65       1.0  0.91410  0.40760  0.08030  1.0000 0.0807583327
C   C66       1.0  0.82180  0.48010  0.04050  1.0000 -0.2002798976
S   S1        1.0  0.38915  0.48300  0.13137  1.0000 -0.0058426618
S   S2        1.0  0.35260  0.95568  0.60022  1.0000 0.0172138004
S   S3        1.0  0.31912  0.34067  0.00034  1.0000 0.0389026342
S   S4        1.0  0.04775  0.07316  0.15049  1.0000 1.3625061302
S   S5        1.0  0.61085  0.51700  0.86863  1.0000 -0.0058426618
S   S6        1.0  0.64740  0.04432  0.39978  1.0000 0.0110199977
S   S7        1.0  0.68088  0.65933  0.99966  1.0000 0.0389026342
S   S8        1.0  0.95225  0.92684  0.84951  1.0000 1.3625061302
N   N1        1.0  0.75380  0.26720  0.23710  1.0000 -0.1888500743
N   N2        1.0  0.03710  0.80810  0.09340  1.0000 -0.1888500743
N   N3        1.0  0.05040  0.06810  0.37280  1.0000 -0.1888500743
N   N4        1.0  0.71510  0.78080  0.73310  1.0000 -0.2002798976
N   N5        1.0  0.68530  0.03460  0.03840  1.0000 -0.2002798976
N   N6        1.0  0.01040  0.58080  0.86940  1.0000 -0.2002798976
N   N7        1.0  0.24620  0.73280  0.76290  1.0000 -0.2002798976
N   N8        1.0  0.96290  0.19190  0.90660  1.0000 -0.1888500743
N   N9        1.0  0.94960  0.93190  0.62720  1.0000 -0.1888500743
N   N10       1.0  0.28490  0.21920  0.26690  1.0000 -0.2002798976
N   N11       1.0  0.31470  0.96540  0.96160  1.0000 -0.2002798976
N   N12       1.0  0.98960  0.41920  0.13060  1.0000 -0.2002798976
Cl  Cl1       1.0  0.34170  0.22320  0.79190  1.0000 -0.6793473275
Cl  Cl2       1.0  0.65830  0.77680  0.20810  1.0000 -0.6793473275
O   O1        1.0  0.91700  0.05250  0.20270  1.0000 -0.6793473275
O   O2        1.0  0.06300  0.17580  0.13630  1.0000 -0.6706645252
O   O3        1.0  0.17010  0.01310  0.18300  1.0000 -0.6599577875
O   O4        1.0  0.03490  0.05380  0.08030  1.0000 -0.6706645252
O   O5        1.0  0.08300  0.94750  0.79730  1.0000 -0.6793473275
O   O6        1.0  0.93700  0.82420  0.86370  1.0000 -0.6706645252
O   O7        1.0  0.82990  0.98690  0.81700  1.0000 -0.6599577875
O   O8        1.0  0.96510  0.94620  0.91970  1.0000 -0.6706645252
