# DDEC6 charges by PACMAN v1.1 (https://github.com/mtap-research/PACMAN-charge/)
data_2017[Co][bnn]3[ION]6
_chemical_formula_sum              "Co4 H76 C94 S2 N12 O18 F6"
_cell_length_a       10.2257
_cell_length_b       25.2473
_cell_length_c       11.4244
_cell_angle_alpha    90
_cell_angle_beta     90.97
_cell_angle_gamma    90

_symmetry_space_group_name_H-M    "P 1"
_symmetry_Int_Tables_number       1

loop_
  _symmetry_equiv_pos_as_xyz
  'x, y, z'

loop_
  _atom_site_type_symbol
  _atom_site_label
  _atom_site_symmetry_multiplicity
  _atom_site_fract_x
  _atom_site_fract_y
  _atom_site_fract_z
  _atom_site_occupancy
  _atom_site_charge
Co  Co1       1.0  0.04465  0.29500  0.46393  1.0000 0.7712876988
Co  Co2       1.0  0.54741  0.21185  0.47170  1.0000 0.7784397495
Co  Co3       1.0  0.95535  0.79500  0.53607  1.0000 0.7712876988
Co  Co4       1.0  0.45259  0.71185  0.52830  1.0000 0.7784397495
H   H1        1.0  0.45400  0.30400  0.52900  1.0000 0.3547406984
H   H2        1.0  0.95200  0.19970  0.38500  1.0000 0.3435241473
H   H3        1.0  0.23180  0.28210  0.05080  1.0000 0.1293407199
H   H4        1.0  0.22870  0.28140  0.25350  1.0000 0.1002469916
H   H5        1.0  0.73900  0.18380  0.88390  1.0000 0.1193285142
H   H6        1.0  0.84560  0.28400  0.87470  1.0000 0.1193285142
H   H7        1.0  0.84870  0.27750  0.67480  1.0000 0.1002469916
H   H8        1.0  0.85350  0.32780  0.04940  1.0000 0.1359145534
H   H9        1.0  0.86470  0.33030  0.25310  1.0000 0.1002469916
H   H10       1.0  0.22340  0.31510  0.67030  1.0000 0.1105423445
H   H11       1.0  0.28910  0.35850  0.39340  1.0000 0.1002469916
H   H12       1.0  0.74060  0.22050  0.06440  1.0000 0.1193285142
H   H13       1.0  0.23080  0.32260  0.87170  1.0000 0.1293407199
H   H14       1.0  0.73250  0.22570  0.26400  1.0000 0.1002469916
H   H15       1.0  0.35550  0.18540  0.05650  1.0000 0.1293407199
H   H16       1.0  0.73220  0.18650  0.68010  1.0000 0.090439823
H   H17       1.0  0.35830  0.22890  0.88050  1.0000 0.1193285142
H   H18       1.0  0.55340  0.59670  0.52210  1.0000 0.1002469916
H   H19       1.0  0.36430  0.23050  0.67910  1.0000 0.1002469916
H   H20       1.0  0.35820  0.19030  0.25860  1.0000 0.090439823
H   H21       1.0  0.62750  0.35500  0.52760  1.0000 0.090439823
H   H22       1.0  0.49880  0.31140  0.25630  1.0000 0.1002469916
H   H23       1.0  0.14030  0.16030  0.36510  1.0000 0.090439823
H   H24       1.0  0.06030  0.48820  0.58750  1.0000 0.1193285142
H   H25       1.0  0.38400  0.44050  0.41730  1.0000 0.1293407199
H   H26       1.0  0.60850  0.44130  0.07270  1.0000 0.1105423445
H   H27       1.0  0.73130  0.42240  0.40800  1.0000 0.1105423445
H   H28       1.0  0.97730  0.40360  0.56630  1.0000 0.1105423445
H   H29       1.0  0.49610  0.36110  0.08220  1.0000 0.1193285142
H   H30       1.0  0.72130  0.47280  0.23720  1.0000 0.1002469916
H   H31       1.0  0.47910  0.51120  0.51070  1.0000 0.1293407199
H   H32       1.0  0.19410  0.65130  0.52750  1.0000 0.1002469916
H   H33       1.0  0.11030  0.56680  0.52200  1.0000 0.1105423445
H   H34       1.0  0.02900  0.18520  0.65700  1.0000 0.1105423445
H   H35       1.0  0.19480  0.07660  0.44610  1.0000 0.1193285142
H   H36       1.0  0.05090  0.03470  0.76010  1.0000 0.1193285142
H   H37       1.0  0.15850  0.00900  0.58760  1.0000 0.1002469916
H   H38       1.0  0.00820  0.12060  0.80280  1.0000 0.1105423445
H   H39       1.0  0.54600  0.80400  0.47100  1.0000 0.3547406984
H   H40       1.0  0.04800  0.69970  0.61500  1.0000 0.3435241473
H   H41       1.0  0.76820  0.78210  0.94920  1.0000 0.1293407199
H   H42       1.0  0.77130  0.78140  0.74650  1.0000 0.1002469916
H   H43       1.0  0.26100  0.68380  0.11610  1.0000 0.1193285142
H   H44       1.0  0.15440  0.78400  0.12530  1.0000 0.1193285142
H   H45       1.0  0.15130  0.77750  0.32520  1.0000 0.1002469916
H   H46       1.0  0.14650  0.82780  0.95060  1.0000 0.1359145534
H   H47       1.0  0.13530  0.83030  0.74690  1.0000 0.1002469916
H   H48       1.0  0.77660  0.81510  0.32970  1.0000 0.1105423445
H   H49       1.0  0.71090  0.85850  0.60660  1.0000 0.1002469916
H   H50       1.0  0.25940  0.72050  0.93560  1.0000 0.1193285142
H   H51       1.0  0.76920  0.82260  0.12830  1.0000 0.1293407199
H   H52       1.0  0.26750  0.72570  0.73600  1.0000 0.1002469916
H   H53       1.0  0.64450  0.68540  0.94350  1.0000 0.1293407199
H   H54       1.0  0.26780  0.68650  0.31990  1.0000 0.090439823
H   H55       1.0  0.64170  0.72890  0.11950  1.0000 0.1193285142
H   H56       1.0  0.44660  0.09670  0.47790  1.0000 0.1002469916
H   H57       1.0  0.63570  0.73050  0.32090  1.0000 0.1002469916
H   H58       1.0  0.64180  0.69030  0.74140  1.0000 0.090439823
H   H59       1.0  0.37250  0.85500  0.47240  1.0000 0.090439823
H   H60       1.0  0.50120  0.81140  0.74370  1.0000 0.1002469916
H   H61       1.0  0.85970  0.66030  0.63490  1.0000 0.090439823
H   H62       1.0  0.93970  0.98820  0.41250  1.0000 0.1193285142
H   H63       1.0  0.61600  0.94050  0.58270  1.0000 0.1293407199
H   H64       1.0  0.39150  0.94130  0.92730  1.0000 0.1105423445
H   H65       1.0  0.26870  0.92240  0.59200  1.0000 0.1105423445
H   H66       1.0  0.02270  0.90360  0.43370  1.0000 0.1105423445
H   H67       1.0  0.50390  0.86110  0.91780  1.0000 0.1193285142
H   H68       1.0  0.27870  0.97280  0.76280  1.0000 0.1002469916
H   H69       1.0  0.52090  0.01120  0.48930  1.0000 0.1293407199
H   H70       1.0  0.80590  0.15130  0.47250  1.0000 0.1002469916
H   H71       1.0  0.88970  0.06680  0.47800  1.0000 0.1105423445
H   H72       1.0  0.97100  0.68520  0.34300  1.0000 0.1105423445
H   H73       1.0  0.80520  0.57660  0.55390  1.0000 0.1193285142
H   H74       1.0  0.94910  0.53470  0.23990  1.0000 0.1193285142
H   H75       1.0  0.84150  0.50900  0.41240  1.0000 0.1105423445
H   H76       1.0  0.99180  0.62060  0.19720  1.0000 0.1105423445
C   C1        1.0  0.74670  0.29470  0.46530  1.0000 0.5592948091
C   C2        1.0  0.15340  0.29080  0.09000  1.0000 -0.1973497155
C   C3        1.0  0.15060  0.29060  0.21210  1.0000 0.0810021159
C   C4        1.0  0.66030  0.19330  0.84380  1.0000 -0.1973497155
C   C5        1.0  0.92520  0.28950  0.83480  1.0000 -0.1893809343
C   C6        1.0  0.92750  0.28610  0.71590  1.0000 0.0810021159
C   C7        1.0  0.93210  0.31810  0.08950  1.0000 -0.1893809343
C   C8        1.0  0.54830  0.20520  0.03550  1.0000 0.1105423445
C   C9        1.0  0.54770  0.20540  0.90650  1.0000 0.1105423445
C   C10       1.0  0.93890  0.31840  0.21150  1.0000 0.0682764952
C   C11       1.0  0.14640  0.30800  0.71300  1.0000 0.0810021159
C   C12       1.0  0.24280  0.38510  0.43430  1.0000 0.1002469916
C   C13       1.0  0.04020  0.30120  0.89850  1.0000 0.1002469916
C   C14       1.0  0.24800  0.21370  0.46530  1.0000 0.5418373239
C   C15       1.0  0.65960  0.21510  0.10210  1.0000 -0.1893809343
C   C16       1.0  0.15170  0.31230  0.83320  1.0000 -0.1893809343
C   C17       1.0  0.04270  0.30350  0.02690  1.0000 0.1105423445
C   C18       1.0  0.65470  0.21720  0.22130  1.0000 0.0682764952
C   C19       1.0  0.43420  0.19440  0.09730  1.0000 -0.2064632582
C   C20       1.0  0.65570  0.19530  0.72190  1.0000 0.090439823
C   C21       1.0  0.43670  0.21980  0.84190  1.0000 -0.1810166868
C   C22       1.0  0.46160  0.59080  0.52100  1.0000 0.0810021159
C   C23       1.0  0.61450  0.36150  0.34780  1.0000 0.0682764952
C   C24       1.0  0.44150  0.22090  0.72140  1.0000 0.1002469916
C   C25       1.0  0.43710  0.19680  0.21830  1.0000 0.0682764952
C   C26       1.0  0.62380  0.32970  0.46010  1.0000 -0.0040709145
C   C27       1.0  0.54550  0.34390  0.25260  1.0000 -0.1492287475
C   C28       1.0  0.12960  0.17840  0.44220  1.0000 -0.0219000024
C   C29       1.0  0.10890  0.46210  0.54740  1.0000 -0.1973497155
C   C30       1.0  0.29900  0.43410  0.44630  1.0000 -0.1810166868
C   C31       1.0  0.60970  0.42130  0.14320  1.0000 -0.0992699015
C   C32       1.0  0.68240  0.41000  0.34200  1.0000 -0.1603147867
C   C33       1.0  0.06020  0.41160  0.53430  1.0000 0.0810021159
C   C34       1.0  0.54340  0.37370  0.14890  1.0000 -0.0919317226
C   C35       1.0  0.67760  0.43970  0.24020  1.0000 -0.0992699015
C   C36       1.0  0.28510  0.52920  0.51190  1.0000 0.1105423445
C   C37       1.0  0.23050  0.47440  0.50130  1.0000 0.1105423445
C   C38       1.0  0.41820  0.53960  0.51410  1.0000 -0.1893809343
C   C39       1.0  0.25340  0.62240  0.52490  1.0000 0.0514203128
C   C40       1.0  0.20220  0.57200  0.51990  1.0000 -0.1893809343
C   C41       1.0  0.11240  0.13660  0.53620  1.0000 0.0615911824
C   C42       1.0  0.05640  0.14980  0.64280  1.0000 -0.1399023789
C   C43       1.0  0.15260  0.08510  0.51720  1.0000 -0.1603147867
C   C44       1.0  0.07150  0.06110  0.70390  1.0000 -0.1164616155
C   C45       1.0  0.13260  0.04470  0.60040  1.0000 -0.1065091424
C   C46       1.0  0.04060  0.11140  0.72810  1.0000 -0.0992699015
C   C47       1.0  0.25330  0.79470  0.53470  1.0000 0.5592948091
C   C48       1.0  0.84660  0.79080  0.91000  1.0000 -0.1973497155
C   C49       1.0  0.84940  0.79060  0.78790  1.0000 0.0810021159
C   C50       1.0  0.33970  0.69330  0.15620  1.0000 -0.1973497155
C   C51       1.0  0.07480  0.78950  0.16520  1.0000 -0.1893809343
C   C52       1.0  0.07250  0.78610  0.28410  1.0000 0.0810021159
C   C53       1.0  0.06790  0.81810  0.91050  1.0000 -0.1893809343
C   C54       1.0  0.45170  0.70520  0.96450  1.0000 0.1105423445
C   C55       1.0  0.45230  0.70540  0.09350  1.0000 0.1105423445
C   C56       1.0  0.06110  0.81840  0.78850  1.0000 0.0682764952
C   C57       1.0  0.85360  0.80800  0.28700  1.0000 0.0810021159
C   C58       1.0  0.75720  0.88510  0.56570  1.0000 0.1002469916
C   C59       1.0  0.95980  0.80120  0.10150  1.0000 0.1002469916
C   C60       1.0  0.75200  0.71370  0.53470  1.0000 0.5418373239
C   C61       1.0  0.34040  0.71510  0.89790  1.0000 -0.1893809343
C   C62       1.0  0.84830  0.81230  0.16680  1.0000 -0.1893809343
C   C63       1.0  0.95730  0.80350  0.97310  1.0000 0.1105423445
C   C64       1.0  0.34530  0.71720  0.77870  1.0000 0.0682764952
C   C65       1.0  0.56580  0.69440  0.90270  1.0000 -0.2064632582
C   C66       1.0  0.34430  0.69530  0.27810  1.0000 0.090439823
C   C67       1.0  0.56330  0.71980  0.15810  1.0000 -0.1810166868
C   C68       1.0  0.53840  0.09080  0.47900  1.0000 0.0810021159
C   C69       1.0  0.38550  0.86150  0.65220  1.0000 0.0682764952
C   C70       1.0  0.55850  0.72090  0.27860  1.0000 0.1002469916
C   C71       1.0  0.56290  0.69680  0.78170  1.0000 0.0682764952
C   C72       1.0  0.37620  0.82970  0.53990  1.0000 -0.0040709145
C   C73       1.0  0.45450  0.84390  0.74740  1.0000 -0.1492287475
C   C74       1.0  0.87040  0.67840  0.55780  1.0000 -0.0219000024
C   C75       1.0  0.89110  0.96210  0.45260  1.0000 -0.1973497155
C   C76       1.0  0.70100  0.93410  0.55370  1.0000 -0.1810166868
C   C77       1.0  0.39030  0.92130  0.85680  1.0000 -0.0992699015
C   C78       1.0  0.31760  0.91000  0.65800  1.0000 -0.1603147867
C   C79       1.0  0.93980  0.91160  0.46570  1.0000 0.0810021159
C   C80       1.0  0.45660  0.87370  0.85110  1.0000 -0.0919317226
C   C81       1.0  0.32240  0.93970  0.75980  1.0000 -0.1065091424
C   C82       1.0  0.71490  0.02920  0.48810  1.0000 0.1105423445
C   C83       1.0  0.76950  0.97440  0.49870  1.0000 0.1105423445
C   C84       1.0  0.58180  0.03960  0.48590  1.0000 -0.1893809343
C   C85       1.0  0.74660  0.12240  0.47510  1.0000 0.0514203128
C   C86       1.0  0.79780  0.07200  0.48010  1.0000 -0.1893809343
C   C87       1.0  0.88760  0.63660  0.46380  1.0000 0.0615911824
C   C88       1.0  0.94360  0.64980  0.35720  1.0000 -0.1399023789
C   C89       1.0  0.84740  0.58510  0.48280  1.0000 -0.1603147867
C   C90       1.0  0.92850  0.56110  0.29610  1.0000 -0.1164616155
C   C91       1.0  0.86740  0.54470  0.39960  1.0000 -0.1065091424
C   C92       1.0  0.95940  0.61140  0.27190  1.0000 -0.0992699015
C   C93       1.0  0.44350  0.92880  0.25060  1.0000 0.4927809728
C   C94       1.0  0.55650  0.42880  0.74940  1.0000 0.4927809728
S   S1        1.0  0.48330  0.85951  0.23620  1.0000 0.9882140052
S   S2        1.0  0.51670  0.35951  0.76380  1.0000 0.9882140052
N   N1        1.0  0.03730  0.29430  0.65350  1.0000 -0.2587240992
N   N2        1.0  0.54750  0.20920  0.66090  1.0000 -0.23880922
N   N3        1.0  0.04610  0.30250  0.27390  1.0000 -0.2587240992
N   N4        1.0  0.54450  0.20780  0.28150  1.0000 -0.23880922
N   N5        1.0  0.12520  0.37280  0.47770  1.0000 -0.2587240992
N   N6        1.0  0.38350  0.63330  0.52630  1.0000 -0.2533791917
N   N7        1.0  0.96270  0.79430  0.34650  1.0000 -0.2587240992
N   N8        1.0  0.45250  0.70920  0.33910  1.0000 -0.23880922
N   N9        1.0  0.95390  0.80250  0.72610  1.0000 -0.2587240992
N   N10       1.0  0.45550  0.70780  0.71850  1.0000 -0.23880922
N   N11       1.0  0.87480  0.87280  0.52230  1.0000 -0.2587240992
N   N12       1.0  0.61650  0.13330  0.47370  1.0000 -0.2533791917
O   O1        1.0  0.23300  0.26250  0.47590  1.0000 -0.5291632521
O   O2        1.0  0.73310  0.24480  0.47250  1.0000 -0.5667949426
O   O3        1.0  0.51080  0.29630  0.47270  1.0000 -0.5054662335
O   O4        1.0  0.85310  0.31880  0.46130  1.0000 -0.5470724213
O   O5        1.0  0.35520  0.18920  0.47320  1.0000 -0.5590163576
O   O6        1.0  0.01400  0.21100  0.43620  1.0000 -0.4925391483
O   O7        1.0  0.76700  0.76250  0.52410  1.0000 -0.5291632521
O   O8        1.0  0.26690  0.74480  0.52750  1.0000 -0.5667949426
O   O9        1.0  0.48920  0.79630  0.52730  1.0000 -0.5054662335
O   O10       1.0  0.14690  0.81880  0.53870  1.0000 -0.5470724213
O   O11       1.0  0.64480  0.68920  0.52680  1.0000 -0.5590163576
O   O12       1.0  0.98600  0.71100  0.56380  1.0000 -0.4925391483
O   O13       1.0  0.56820  0.85030  0.33600  1.0000 -0.5590163576
O   O14       1.0  0.35700  0.83390  0.24370  1.0000 -0.5667949426
O   O15       1.0  0.54800  0.85660  0.12540  1.0000 -0.5667949426
O   O16       1.0  0.43180  0.35030  0.66400  1.0000 -0.5667949426
O   O17       1.0  0.64300  0.33390  0.75630  1.0000 -0.5667949426
O   O18       1.0  0.45200  0.35660  0.87460  1.0000 -0.5667949426
F   F1        1.0  0.38280  0.93960  0.35210  1.0000 -0.2064632582
F   F2        1.0  0.36210  0.94560  0.16480  1.0000 -0.1973497155
F   F3        1.0  0.55030  0.95940  0.25120  1.0000 -0.1893809343
F   F4        1.0  0.61720  0.43960  0.64790  1.0000 -0.2064632582
F   F5        1.0  0.63790  0.44560  0.83520  1.0000 -0.1973497155
F   F6        1.0  0.44970  0.45940  0.74880  1.0000 -0.1893809343
