# DDEC6 charges by PACMAN v1.1 (https://github.com/mtap-research/PACMAN-charge/)
data_2017[Zn][utp]3[ION]1
_chemical_formula_sum              "Zn8 H136 C168 N24 O64"
_cell_length_a       8.0756
_cell_length_b       17.8114
_cell_length_c       31.441
_cell_angle_alpha    90
_cell_angle_beta     90
_cell_angle_gamma    90

_symmetry_space_group_name_H-M    "P 1"
_symmetry_Int_Tables_number       1

loop_
  _symmetry_equiv_pos_as_xyz
  'x, y, z'

loop_
  _atom_site_type_symbol
  _atom_site_label
  _atom_site_symmetry_multiplicity
  _atom_site_fract_x
  _atom_site_fract_y
  _atom_site_fract_z
  _atom_site_occupancy
  _atom_site_charge
Zn  Zn1       1.0  0.70864  0.26606  0.42071  1.0000 0.8216860074
Zn  Zn2       1.0  0.79136  0.23394  0.92071  1.0000 0.8216860074
Zn  Zn3       1.0  0.29136  0.76606  0.42071  1.0000 0.8216860074
Zn  Zn4       1.0  0.20864  0.73394  0.92071  1.0000 0.8216860074
Zn  Zn5       1.0  0.70864  0.23394  0.57929  1.0000 0.8216860074
Zn  Zn6       1.0  0.79136  0.26606  0.07929  1.0000 0.8216860074
Zn  Zn7       1.0  0.29136  0.73394  0.57929  1.0000 0.8216860074
Zn  Zn8       1.0  0.20864  0.76606  0.07929  1.0000 0.8216860074
H   H1        1.0  0.90270  0.16300  0.43530  1.0000 0.3502668145
H   H2        1.0  0.91500  0.21220  0.46940  1.0000 0.3696626502
H   H3        1.0  0.84890  0.47010  0.52650  1.0000 0.123867435
H   H4        1.0  0.67140  0.67600  0.50280  1.0000 0.1303538546
H   H5        1.0  0.56200  0.50560  0.42430  1.0000 0.108332144
H   H6        1.0  0.96220  0.57250  0.56360  1.0000 0.1303538546
H   H7        1.0  0.92400  0.65480  0.54920  1.0000 0.1303538546
H   H8        1.0  0.73120  0.51200  0.60700  1.0000 0.1303538546
H   H9        1.0  0.60030  0.52590  0.67030  1.0000 0.151393686
H   H10       1.0  0.65200  0.74780  0.65990  1.0000 0.151393686
H   H11       1.0  0.78410  0.73050  0.59640  1.0000 0.1303538546
H   H12       1.0  0.50410  0.60010  0.72890  1.0000 0.123867435
H   H13       1.0  0.54590  0.75090  0.72340  1.0000 0.123867435
H   H14       1.0  0.43450  0.60100  0.79460  1.0000 0.1303538546
H   H15       1.0  0.31440  0.61520  0.86000  1.0000 0.108332144
H   H16       1.0  0.29130  0.83180  0.84540  1.0000 0.108332144
H   H17       1.0  0.41560  0.82330  0.78030  1.0000 0.1391004625
H   H18       1.0  0.59730  0.33700  0.93530  1.0000 0.3502668145
H   H19       1.0  0.58500  0.28780  0.96940  1.0000 0.3696626502
H   H20       1.0  0.65110  0.02990  0.02650  1.0000 0.123867435
H   H21       1.0  0.82860  0.82400  0.00280  1.0000 0.1303538546
H   H22       1.0  0.93800  0.99440  0.92430  1.0000 0.108332144
H   H23       1.0  0.53780  0.92750  0.06360  1.0000 0.1303538546
H   H24       1.0  0.57600  0.84520  0.04920  1.0000 0.1303538546
H   H25       1.0  0.76880  0.98800  0.10700  1.0000 0.1303538546
H   H26       1.0  0.89970  0.97410  0.17030  1.0000 0.151393686
H   H27       1.0  0.84800  0.75220  0.15990  1.0000 0.151393686
H   H28       1.0  0.71590  0.76950  0.09640  1.0000 0.1303538546
H   H29       1.0  0.99590  0.89990  0.22890  1.0000 0.123867435
H   H30       1.0  0.95410  0.74910  0.22340  1.0000 0.123867435
H   H31       1.0  0.06550  0.89900  0.29460  1.0000 0.1303538546
H   H32       1.0  0.18560  0.88480  0.36000  1.0000 0.108332144
H   H33       1.0  0.20870  0.66820  0.34540  1.0000 0.108332144
H   H34       1.0  0.08440  0.67670  0.28030  1.0000 0.1391004625
H   H35       1.0  0.09730  0.66300  0.43530  1.0000 0.3502668145
H   H36       1.0  0.08500  0.71220  0.46940  1.0000 0.3696626502
H   H37       1.0  0.15110  0.97010  0.52650  1.0000 0.123867435
H   H38       1.0  0.32860  0.17600  0.50280  1.0000 0.1303538546
H   H39       1.0  0.43800  0.00560  0.42430  1.0000 0.108332144
H   H40       1.0  0.03780  0.07250  0.56360  1.0000 0.1303538546
H   H41       1.0  0.07600  0.15480  0.54920  1.0000 0.1303538546
H   H42       1.0  0.26880  0.01200  0.60700  1.0000 0.1303538546
H   H43       1.0  0.39970  0.02590  0.67030  1.0000 0.151393686
H   H44       1.0  0.34800  0.24780  0.65990  1.0000 0.151393686
H   H45       1.0  0.21590  0.23050  0.59640  1.0000 0.1303538546
H   H46       1.0  0.49590  0.10010  0.72890  1.0000 0.123867435
H   H47       1.0  0.45410  0.25090  0.72340  1.0000 0.123867435
H   H48       1.0  0.56550  0.10100  0.79460  1.0000 0.1303538546
H   H49       1.0  0.68560  0.11520  0.86000  1.0000 0.108332144
H   H50       1.0  0.70870  0.33180  0.84540  1.0000 0.108332144
H   H51       1.0  0.58440  0.32330  0.78030  1.0000 0.1391004625
H   H52       1.0  0.40270  0.83700  0.93530  1.0000 0.3502668145
H   H53       1.0  0.41500  0.78780  0.96940  1.0000 0.3696626502
H   H54       1.0  0.34890  0.52990  0.02650  1.0000 0.123867435
H   H55       1.0  0.17140  0.32400  0.00280  1.0000 0.1303538546
H   H56       1.0  0.06200  0.49440  0.92430  1.0000 0.108332144
H   H57       1.0  0.46220  0.42750  0.06360  1.0000 0.1303538546
H   H58       1.0  0.42400  0.34520  0.04920  1.0000 0.1303538546
H   H59       1.0  0.23120  0.48800  0.10700  1.0000 0.1303538546
H   H60       1.0  0.10030  0.47410  0.17030  1.0000 0.151393686
H   H61       1.0  0.15200  0.25220  0.15990  1.0000 0.151393686
H   H62       1.0  0.28410  0.26950  0.09640  1.0000 0.1303538546
H   H63       1.0  0.00410  0.39990  0.22890  1.0000 0.123867435
H   H64       1.0  0.04590  0.24910  0.22340  1.0000 0.123867435
H   H65       1.0  0.93450  0.39900  0.29460  1.0000 0.1303538546
H   H66       1.0  0.81440  0.38480  0.36000  1.0000 0.108332144
H   H67       1.0  0.79130  0.16820  0.34540  1.0000 0.108332144
H   H68       1.0  0.91560  0.17670  0.28030  1.0000 0.1391004625
H   H69       1.0  0.90270  0.33700  0.56470  1.0000 0.3502668145
H   H70       1.0  0.91500  0.28780  0.53060  1.0000 0.3696626502
H   H71       1.0  0.84890  0.02990  0.47350  1.0000 0.123867435
H   H72       1.0  0.67140  0.82400  0.49720  1.0000 0.1303538546
H   H73       1.0  0.56200  0.99440  0.57570  1.0000 0.108332144
H   H74       1.0  0.96220  0.92750  0.43640  1.0000 0.1303538546
H   H75       1.0  0.92400  0.84520  0.45080  1.0000 0.1303538546
H   H76       1.0  0.73120  0.98800  0.39300  1.0000 0.1303538546
H   H77       1.0  0.60030  0.97410  0.32970  1.0000 0.151393686
H   H78       1.0  0.65200  0.75220  0.34010  1.0000 0.151393686
H   H79       1.0  0.78410  0.76950  0.40360  1.0000 0.1303538546
H   H80       1.0  0.50410  0.89990  0.27110  1.0000 0.123867435
H   H81       1.0  0.54590  0.74910  0.27660  1.0000 0.123867435
H   H82       1.0  0.43450  0.89900  0.20540  1.0000 0.1303538546
H   H83       1.0  0.31440  0.88480  0.14000  1.0000 0.108332144
H   H84       1.0  0.29130  0.66820  0.15460  1.0000 0.108332144
H   H85       1.0  0.41560  0.67670  0.21970  1.0000 0.1391004625
H   H86       1.0  0.59730  0.16300  0.06470  1.0000 0.3502668145
H   H87       1.0  0.58500  0.21220  0.03060  1.0000 0.3696626502
H   H88       1.0  0.65110  0.47010  0.97350  1.0000 0.123867435
H   H89       1.0  0.82860  0.67600  0.99720  1.0000 0.1303538546
H   H90       1.0  0.93800  0.50560  0.07570  1.0000 0.108332144
H   H91       1.0  0.53780  0.57250  0.93640  1.0000 0.1303538546
H   H92       1.0  0.57600  0.65480  0.95080  1.0000 0.1303538546
H   H93       1.0  0.76880  0.51200  0.89300  1.0000 0.1303538546
H   H94       1.0  0.89970  0.52590  0.82970  1.0000 0.151393686
H   H95       1.0  0.84800  0.74780  0.84010  1.0000 0.151393686
H   H96       1.0  0.71590  0.73050  0.90360  1.0000 0.1303538546
H   H97       1.0  0.99590  0.60010  0.77110  1.0000 0.123867435
H   H98       1.0  0.95410  0.75090  0.77660  1.0000 0.123867435
H   H99       1.0  0.06550  0.60100  0.70540  1.0000 0.1303538546
H   H100      1.0  0.18560  0.61520  0.64000  1.0000 0.108332144
H   H101      1.0  0.20870  0.83180  0.65460  1.0000 0.108332144
H   H102      1.0  0.08440  0.82330  0.71970  1.0000 0.1391004625
H   H103      1.0  0.09730  0.83700  0.56470  1.0000 0.3502668145
H   H104      1.0  0.08500  0.78780  0.53060  1.0000 0.3696626502
H   H105      1.0  0.15110  0.52990  0.47350  1.0000 0.123867435
H   H106      1.0  0.32860  0.32400  0.49720  1.0000 0.1303538546
H   H107      1.0  0.43800  0.49440  0.57570  1.0000 0.108332144
H   H108      1.0  0.03780  0.42750  0.43640  1.0000 0.1303538546
H   H109      1.0  0.07600  0.34520  0.45080  1.0000 0.1303538546
H   H110      1.0  0.26880  0.48800  0.39300  1.0000 0.1303538546
H   H111      1.0  0.39970  0.47410  0.32970  1.0000 0.151393686
H   H112      1.0  0.34800  0.25220  0.34010  1.0000 0.151393686
H   H113      1.0  0.21590  0.26950  0.40360  1.0000 0.1303538546
H   H114      1.0  0.49590  0.39990  0.27110  1.0000 0.123867435
H   H115      1.0  0.45410  0.24910  0.27660  1.0000 0.123867435
H   H116      1.0  0.56550  0.39900  0.20540  1.0000 0.1303538546
H   H117      1.0  0.68560  0.38480  0.14000  1.0000 0.108332144
H   H118      1.0  0.70870  0.16820  0.15460  1.0000 0.108332144
H   H119      1.0  0.58440  0.17670  0.21970  1.0000 0.1391004625
H   H120      1.0  0.40270  0.66300  0.06470  1.0000 0.3502668145
H   H121      1.0  0.41500  0.71220  0.03060  1.0000 0.3696626502
H   H122      1.0  0.34890  0.97010  0.97350  1.0000 0.123867435
H   H123      1.0  0.17140  0.17600  0.99720  1.0000 0.1303538546
H   H124      1.0  0.06200  0.00560  0.07570  1.0000 0.108332144
H   H125      1.0  0.46220  0.07250  0.93640  1.0000 0.1303538546
H   H126      1.0  0.42400  0.15480  0.95080  1.0000 0.1303538546
H   H127      1.0  0.23120  0.01200  0.89300  1.0000 0.1303538546
H   H128      1.0  0.10030  0.02590  0.82970  1.0000 0.151393686
H   H129      1.0  0.15200  0.24780  0.84010  1.0000 0.151393686
H   H130      1.0  0.28410  0.23050  0.90360  1.0000 0.1303538546
H   H131      1.0  0.00410  0.10010  0.77110  1.0000 0.123867435
H   H132      1.0  0.04590  0.25090  0.77660  1.0000 0.123867435
H   H133      1.0  0.93450  0.10100  0.70540  1.0000 0.1303538546
H   H134      1.0  0.81440  0.11520  0.64000  1.0000 0.108332144
H   H135      1.0  0.79130  0.33180  0.65460  1.0000 0.108332144
H   H136      1.0  0.91560  0.32330  0.71970  1.0000 0.1391004625
C   C1        1.0  0.71640  0.39360  0.46200  1.0000 0.5412996712
C   C2        1.0  0.70480  0.47480  0.47394  1.0000 -0.0181198304
C   C3        1.0  0.78680  0.50250  0.50971  1.0000 -0.1588981912
C   C4        1.0  0.77640  0.57800  0.52044  1.0000 0.108332144
C   C5        1.0  0.68080  0.62550  0.49551  1.0000 -0.1588981912
C   C6        1.0  0.59880  0.59870  0.45974  1.0000 -0.000734962
C   C7        1.0  0.49020  0.64890  0.43297  1.0000 0.5514321032
C   C8        1.0  0.61350  0.52350  0.44872  1.0000 -0.1249872294
C   C9        1.0  0.87360  0.60750  0.55734  1.0000 -0.1803001616
C   C10       1.0  0.71690  0.55980  0.61829  1.0000 0.0590416596
C   C11       1.0  0.63880  0.56810  0.65599  1.0000 -0.1803001616
C   C12       1.0  0.61530  0.63890  0.67360  1.0000 0.151393686
C   C13       1.0  0.66950  0.69940  0.64983  1.0000 -0.1803001616
C   C14       1.0  0.74820  0.68910  0.61191  1.0000 0.0590416596
C   C15       1.0  0.53790  0.64450  0.71593  1.0000 -0.1372327504
C   C16       1.0  0.51350  0.70640  0.73642  1.0000 -0.1307668906
C   C17       1.0  0.43730  0.71150  0.77928  1.0000 0.151393686
C   C18       1.0  0.40650  0.64860  0.80433  1.0000 -0.1988022027
C   C19       1.0  0.33410  0.65770  0.84358  1.0000 0.0898954713
C   C20       1.0  0.32110  0.78470  0.83519  1.0000 0.0979617343
C   C21       1.0  0.39470  0.77990  0.79578  1.0000 -0.193530943
C   C22       1.0  0.78360  0.10640  0.96200  1.0000 0.5412996712
C   C23       1.0  0.79520  0.02520  0.97394  1.0000 -0.0181198304
C   C24       1.0  0.71320  0.99750  0.00971  1.0000 -0.1588981912
C   C25       1.0  0.72360  0.92200  0.02044  1.0000 0.108332144
C   C26       1.0  0.81920  0.87450  0.99551  1.0000 -0.1588981912
C   C27       1.0  0.90120  0.90130  0.95974  1.0000 -0.000734962
C   C28       1.0  0.00980  0.85110  0.93297  1.0000 0.5514321032
C   C29       1.0  0.88650  0.97650  0.94872  1.0000 -0.1249872294
C   C30       1.0  0.62640  0.89250  0.05734  1.0000 -0.1803001616
C   C31       1.0  0.78310  0.94020  0.11829  1.0000 0.0590416596
C   C32       1.0  0.86120  0.93190  0.15599  1.0000 -0.1803001616
C   C33       1.0  0.88470  0.86110  0.17360  1.0000 0.151393686
C   C34       1.0  0.83050  0.80060  0.14983  1.0000 -0.1803001616
C   C35       1.0  0.75180  0.81090  0.11191  1.0000 0.0590416596
C   C36       1.0  0.96210  0.85550  0.21593  1.0000 -0.1372327504
C   C37       1.0  0.98650  0.79360  0.23642  1.0000 -0.1307668906
C   C38       1.0  0.06270  0.78850  0.27928  1.0000 0.151393686
C   C39       1.0  0.09350  0.85140  0.30433  1.0000 -0.1988022027
C   C40       1.0  0.16590  0.84230  0.34358  1.0000 0.0898954713
C   C41       1.0  0.17890  0.71530  0.33519  1.0000 0.0979617343
C   C42       1.0  0.10530  0.72010  0.29578  1.0000 -0.193530943
C   C43       1.0  0.28360  0.89360  0.46200  1.0000 0.5412996712
C   C44       1.0  0.29520  0.97480  0.47394  1.0000 -0.0181198304
C   C45       1.0  0.21320  0.00250  0.50971  1.0000 -0.1588981912
C   C46       1.0  0.22360  0.07800  0.52044  1.0000 0.108332144
C   C47       1.0  0.31920  0.12550  0.49551  1.0000 -0.1588981912
C   C48       1.0  0.40120  0.09870  0.45974  1.0000 -0.000734962
C   C49       1.0  0.50980  0.14890  0.43297  1.0000 0.5514321032
C   C50       1.0  0.38650  0.02350  0.44872  1.0000 -0.1249872294
C   C51       1.0  0.12640  0.10750  0.55734  1.0000 -0.1803001616
C   C52       1.0  0.28310  0.05980  0.61829  1.0000 0.0590416596
C   C53       1.0  0.36120  0.06810  0.65599  1.0000 -0.1803001616
C   C54       1.0  0.38470  0.13890  0.67360  1.0000 0.155102596
C   C55       1.0  0.33050  0.19940  0.64983  1.0000 -0.1803001616
C   C56       1.0  0.25180  0.18910  0.61191  1.0000 0.0590416596
C   C57       1.0  0.46210  0.14450  0.71593  1.0000 -0.1372327504
C   C58       1.0  0.48650  0.20640  0.73642  1.0000 -0.1307668906
C   C59       1.0  0.56270  0.21150  0.77928  1.0000 0.151393686
C   C60       1.0  0.59350  0.14860  0.80433  1.0000 -0.1988022027
C   C61       1.0  0.66590  0.15770  0.84358  1.0000 0.0898954713
C   C62       1.0  0.67890  0.28470  0.83519  1.0000 0.0979617343
C   C63       1.0  0.60530  0.27990  0.79578  1.0000 -0.193530943
C   C64       1.0  0.21640  0.60640  0.96200  1.0000 0.5412996712
C   C65       1.0  0.20480  0.52520  0.97394  1.0000 -0.0181198304
C   C66       1.0  0.28680  0.49750  0.00971  1.0000 -0.1588981912
C   C67       1.0  0.27640  0.42200  0.02044  1.0000 0.108332144
C   C68       1.0  0.18080  0.37450  0.99551  1.0000 -0.1588981912
C   C69       1.0  0.09880  0.40130  0.95974  1.0000 -0.000734962
C   C70       1.0  0.99020  0.35110  0.93297  1.0000 0.5514321032
C   C71       1.0  0.11350  0.47650  0.94872  1.0000 -0.1249872294
C   C72       1.0  0.37360  0.39250  0.05734  1.0000 -0.1803001616
C   C73       1.0  0.21690  0.44020  0.11829  1.0000 0.0590416596
C   C74       1.0  0.13880  0.43190  0.15599  1.0000 -0.1803001616
C   C75       1.0  0.11530  0.36110  0.17360  1.0000 0.151393686
C   C76       1.0  0.16950  0.30060  0.14983  1.0000 -0.1803001616
C   C77       1.0  0.24820  0.31090  0.11191  1.0000 0.0590416596
C   C78       1.0  0.03790  0.35550  0.21593  1.0000 -0.1372327504
C   C79       1.0  0.01350  0.29360  0.23642  1.0000 -0.1307668906
C   C80       1.0  0.93730  0.28850  0.27928  1.0000 0.151393686
C   C81       1.0  0.90650  0.35140  0.30433  1.0000 -0.1988022027
C   C82       1.0  0.83410  0.34230  0.34358  1.0000 0.0898954713
C   C83       1.0  0.82110  0.21530  0.33519  1.0000 0.0979617343
C   C84       1.0  0.89470  0.22010  0.29578  1.0000 -0.193530943
C   C85       1.0  0.71640  0.10640  0.53800  1.0000 0.5412996712
C   C86       1.0  0.70480  0.02520  0.52606  1.0000 -0.0181198304
C   C87       1.0  0.78680  0.99750  0.49029  1.0000 -0.1588981912
C   C88       1.0  0.77640  0.92200  0.47956  1.0000 0.108332144
C   C89       1.0  0.68080  0.87450  0.50449  1.0000 -0.1588981912
C   C90       1.0  0.59880  0.90130  0.54026  1.0000 -0.000734962
C   C91       1.0  0.49020  0.85110  0.56703  1.0000 0.5514321032
C   C92       1.0  0.61350  0.97650  0.55128  1.0000 -0.1307668906
C   C93       1.0  0.87360  0.89250  0.44266  1.0000 -0.1803001616
C   C94       1.0  0.71690  0.94020  0.38171  1.0000 0.0590416596
C   C95       1.0  0.63880  0.93190  0.34401  1.0000 -0.1803001616
C   C96       1.0  0.61530  0.86110  0.32640  1.0000 0.151393686
C   C97       1.0  0.66950  0.80060  0.35017  1.0000 -0.1803001616
C   C98       1.0  0.74820  0.81090  0.38809  1.0000 0.0590416596
C   C99       1.0  0.53790  0.85550  0.28407  1.0000 -0.1372327504
C   C100      1.0  0.51350  0.79360  0.26358  1.0000 -0.1307668906
C   C101      1.0  0.43730  0.78850  0.22072  1.0000 0.151393686
C   C102      1.0  0.40650  0.85140  0.19567  1.0000 -0.1988022027
C   C103      1.0  0.33410  0.84230  0.15642  1.0000 0.0898954713
C   C104      1.0  0.32110  0.71530  0.16481  1.0000 0.0979617343
C   C105      1.0  0.39470  0.72010  0.20422  1.0000 -0.193530943
C   C106      1.0  0.78360  0.39360  0.03800  1.0000 0.5412996712
C   C107      1.0  0.79520  0.47480  0.02606  1.0000 -0.0181198304
C   C108      1.0  0.71320  0.50250  0.99029  1.0000 -0.1588981912
C   C109      1.0  0.72360  0.57800  0.97956  1.0000 0.108332144
C   C110      1.0  0.81920  0.62550  0.00449  1.0000 -0.1588981912
C   C111      1.0  0.90120  0.59870  0.04026  1.0000 -0.000734962
C   C112      1.0  0.00980  0.64890  0.06703  1.0000 0.5514321032
C   C113      1.0  0.88650  0.52350  0.05128  1.0000 -0.1249872294
C   C114      1.0  0.62640  0.60750  0.94266  1.0000 -0.1803001616
C   C115      1.0  0.78310  0.55980  0.88171  1.0000 0.0590416596
C   C116      1.0  0.86120  0.56810  0.84401  1.0000 -0.1803001616
C   C117      1.0  0.88470  0.63890  0.82640  1.0000 0.151393686
C   C118      1.0  0.83050  0.69940  0.85017  1.0000 -0.1803001616
C   C119      1.0  0.75180  0.68910  0.88809  1.0000 0.0590416596
C   C120      1.0  0.96210  0.64450  0.78407  1.0000 -0.1372327504
C   C121      1.0  0.98650  0.70640  0.76358  1.0000 -0.1307668906
C   C122      1.0  0.06270  0.71150  0.72072  1.0000 0.151393686
C   C123      1.0  0.09350  0.64860  0.69567  1.0000 -0.1988022027
C   C124      1.0  0.16590  0.65770  0.65642  1.0000 0.0898954713
C   C125      1.0  0.17890  0.78470  0.66481  1.0000 0.0979617343
C   C126      1.0  0.10530  0.77990  0.70422  1.0000 -0.193530943
C   C127      1.0  0.28360  0.60640  0.53800  1.0000 0.5412996712
C   C128      1.0  0.29520  0.52520  0.52606  1.0000 -0.0181198304
C   C129      1.0  0.21320  0.49750  0.49029  1.0000 -0.1588981912
C   C130      1.0  0.22360  0.42200  0.47956  1.0000 0.108332144
C   C131      1.0  0.31920  0.37450  0.50449  1.0000 -0.1588981912
C   C132      1.0  0.40120  0.40130  0.54026  1.0000 -0.000734962
C   C133      1.0  0.50980  0.35110  0.56703  1.0000 0.5514321032
C   C134      1.0  0.38650  0.47650  0.55128  1.0000 -0.1249872294
C   C135      1.0  0.12640  0.39250  0.44266  1.0000 -0.1803001616
C   C136      1.0  0.28310  0.44020  0.38171  1.0000 0.0590416596
C   C137      1.0  0.36120  0.43190  0.34401  1.0000 -0.1803001616
C   C138      1.0  0.38470  0.36110  0.32640  1.0000 0.151393686
C   C139      1.0  0.33050  0.30060  0.35017  1.0000 -0.1803001616
C   C140      1.0  0.25180  0.31090  0.38809  1.0000 0.0590416596
C   C141      1.0  0.46210  0.35550  0.28407  1.0000 -0.1372327504
C   C142      1.0  0.48650  0.29360  0.26358  1.0000 -0.1307668906
C   C143      1.0  0.56270  0.28850  0.22072  1.0000 0.151393686
C   C144      1.0  0.59350  0.35140  0.19567  1.0000 -0.1988022027
C   C145      1.0  0.66590  0.34230  0.15642  1.0000 0.0898954713
C   C146      1.0  0.67890  0.21530  0.16481  1.0000 0.0979617343
C   C147      1.0  0.60530  0.22010  0.20422  1.0000 -0.193530943
C   C148      1.0  0.21640  0.89360  0.03800  1.0000 0.5412996712
C   C149      1.0  0.20480  0.97480  0.02606  1.0000 -0.0181198304
C   C150      1.0  0.28680  0.00250  0.99029  1.0000 -0.1588981912
C   C151      1.0  0.27640  0.07800  0.97956  1.0000 0.108332144
C   C152      1.0  0.18080  0.12550  0.00449  1.0000 -0.1588981912
C   C153      1.0  0.09880  0.09870  0.04026  1.0000 -0.000734962
C   C154      1.0  0.99020  0.14890  0.06703  1.0000 0.5514321032
C   C155      1.0  0.11350  0.02350  0.05128  1.0000 -0.1249872294
C   C156      1.0  0.37360  0.10750  0.94266  1.0000 -0.1803001616
C   C157      1.0  0.21690  0.05980  0.88171  1.0000 0.0590416596
C   C158      1.0  0.13880  0.06810  0.84401  1.0000 -0.1803001616
C   C159      1.0  0.11530  0.13890  0.82640  1.0000 0.155102596
C   C160      1.0  0.16950  0.19940  0.85017  1.0000 -0.1803001616
C   C161      1.0  0.24820  0.18910  0.88809  1.0000 0.0590416596
C   C162      1.0  0.03790  0.14450  0.78407  1.0000 -0.1372327504
C   C163      1.0  0.01350  0.20640  0.76358  1.0000 -0.1307668906
C   C164      1.0  0.93730  0.21150  0.72072  1.0000 0.151393686
C   C165      1.0  0.90650  0.14860  0.69567  1.0000 -0.1988022027
C   C166      1.0  0.83410  0.15770  0.65642  1.0000 0.0898954713
C   C167      1.0  0.82110  0.28470  0.66481  1.0000 0.0979617343
C   C168      1.0  0.89470  0.27990  0.70422  1.0000 -0.193530943
N   N1        1.0  0.29070  0.72450  0.85937  1.0000 -0.2465356586
N   N2        1.0  0.77430  0.61963  0.59680  1.0000 0.108332144
N   N3        1.0  0.20930  0.77550  0.35937  1.0000 -0.2465356586
N   N4        1.0  0.72570  0.88037  0.09680  1.0000 0.108332144
N   N5        1.0  0.70930  0.22450  0.85937  1.0000 -0.2465356586
N   N6        1.0  0.22570  0.11963  0.59680  1.0000 0.108332144
N   N7        1.0  0.79070  0.27550  0.35937  1.0000 -0.2465356586
N   N8        1.0  0.27430  0.38037  0.09680  1.0000 0.108332144
N   N9        1.0  0.29070  0.77550  0.14063  1.0000 -0.2465356586
N   N10       1.0  0.77430  0.88037  0.40320  1.0000 0.108332144
N   N11       1.0  0.20930  0.72450  0.64063  1.0000 -0.2465356586
N   N12       1.0  0.72570  0.61963  0.90320  1.0000 0.108332144
N   N13       1.0  0.70930  0.27550  0.14063  1.0000 -0.2465356586
N   N14       1.0  0.22570  0.38037  0.40320  1.0000 0.108332144
N   N15       1.0  0.79070  0.22450  0.64063  1.0000 -0.2465356586
N   N16       1.0  0.27430  0.11963  0.90320  1.0000 0.108332144
N   N17       1.0  0.41290  0.42330  0.87483  1.0000 0.6778196025
N   N18       1.0  0.41290  0.07670  0.12517  1.0000 0.6778196025
N   N19       1.0  0.08710  0.07670  0.37483  1.0000 0.6778196025
N   N20       1.0  0.08710  0.42330  0.62517  1.0000 0.6778196025
N   N21       1.0  0.58710  0.57670  0.12517  1.0000 0.6778196025
N   N22       1.0  0.58710  0.92330  0.87483  1.0000 0.6778196025
N   N23       1.0  0.91290  0.92330  0.62517  1.0000 0.6778196025
N   N24       1.0  0.91290  0.57670  0.37483  1.0000 0.6778196025
O   O1        1.0  0.65310  0.37469  0.42708  1.0000 -0.5399158113
O   O2        1.0  0.79260  0.34793  0.48479  1.0000 -0.5480861092
O   O3        1.0  0.40820  0.62156  0.40326  1.0000 -0.5706481037
O   O4        1.0  0.48630  0.71787  0.44348  1.0000 -0.5480861092
O   O5        1.0  0.91040  0.20888  0.44245  1.0000 -0.6609651071
O   O6        1.0  0.84690  0.12531  0.92708  1.0000 -0.5399158113
O   O7        1.0  0.70740  0.15207  0.98479  1.0000 -0.5480861092
O   O8        1.0  0.09180  0.87844  0.90326  1.0000 -0.5706481037
O   O9        1.0  0.01370  0.78213  0.94348  1.0000 -0.5480861092
O   O10       1.0  0.58960  0.29112  0.94245  1.0000 -0.6609651071
O   O11       1.0  0.34690  0.87469  0.42708  1.0000 -0.5399158113
O   O12       1.0  0.20740  0.84793  0.48479  1.0000 -0.5399158113
O   O13       1.0  0.59180  0.12156  0.40326  1.0000 -0.5706481037
O   O14       1.0  0.51370  0.21787  0.44348  1.0000 -0.5480861092
O   O15       1.0  0.08960  0.70888  0.44245  1.0000 -0.6609651071
O   O16       1.0  0.15310  0.62531  0.92708  1.0000 -0.5399158113
O   O17       1.0  0.29260  0.65207  0.98479  1.0000 -0.5399158113
O   O18       1.0  0.90820  0.37844  0.90326  1.0000 -0.5706481037
O   O19       1.0  0.98630  0.28213  0.94348  1.0000 -0.5480861092
O   O20       1.0  0.41040  0.79112  0.94245  1.0000 -0.6609651071
O   O21       1.0  0.65310  0.12531  0.57292  1.0000 -0.5399158113
O   O22       1.0  0.79260  0.15207  0.51521  1.0000 -0.5480861092
O   O23       1.0  0.40820  0.87844  0.59674  1.0000 -0.5706481037
O   O24       1.0  0.48630  0.78213  0.55652  1.0000 -0.5480861092
O   O25       1.0  0.91040  0.29112  0.55755  1.0000 -0.6609651071
O   O26       1.0  0.84690  0.37469  0.07292  1.0000 -0.5399158113
O   O27       1.0  0.70740  0.34793  0.01521  1.0000 -0.5399158113
O   O28       1.0  0.09180  0.62156  0.09674  1.0000 -0.5706481037
O   O29       1.0  0.01370  0.71787  0.05652  1.0000 -0.5480861092
O   O30       1.0  0.58960  0.20888  0.05755  1.0000 -0.6609651071
O   O31       1.0  0.34690  0.62531  0.57292  1.0000 -0.5399158113
O   O32       1.0  0.20740  0.65207  0.51521  1.0000 -0.5399158113
O   O33       1.0  0.59180  0.37844  0.59674  1.0000 -0.5706481037
O   O34       1.0  0.51370  0.28213  0.55652  1.0000 -0.5480861092
O   O35       1.0  0.08960  0.79112  0.55755  1.0000 -0.6609651071
O   O36       1.0  0.15310  0.87469  0.07292  1.0000 -0.5399158113
O   O37       1.0  0.29260  0.84793  0.01521  1.0000 -0.5399158113
O   O38       1.0  0.90820  0.12156  0.09674  1.0000 -0.5706481037
O   O39       1.0  0.98630  0.21787  0.05652  1.0000 -0.5480861092
O   O40       1.0  0.41040  0.70888  0.05755  1.0000 -0.6609651071
O   O41       1.0  0.37650  0.47430  0.85070  1.0000 -0.430826239
O   O42       1.0  0.34320  0.36060  0.87185  1.0000 -0.430826239
O   O43       1.0  0.51370  0.42860  0.90437  1.0000 -0.4247188863
O   O44       1.0  0.37650  0.02570  0.14930  1.0000 -0.430826239
O   O45       1.0  0.34320  0.13940  0.12815  1.0000 -0.430826239
O   O46       1.0  0.51370  0.07140  0.09563  1.0000 -0.4247188863
O   O47       1.0  0.12350  0.02570  0.35070  1.0000 -0.430826239
O   O48       1.0  0.15680  0.13940  0.37185  1.0000 -0.430826239
O   O49       1.0  0.98630  0.07140  0.40437  1.0000 -0.4247188863
O   O50       1.0  0.12350  0.47430  0.64930  1.0000 -0.430826239
O   O51       1.0  0.15680  0.36060  0.62815  1.0000 -0.430826239
O   O52       1.0  0.98630  0.42860  0.59563  1.0000 -0.4247188863
O   O53       1.0  0.62350  0.52570  0.14930  1.0000 -0.430826239
O   O54       1.0  0.65680  0.63940  0.12815  1.0000 -0.430826239
O   O55       1.0  0.48630  0.57140  0.09563  1.0000 -0.4247188863
O   O56       1.0  0.62350  0.97430  0.85070  1.0000 -0.430826239
O   O57       1.0  0.65680  0.86060  0.87185  1.0000 -0.430826239
O   O58       1.0  0.48630  0.92860  0.90437  1.0000 -0.4247188863
O   O59       1.0  0.87650  0.97430  0.64930  1.0000 -0.430826239
O   O60       1.0  0.84320  0.86060  0.62815  1.0000 -0.430826239
O   O61       1.0  0.01370  0.92860  0.59563  1.0000 -0.4247188863
O   O62       1.0  0.87650  0.52570  0.35070  1.0000 -0.430826239
O   O63       1.0  0.84320  0.63940  0.37185  1.0000 -0.430826239
O   O64       1.0  0.01370  0.57140  0.40437  1.0000 -0.4247188863
