# DDEC6 charges by PACMAN v1.1 (https://github.com/mtap-research/PACMAN-charge/)
data_2017[Ag][srs]3[ION]33
_chemical_formula_sum              "Ag6 H120 C144 N40 Cl6 O24"
_cell_length_a       18.4631
_cell_length_b       18.4631
_cell_length_c       18.4631
_cell_angle_alpha    109.471
_cell_angle_beta     109.471
_cell_angle_gamma    109.471

_symmetry_space_group_name_H-M    "P 1"
_symmetry_Int_Tables_number       1

loop_
  _symmetry_equiv_pos_as_xyz
  'x, y, z'

loop_
  _atom_site_type_symbol
  _atom_site_label
  _atom_site_symmetry_multiplicity
  _atom_site_fract_x
  _atom_site_fract_y
  _atom_site_fract_z
  _atom_site_occupancy
  _atom_site_charge
Ag  Ag1       1.0  0.04251  0.75000  0.79251  1.0000 0.2678027044
Ag  Ag2       1.0  0.45749  0.25000  0.70749  1.0000 0.2678027044
Ag  Ag3       1.0  0.79251  0.04251  0.75000  1.0000 0.2678027044
Ag  Ag4       1.0  0.70749  0.45749  0.25000  1.0000 0.2678027044
Ag  Ag5       1.0  0.75000  0.79251  0.04251  1.0000 0.2678027044
Ag  Ag6       1.0  0.25000  0.70749  0.45749  1.0000 0.2678027044
H   H1        1.0  0.96660  0.54600  0.89700  1.0000 0.1239815146
H   H2        1.0  0.01370  0.68110  0.90260  1.0000 0.1011189738
H   H3        1.0  0.24840  0.78170  0.11190  1.0000 0.1239815146
H   H4        1.0  0.20810  0.64750  0.10440  1.0000 0.1239815146
H   H5        1.0  0.21850  0.88040  0.06610  1.0000 0.1100767907
H   H6        1.0  0.20240  0.08570  0.99050  1.0000 0.1523720314
H   H7        1.0  0.16620  0.12200  0.88100  1.0000 0.1100767907
H   H8        1.0  0.08610  0.00790  0.72960  1.0000 0.1259751013
H   H9        1.0  0.03920  0.86500  0.69880  1.0000 0.1011189738
H   H10       1.0  0.20270  0.97450  0.02460  1.0000 0.2810228383
H   H11       1.0  0.14900  0.06960  0.60300  1.0000 0.1239815146
H   H12       1.0  0.27850  0.11110  0.59740  1.0000 0.1011189738
H   H13       1.0  0.16980  0.13650  0.38810  1.0000 0.1239815146
H   H14       1.0  0.04310  0.10370  0.39560  1.0000 0.1239815146
H   H15       1.0  0.31430  0.15240  0.43390  1.0000 0.1100767907
H   H16       1.0  0.59520  0.21190  0.50950  1.0000 0.1523720314
H   H17       1.0  0.74100  0.28520  0.61900  1.0000 0.1100767907
H   H18       1.0  0.77830  0.35650  0.77040  1.0000 0.1259751013
H   H19       1.0  0.66620  0.34040  0.80120  1.0000 0.1011189738
H   H20       1.0  0.44990  0.17810  0.47540  1.0000 0.2810228383
H   H21       1.0  0.35100  0.95400  0.92060  1.0000 0.1239815146
H   H22       1.0  0.22150  0.81890  0.83260  1.0000 0.1011189738
H   H23       1.0  0.33020  0.71830  0.96670  1.0000 0.1239815146
H   H24       1.0  0.45690  0.85250  0.06060  1.0000 0.1239815146
H   H25       1.0  0.18570  0.61960  0.83810  1.0000 0.1100767907
H   H26       1.0  0.90480  0.41430  0.61670  1.0000 0.1523720314
H   H27       1.0  0.75900  0.37800  0.54420  1.0000 0.1100767907
H   H28       1.0  0.72170  0.49210  0.57820  1.0000 0.1259751013
H   H29       1.0  0.83380  0.63500  0.67420  1.0000 0.1011189738
H   H30       1.0  0.05010  0.52550  0.72820  1.0000 0.2810228383
H   H31       1.0  0.53340  0.43040  0.57940  1.0000 0.1239815146
H   H32       1.0  0.48630  0.38890  0.66740  1.0000 0.1011189738
H   H33       1.0  0.25160  0.36350  0.53330  1.0000 0.1239815146
H   H34       1.0  0.29190  0.39630  0.43940  1.0000 0.1239815146
H   H35       1.0  0.28150  0.34760  0.66190  1.0000 0.1100767907
H   H36       1.0  0.29760  0.28810  0.88330  1.0000 0.1523720314
H   H37       1.0  0.33380  0.21480  0.95580  1.0000 0.1100767907
H   H38       1.0  0.41390  0.14350  0.92180  1.0000 0.1259751013
H   H39       1.0  0.46080  0.15960  0.82580  1.0000 0.1011189738
H   H40       1.0  0.29730  0.32190  0.77180  1.0000 0.2810228383
H   H41       1.0  0.89700  0.96660  0.54600  1.0000 0.1239815146
H   H42       1.0  0.90260  0.01370  0.68110  1.0000 0.1011189738
H   H43       1.0  0.11190  0.24840  0.78170  1.0000 0.1239815146
H   H44       1.0  0.10440  0.20810  0.64750  1.0000 0.1239815146
H   H45       1.0  0.06610  0.21850  0.88040  1.0000 0.1100767907
H   H46       1.0  0.99050  0.20240  0.08570  1.0000 0.1523720314
H   H47       1.0  0.88100  0.16620  0.12200  1.0000 0.1100767907
H   H48       1.0  0.72960  0.08610  0.00790  1.0000 0.1259751013
H   H49       1.0  0.69880  0.03920  0.86500  1.0000 0.1011189738
H   H50       1.0  0.02460  0.20270  0.97450  1.0000 0.2810228383
H   H51       1.0  0.60300  0.14900  0.06960  1.0000 0.1239815146
H   H52       1.0  0.59740  0.27850  0.11110  1.0000 0.1011189738
H   H53       1.0  0.38810  0.16980  0.13650  1.0000 0.1239815146
H   H54       1.0  0.39560  0.04310  0.10370  1.0000 0.1239815146
H   H55       1.0  0.43390  0.31430  0.15240  1.0000 0.1100767907
H   H56       1.0  0.50950  0.59520  0.21190  1.0000 0.1523720314
H   H57       1.0  0.61900  0.74100  0.28520  1.0000 0.1100767907
H   H58       1.0  0.77040  0.77830  0.35650  1.0000 0.1259751013
H   H59       1.0  0.80120  0.66620  0.34040  1.0000 0.1011189738
H   H60       1.0  0.47540  0.44990  0.17810  1.0000 0.2810228383
H   H61       1.0  0.92060  0.35100  0.95400  1.0000 0.1239815146
H   H62       1.0  0.83260  0.22150  0.81890  1.0000 0.1011189738
H   H63       1.0  0.96670  0.33020  0.71830  1.0000 0.1239815146
H   H64       1.0  0.06060  0.45690  0.85250  1.0000 0.1239815146
H   H65       1.0  0.83810  0.18570  0.61960  1.0000 0.1100767907
H   H66       1.0  0.61670  0.90480  0.41430  1.0000 0.1523720314
H   H67       1.0  0.54420  0.75900  0.37800  1.0000 0.1100767907
H   H68       1.0  0.57820  0.72170  0.49210  1.0000 0.1259751013
H   H69       1.0  0.67420  0.83380  0.63500  1.0000 0.1011189738
H   H70       1.0  0.72820  0.05010  0.52550  1.0000 0.2810228383
H   H71       1.0  0.57940  0.53340  0.43040  1.0000 0.1239815146
H   H72       1.0  0.66740  0.48630  0.38890  1.0000 0.1011189738
H   H73       1.0  0.53330  0.25160  0.36350  1.0000 0.1239815146
H   H74       1.0  0.43940  0.29190  0.39630  1.0000 0.1239815146
H   H75       1.0  0.66190  0.28150  0.34760  1.0000 0.1100767907
H   H76       1.0  0.88330  0.29760  0.28810  1.0000 0.1523720314
H   H77       1.0  0.95580  0.33380  0.21480  1.0000 0.1100767907
H   H78       1.0  0.92180  0.41390  0.14350  1.0000 0.1259751013
H   H79       1.0  0.82580  0.46080  0.15960  1.0000 0.1011189738
H   H80       1.0  0.77180  0.29730  0.32190  1.0000 0.2810228383
H   H81       1.0  0.54600  0.89700  0.96660  1.0000 0.1239815146
H   H82       1.0  0.68110  0.90260  0.01370  1.0000 0.1011189738
H   H83       1.0  0.78170  0.11190  0.24840  1.0000 0.1239815146
H   H84       1.0  0.64750  0.10440  0.20810  1.0000 0.1239815146
H   H85       1.0  0.88040  0.06610  0.21850  1.0000 0.1100767907
H   H86       1.0  0.08570  0.99050  0.20240  1.0000 0.1523720314
H   H87       1.0  0.12200  0.88100  0.16620  1.0000 0.1100767907
H   H88       1.0  0.00790  0.72960  0.08610  1.0000 0.1259751013
H   H89       1.0  0.86500  0.69880  0.03920  1.0000 0.1011189738
H   H90       1.0  0.97450  0.02460  0.20270  1.0000 0.2810228383
H   H91       1.0  0.06960  0.60300  0.14900  1.0000 0.1239815146
H   H92       1.0  0.11110  0.59740  0.27850  1.0000 0.1011189738
H   H93       1.0  0.13650  0.38810  0.16980  1.0000 0.1239815146
H   H94       1.0  0.10370  0.39560  0.04310  1.0000 0.1239815146
H   H95       1.0  0.15240  0.43390  0.31430  1.0000 0.1100767907
H   H96       1.0  0.21190  0.50950  0.59520  1.0000 0.1523720314
H   H97       1.0  0.28520  0.61900  0.74100  1.0000 0.1100767907
H   H98       1.0  0.35650  0.77040  0.77830  1.0000 0.1259751013
H   H99       1.0  0.34040  0.80120  0.66620  1.0000 0.1011189738
H   H100      1.0  0.17810  0.47540  0.44990  1.0000 0.2810228383
H   H101      1.0  0.95400  0.92060  0.35100  1.0000 0.1239815146
H   H102      1.0  0.81890  0.83260  0.22150  1.0000 0.1011189738
H   H103      1.0  0.71830  0.96670  0.33020  1.0000 0.1239815146
H   H104      1.0  0.85250  0.06060  0.45690  1.0000 0.1239815146
H   H105      1.0  0.61960  0.83810  0.18570  1.0000 0.1100767907
H   H106      1.0  0.41430  0.61670  0.90480  1.0000 0.1523720314
H   H107      1.0  0.37800  0.54420  0.75900  1.0000 0.1100767907
H   H108      1.0  0.49210  0.57820  0.72170  1.0000 0.1259751013
H   H109      1.0  0.63500  0.67420  0.83380  1.0000 0.1011189738
H   H110      1.0  0.52550  0.72820  0.05010  1.0000 0.2810228383
H   H111      1.0  0.43040  0.57940  0.53340  1.0000 0.1239815146
H   H112      1.0  0.38890  0.66740  0.48630  1.0000 0.1011189738
H   H113      1.0  0.36350  0.53330  0.25160  1.0000 0.1239815146
H   H114      1.0  0.39630  0.43940  0.29190  1.0000 0.1239815146
H   H115      1.0  0.34760  0.66190  0.28150  1.0000 0.1100767907
H   H116      1.0  0.28810  0.88330  0.29760  1.0000 0.1523720314
H   H117      1.0  0.21480  0.95580  0.33380  1.0000 0.1100767907
H   H118      1.0  0.14350  0.92180  0.41390  1.0000 0.1259751013
H   H119      1.0  0.15960  0.82580  0.46080  1.0000 0.1011189738
H   H120      1.0  0.32190  0.77180  0.29730  1.0000 0.2810228383
C   C1        1.0  0.08200  0.58160  0.00240  1.0000 0.1791166927
C   C2        1.0  0.02410  0.59320  0.94050  1.0000 -0.2074800577
C   C3        1.0  0.05250  0.67410  0.94420  1.0000 -0.1371368204
C   C4        1.0  0.13550  0.74440  0.00670  1.0000 0.0527337221
C   C5        1.0  0.19170  0.73330  0.06740  1.0000 -0.119148084
C   C6        1.0  0.16710  0.65390  0.06420  1.0000 -0.184188496
C   C7        1.0  0.16740  0.83170  0.01350  1.0000 -0.0168990023
C   C8        1.0  0.14130  0.95180  0.90650  1.0000 0.3363015344
C   C9        1.0  0.16950  0.04140  0.93050  1.0000 -0.2263463372
C   C10       1.0  0.14860  0.06270  0.86610  1.0000 -0.0168990023
C   C11       1.0  0.09980  0.99470  0.77570  1.0000 -0.1905623485
C   C12       1.0  0.07370  0.91060  0.75850  1.0000 0.0592919951
C   C13       1.0  0.07920  0.07960  0.49760  1.0000 0.1791166927
C   C14       1.0  0.15270  0.08360  0.55950  1.0000 -0.2074800577
C   C15       1.0  0.22990  0.10830  0.55580  1.0000 -0.1371368204
C   C16       1.0  0.23770  0.12880  0.49330  1.0000 0.0527337221
C   C17       1.0  0.16590  0.12430  0.43260  1.0000 -0.119148084
C   C18       1.0  0.08970  0.10290  0.43580  1.0000 -0.184188496
C   C19       1.0  0.31820  0.15390  0.48650  1.0000 -0.0168990023
C   C20       1.0  0.54530  0.23480  0.59350  1.0000 0.3363015344
C   C21       1.0  0.61090  0.23900  0.56950  1.0000 -0.2263463372
C   C22       1.0  0.69660  0.28250  0.63390  1.0000 -0.0168990023
C   C23       1.0  0.71900  0.32410  0.72430  1.0000 -0.1905623485
C   C24       1.0  0.65210  0.31520  0.74150  1.0000 0.0592919951
C   C25       1.0  0.42080  0.91840  0.00040  1.0000 0.1791166927
C   C26       1.0  0.34730  0.90680  0.93090  1.0000 -0.2045653621
C   C27       1.0  0.27010  0.82590  0.87840  1.0000 -0.1371368204
C   C28       1.0  0.26230  0.75560  0.89110  1.0000 0.0527337221
C   C29       1.0  0.33410  0.76670  0.95840  1.0000 -0.119148084
C   C30       1.0  0.41030  0.84610  0.01320  1.0000 -0.184188496
C   C31       1.0  0.18180  0.66830  0.83570  1.0000 -0.0168990023
C   C32       1.0  0.95470  0.54820  0.68950  1.0000 0.3363015344
C   C33       1.0  0.88910  0.45860  0.62810  1.0000 -0.2263463372
C   C34       1.0  0.80340  0.43730  0.58590  1.0000 -0.0168990023
C   C35       1.0  0.78100  0.50530  0.60510  1.0000 -0.1905623485
C   C36       1.0  0.84790  0.58940  0.66310  1.0000 0.0592919951
C   C37       1.0  0.41800  0.42040  0.49960  1.0000 0.1791166927
C   C38       1.0  0.47590  0.41640  0.56910  1.0000 -0.2074800577
C   C39       1.0  0.44750  0.39170  0.62160  1.0000 -0.1371368204
C   C40       1.0  0.36450  0.37120  0.60890  1.0000 0.0527337221
C   C41       1.0  0.30830  0.37570  0.54160  1.0000 -0.119148084
C   C42       1.0  0.33290  0.39710  0.48680  1.0000 -0.184188496
C   C43       1.0  0.33260  0.34610  0.66430  1.0000 -0.0168990023
C   C44       1.0  0.35870  0.26520  0.81050  1.0000 0.3363015344
C   C45       1.0  0.33050  0.26100  0.87190  1.0000 -0.2263463372
C   C46       1.0  0.35140  0.21750  0.91410  1.0000 -0.0168990023
C   C47       1.0  0.40020  0.17590  0.89490  1.0000 -0.1905623485
C   C48       1.0  0.42630  0.18480  0.83690  1.0000 0.0592919951
C   C49       1.0  0.00240  0.08200  0.58160  1.0000 0.1791166927
C   C50       1.0  0.94050  0.02410  0.59320  1.0000 -0.2074800577
C   C51       1.0  0.94420  0.05250  0.67410  1.0000 -0.1371368204
C   C52       1.0  0.00670  0.13550  0.74440  1.0000 0.0527337221
C   C53       1.0  0.06740  0.19170  0.73330  1.0000 -0.119148084
C   C54       1.0  0.06420  0.16710  0.65390  1.0000 -0.184188496
C   C55       1.0  0.01350  0.16740  0.83170  1.0000 -0.0168990023
C   C56       1.0  0.90650  0.14130  0.95180  1.0000 0.3363015344
C   C57       1.0  0.93050  0.16950  0.04140  1.0000 -0.2263463372
C   C58       1.0  0.86610  0.14860  0.06270  1.0000 -0.0168990023
C   C59       1.0  0.77570  0.09980  0.99470  1.0000 -0.1905623485
C   C60       1.0  0.75850  0.07370  0.91060  1.0000 0.0592919951
C   C61       1.0  0.49760  0.07920  0.07960  1.0000 0.1791166927
C   C62       1.0  0.55950  0.15270  0.08360  1.0000 -0.2074800577
C   C63       1.0  0.55580  0.22990  0.10830  1.0000 -0.1371368204
C   C64       1.0  0.49330  0.23770  0.12880  1.0000 0.0527337221
C   C65       1.0  0.43260  0.16590  0.12430  1.0000 -0.119148084
C   C66       1.0  0.43580  0.08970  0.10290  1.0000 -0.184188496
C   C67       1.0  0.48650  0.31820  0.15390  1.0000 -0.0168990023
C   C68       1.0  0.59350  0.54530  0.23480  1.0000 0.3363015344
C   C69       1.0  0.56950  0.61090  0.23900  1.0000 -0.2263463372
C   C70       1.0  0.63390  0.69660  0.28250  1.0000 -0.0168990023
C   C71       1.0  0.72430  0.71900  0.32410  1.0000 -0.1905623485
C   C72       1.0  0.74150  0.65210  0.31520  1.0000 0.0592919951
C   C73       1.0  0.00040  0.42080  0.91840  1.0000 0.1791166927
C   C74       1.0  0.93090  0.34730  0.90680  1.0000 -0.2074800577
C   C75       1.0  0.87840  0.27010  0.82590  1.0000 -0.1371368204
C   C76       1.0  0.89110  0.26230  0.75560  1.0000 0.0527337221
C   C77       1.0  0.95840  0.33410  0.76670  1.0000 -0.119148084
C   C78       1.0  0.01320  0.41030  0.84610  1.0000 -0.184188496
C   C79       1.0  0.83570  0.18180  0.66830  1.0000 -0.0168990023
C   C80       1.0  0.68950  0.95470  0.54820  1.0000 0.3363015344
C   C81       1.0  0.62810  0.88910  0.45860  1.0000 -0.2263463372
C   C82       1.0  0.58590  0.80340  0.43730  1.0000 -0.0168990023
C   C83       1.0  0.60510  0.78100  0.50530  1.0000 -0.1905623485
C   C84       1.0  0.66310  0.84790  0.58940  1.0000 0.0592919951
C   C85       1.0  0.49960  0.41800  0.42040  1.0000 0.1791166927
C   C86       1.0  0.56910  0.47590  0.41640  1.0000 -0.2074800577
C   C87       1.0  0.62160  0.44750  0.39170  1.0000 -0.1371368204
C   C88       1.0  0.60890  0.36450  0.37120  1.0000 0.0527337221
C   C89       1.0  0.54160  0.30830  0.37570  1.0000 -0.119148084
C   C90       1.0  0.48680  0.33290  0.39710  1.0000 -0.184188496
C   C91       1.0  0.66430  0.33260  0.34610  1.0000 -0.0168990023
C   C92       1.0  0.81050  0.35870  0.26520  1.0000 0.3363015344
C   C93       1.0  0.87190  0.33050  0.26100  1.0000 -0.2263463372
C   C94       1.0  0.91410  0.35140  0.21750  1.0000 -0.0168990023
C   C95       1.0  0.89490  0.40020  0.17590  1.0000 -0.1905623485
C   C96       1.0  0.83690  0.42630  0.18480  1.0000 0.0592919951
C   C97       1.0  0.58160  0.00240  0.08200  1.0000 0.1791166927
C   C98       1.0  0.59320  0.94050  0.02410  1.0000 -0.2074800577
C   C99       1.0  0.67410  0.94420  0.05250  1.0000 -0.1371368204
C   C100      1.0  0.74440  0.00670  0.13550  1.0000 0.0527337221
C   C101      1.0  0.73330  0.06740  0.19170  1.0000 -0.119148084
C   C102      1.0  0.65390  0.06420  0.16710  1.0000 -0.184188496
C   C103      1.0  0.83170  0.01350  0.16740  1.0000 -0.0168990023
C   C104      1.0  0.95180  0.90650  0.14130  1.0000 0.3363015344
C   C105      1.0  0.04140  0.93050  0.16950  1.0000 -0.2263463372
C   C106      1.0  0.06270  0.86610  0.14860  1.0000 -0.0168990023
C   C107      1.0  0.99470  0.77570  0.09980  1.0000 -0.1905623485
C   C108      1.0  0.91060  0.75850  0.07370  1.0000 0.0592919951
C   C109      1.0  0.07960  0.49760  0.07920  1.0000 0.1791166927
C   C110      1.0  0.08360  0.55950  0.15270  1.0000 -0.2074800577
C   C111      1.0  0.10830  0.55580  0.22990  1.0000 -0.1371368204
C   C112      1.0  0.12880  0.49330  0.23770  1.0000 0.0527337221
C   C113      1.0  0.12430  0.43260  0.16590  1.0000 -0.119148084
C   C114      1.0  0.10290  0.43580  0.08970  1.0000 -0.184188496
C   C115      1.0  0.15390  0.48650  0.31820  1.0000 -0.0168990023
C   C116      1.0  0.23480  0.59350  0.54530  1.0000 0.3363015344
C   C117      1.0  0.23900  0.56950  0.61090  1.0000 -0.2263463372
C   C118      1.0  0.28250  0.63390  0.69660  1.0000 -0.0168990023
C   C119      1.0  0.32410  0.72430  0.71900  1.0000 -0.1905623485
C   C120      1.0  0.31520  0.74150  0.65210  1.0000 0.0592919951
C   C121      1.0  0.91840  0.00040  0.42080  1.0000 0.1791166927
C   C122      1.0  0.90680  0.93090  0.34730  1.0000 -0.2074800577
C   C123      1.0  0.82590  0.87840  0.27010  1.0000 -0.1371368204
C   C124      1.0  0.75560  0.89110  0.26230  1.0000 0.0527337221
C   C125      1.0  0.76670  0.95840  0.33410  1.0000 -0.119148084
C   C126      1.0  0.84610  0.01320  0.41030  1.0000 -0.184188496
C   C127      1.0  0.66830  0.83570  0.18180  1.0000 -0.0168990023
C   C128      1.0  0.54820  0.68950  0.95470  1.0000 0.3363015344
C   C129      1.0  0.45860  0.62810  0.88910  1.0000 -0.2263463372
C   C130      1.0  0.43730  0.58590  0.80340  1.0000 -0.0168990023
C   C131      1.0  0.50530  0.60510  0.78100  1.0000 -0.1905623485
C   C132      1.0  0.58940  0.66310  0.84790  1.0000 0.0592919951
C   C133      1.0  0.42040  0.49960  0.41800  1.0000 0.1791166927
C   C134      1.0  0.41640  0.56910  0.47590  1.0000 -0.2074800577
C   C135      1.0  0.39170  0.62160  0.44750  1.0000 -0.1371368204
C   C136      1.0  0.37120  0.60890  0.36450  1.0000 0.0527337221
C   C137      1.0  0.37570  0.54160  0.30830  1.0000 -0.119148084
C   C138      1.0  0.39710  0.48680  0.33290  1.0000 -0.184188496
C   C139      1.0  0.34610  0.66430  0.33260  1.0000 -0.0168990023
C   C140      1.0  0.26520  0.81050  0.35870  1.0000 0.3363015344
C   C141      1.0  0.26100  0.87190  0.33050  1.0000 -0.2263463372
C   C142      1.0  0.21750  0.91410  0.35140  1.0000 -0.0168990023
C   C143      1.0  0.17590  0.89490  0.40020  1.0000 -0.1905623485
C   C144      1.0  0.18480  0.83690  0.42630  1.0000 0.0592919951
N   N1        1.0  0.13000  0.84530  0.95250  1.0000 -0.1297925621
N   N2        1.0  0.16460  0.93180  0.97020  1.0000 -0.2074800577
N   N3        1.0  0.09390  0.88780  0.82130  1.0000 -0.2752254317
N   N4        1.0  0.39280  0.17750  0.54750  1.0000 -0.1297925621
N   N5        1.0  0.46160  0.19440  0.52980  1.0000 -0.2074800577
N   N6        1.0  0.56650  0.27260  0.67870  1.0000 -0.2742880294
N   N7        1.0  0.10720  0.65470  0.78470  1.0000 -0.1297925621
N   N8        1.0  0.03840  0.56820  0.73280  1.0000 -0.2074800577
N   N9        1.0  0.93350  0.61220  0.70610  1.0000 -0.2742880294
N   N10       1.0  0.37000  0.32250  0.71530  1.0000 -0.1297925621
N   N11       1.0  0.33540  0.30560  0.76720  1.0000 -0.2074800577
N   N12       1.0  0.40610  0.22740  0.79390  1.0000 -0.2742880294
N   N13       1.0  0.95250  0.13000  0.84530  1.0000 -0.1297925621
N   N14       1.0  0.97020  0.16460  0.93180  1.0000 -0.2074800577
N   N15       1.0  0.82130  0.09390  0.88780  1.0000 -0.2742880294
N   N16       1.0  0.54750  0.39280  0.17750  1.0000 -0.1297925621
N   N17       1.0  0.52980  0.46160  0.19440  1.0000 -0.2074800577
N   N18       1.0  0.67870  0.56650  0.27260  1.0000 -0.2742880294
N   N19       1.0  0.78470  0.10720  0.65470  1.0000 -0.1297925621
N   N20       1.0  0.73280  0.03840  0.56820  1.0000 -0.2074800577
N   N21       1.0  0.70610  0.93350  0.61220  1.0000 -0.2742880294
N   N22       1.0  0.71530  0.37000  0.32250  1.0000 -0.1297925621
N   N23       1.0  0.76720  0.33540  0.30560  1.0000 -0.2074800577
N   N24       1.0  0.79390  0.40610  0.22740  1.0000 -0.2742880294
N   N25       1.0  0.84530  0.95250  0.13000  1.0000 -0.1297925621
N   N26       1.0  0.93180  0.97020  0.16460  1.0000 -0.2074800577
N   N27       1.0  0.88780  0.82130  0.09390  1.0000 -0.2742880294
N   N28       1.0  0.17750  0.54750  0.39280  1.0000 -0.1297925621
N   N29       1.0  0.19440  0.52980  0.46160  1.0000 -0.2074800577
N   N30       1.0  0.27260  0.67870  0.56650  1.0000 -0.2752254317
N   N31       1.0  0.65470  0.78470  0.10720  1.0000 -0.1297925621
N   N32       1.0  0.56820  0.73280  0.03840  1.0000 -0.2074800577
N   N33       1.0  0.61220  0.70610  0.93350  1.0000 -0.2752254317
N   N34       1.0  0.32250  0.71530  0.37000  1.0000 -0.1297925621
N   N35       1.0  0.30560  0.76720  0.33540  1.0000 -0.2074800577
N   N36       1.0  0.22740  0.79390  0.40610  1.0000 -0.2752254317
N   N37       1.0  0.05460  0.50000  0.00000  1.0000 -0.1612176383
N   N38       1.0  0.00000  0.05460  0.50000  1.0000 -0.1612176383
N   N39       1.0  0.50000  0.00000  0.05460  1.0000 -0.1612176383
N   N40       1.0  0.44540  0.44540  0.44540  1.0000 -0.1612176383
Cl  Cl1       1.0  0.44067  0.75000  0.19067  1.0000 1.2515811613
Cl  Cl2       1.0  0.05933  0.25000  0.30933  1.0000 1.2515811613
Cl  Cl3       1.0  0.75000  0.19067  0.44067  1.0000 1.2515811613
Cl  Cl4       1.0  0.25000  0.30933  0.05933  1.0000 1.2515811613
Cl  Cl5       1.0  0.19067  0.44067  0.75000  1.0000 1.2515811613
Cl  Cl6       1.0  0.30933  0.05933  0.25000  1.0000 1.2515811613
O   O1        1.0  0.42860  0.67650  0.20330  1.0000 -0.4955291807
O   O2        1.0  0.37900  0.77320  0.20220  1.0000 -0.481283154
O   O3        1.0  0.52680  0.82350  0.25210  1.0000 -0.4955291807
O   O4        1.0  0.42900  0.72680  0.10580  1.0000 -0.481283154
O   O5        1.0  0.07140  0.27470  0.24790  1.0000 -0.4955291807
O   O6        1.0  0.12100  0.32320  0.39420  1.0000 -0.481283154
O   O7        1.0  0.97320  0.22530  0.29670  1.0000 -0.4955291807
O   O8        1.0  0.07100  0.17680  0.29780  1.0000 -0.481283154
O   O9        1.0  0.67650  0.20330  0.42860  1.0000 -0.4955291807
O   O10       1.0  0.77320  0.20220  0.37900  1.0000 -0.481283154
O   O11       1.0  0.82350  0.25210  0.52680  1.0000 -0.4955291807
O   O12       1.0  0.72680  0.10580  0.42900  1.0000 -0.481283154
O   O13       1.0  0.27470  0.24790  0.07140  1.0000 -0.4955291807
O   O14       1.0  0.32320  0.39420  0.12100  1.0000 -0.481283154
O   O15       1.0  0.22530  0.29670  0.97320  1.0000 -0.4955291807
O   O16       1.0  0.17680  0.29780  0.07100  1.0000 -0.481283154
O   O17       1.0  0.20330  0.42860  0.67650  1.0000 -0.4955291807
O   O18       1.0  0.20220  0.37900  0.77320  1.0000 -0.481283154
O   O19       1.0  0.25210  0.52680  0.82350  1.0000 -0.4955291807
O   O20       1.0  0.10580  0.42900  0.72680  1.0000 -0.481283154
O   O21       1.0  0.24790  0.07140  0.27470  1.0000 -0.4955291807
O   O22       1.0  0.39420  0.12100  0.32320  1.0000 -0.481283154
O   O23       1.0  0.29670  0.97320  0.22530  1.0000 -0.4955291807
O   O24       1.0  0.29780  0.07100  0.17680  1.0000 -0.481283154
