# DDEC6 charges by PACMAN v1.1 (https://github.com/mtap-research/PACMAN-charge/)
data_2017[Ag][srs]3[ION]27
_chemical_formula_sum              "Ag6 H120 C144 N40 Cl6 O24"
_cell_length_a       18.4874
_cell_length_b       18.4874
_cell_length_c       18.4874
_cell_angle_alpha    109.471
_cell_angle_beta     109.471
_cell_angle_gamma    109.471

_symmetry_space_group_name_H-M    "P 1"
_symmetry_Int_Tables_number       1

loop_
  _symmetry_equiv_pos_as_xyz
  'x, y, z'

loop_
  _atom_site_type_symbol
  _atom_site_label
  _atom_site_symmetry_multiplicity
  _atom_site_fract_x
  _atom_site_fract_y
  _atom_site_fract_z
  _atom_site_occupancy
  _atom_site_charge
Ag  Ag1       1.0  0.04365  0.75000  0.79365  1.0000 0.2732272607
Ag  Ag2       1.0  0.45635  0.25000  0.70635  1.0000 0.2732272607
Ag  Ag3       1.0  0.79365  0.04365  0.75000  1.0000 0.2732272607
Ag  Ag4       1.0  0.70635  0.45635  0.25000  1.0000 0.2732272607
Ag  Ag5       1.0  0.75000  0.79365  0.04365  1.0000 0.2732272607
Ag  Ag6       1.0  0.25000  0.70635  0.45635  1.0000 0.2732272607
H   H1        1.0  0.96790  0.54700  0.89910  1.0000 0.124044355
H   H2        1.0  0.01410  0.68100  0.90290  1.0000 0.1031113314
H   H3        1.0  0.24960  0.78060  0.11200  1.0000 0.1254618577
H   H4        1.0  0.20830  0.64660  0.10510  1.0000 0.124044355
H   H5        1.0  0.22070  0.88030  0.06700  1.0000 0.1121705882
H   H6        1.0  0.20490  0.08610  0.99280  1.0000 0.1528001539
H   H7        1.0  0.16830  0.12170  0.88120  1.0000 0.1031113314
H   H8        1.0  0.08260  0.00580  0.72860  1.0000 0.124044355
H   H9        1.0  0.03660  0.86330  0.69910  1.0000 0.1031113314
H   H10       1.0  0.20650  0.97440  0.02590  1.0000 0.2800810449
H   H11       1.0  0.14790  0.06880  0.60090  1.0000 0.124044355
H   H12       1.0  0.27810  0.11120  0.59710  1.0000 0.1031113314
H   H13       1.0  0.16860  0.13760  0.38800  1.0000 0.1254618577
H   H14       1.0  0.04150  0.10320  0.39490  1.0000 0.124044355
H   H15       1.0  0.31330  0.15370  0.43300  1.0000 0.1121705882
H   H16       1.0  0.59330  0.21210  0.50720  1.0000 0.1528001539
H   H17       1.0  0.74050  0.28710  0.61880  1.0000 0.1031113314
H   H18       1.0  0.77720  0.35400  0.77140  1.0000 0.124044355
H   H19       1.0  0.66420  0.33750  0.80090  1.0000 0.1031113314
H   H20       1.0  0.44850  0.18060  0.47410  1.0000 0.2800810449
H   H21       1.0  0.35210  0.95300  0.92090  1.0000 0.124044355
H   H22       1.0  0.22190  0.81900  0.83310  1.0000 0.1031113314
H   H23       1.0  0.33140  0.71940  0.96900  1.0000 0.1254618577
H   H24       1.0  0.45850  0.85340  0.06170  1.0000 0.124044355
H   H25       1.0  0.18670  0.61970  0.84040  1.0000 0.1121705882
H   H26       1.0  0.90670  0.41390  0.61880  1.0000 0.1528001539
H   H27       1.0  0.75950  0.37830  0.54660  1.0000 0.1031113314
H   H28       1.0  0.72280  0.49420  0.57680  1.0000 0.124044355
H   H29       1.0  0.83580  0.63670  0.67330  1.0000 0.1031113314
H   H30       1.0  0.05150  0.52560  0.73210  1.0000 0.2800810449
H   H31       1.0  0.53210  0.43120  0.57910  1.0000 0.124044355
H   H32       1.0  0.48590  0.38880  0.66690  1.0000 0.1031113314
H   H33       1.0  0.25040  0.36240  0.53100  1.0000 0.1254618577
H   H34       1.0  0.29170  0.39680  0.43830  1.0000 0.124044355
H   H35       1.0  0.27930  0.34630  0.65960  1.0000 0.1121705882
H   H36       1.0  0.29510  0.28790  0.88120  1.0000 0.1528001539
H   H37       1.0  0.33170  0.21290  0.95340  1.0000 0.1031113314
H   H38       1.0  0.41740  0.14600  0.92320  1.0000 0.124044355
H   H39       1.0  0.46340  0.16250  0.82670  1.0000 0.1031113314
H   H40       1.0  0.29350  0.31940  0.76790  1.0000 0.2800810449
H   H41       1.0  0.89910  0.96790  0.54700  1.0000 0.124044355
H   H42       1.0  0.90290  0.01410  0.68100  1.0000 0.1031113314
H   H43       1.0  0.11200  0.24960  0.78060  1.0000 0.1254618577
H   H44       1.0  0.10510  0.20830  0.64660  1.0000 0.124044355
H   H45       1.0  0.06700  0.22070  0.88030  1.0000 0.1121705882
H   H46       1.0  0.99280  0.20490  0.08610  1.0000 0.1528001539
H   H47       1.0  0.88120  0.16830  0.12170  1.0000 0.1031113314
H   H48       1.0  0.72860  0.08260  0.00580  1.0000 0.124044355
H   H49       1.0  0.69910  0.03660  0.86330  1.0000 0.1031113314
H   H50       1.0  0.02590  0.20650  0.97440  1.0000 0.2800810449
H   H51       1.0  0.60090  0.14790  0.06880  1.0000 0.124044355
H   H52       1.0  0.59710  0.27810  0.11120  1.0000 0.1031113314
H   H53       1.0  0.38800  0.16860  0.13760  1.0000 0.1254618577
H   H54       1.0  0.39490  0.04150  0.10320  1.0000 0.124044355
H   H55       1.0  0.43300  0.31330  0.15370  1.0000 0.1121705882
H   H56       1.0  0.50720  0.59330  0.21210  1.0000 0.1528001539
H   H57       1.0  0.61880  0.74050  0.28710  1.0000 0.1031113314
H   H58       1.0  0.77140  0.77720  0.35400  1.0000 0.124044355
H   H59       1.0  0.80090  0.66420  0.33750  1.0000 0.1031113314
H   H60       1.0  0.47410  0.44850  0.18060  1.0000 0.2800810449
H   H61       1.0  0.92090  0.35210  0.95300  1.0000 0.124044355
H   H62       1.0  0.83310  0.22190  0.81900  1.0000 0.1031113314
H   H63       1.0  0.96900  0.33140  0.71940  1.0000 0.1254618577
H   H64       1.0  0.06170  0.45850  0.85340  1.0000 0.124044355
H   H65       1.0  0.84040  0.18670  0.61970  1.0000 0.1121705882
H   H66       1.0  0.61880  0.90670  0.41390  1.0000 0.1528001539
H   H67       1.0  0.54660  0.75950  0.37830  1.0000 0.1031113314
H   H68       1.0  0.57680  0.72280  0.49420  1.0000 0.124044355
H   H69       1.0  0.67330  0.83580  0.63670  1.0000 0.1031113314
H   H70       1.0  0.73210  0.05150  0.52560  1.0000 0.2800810449
H   H71       1.0  0.57910  0.53210  0.43120  1.0000 0.124044355
H   H72       1.0  0.66690  0.48590  0.38880  1.0000 0.1031113314
H   H73       1.0  0.53100  0.25040  0.36240  1.0000 0.1254618577
H   H74       1.0  0.43830  0.29170  0.39680  1.0000 0.124044355
H   H75       1.0  0.65960  0.27930  0.34630  1.0000 0.1121705882
H   H76       1.0  0.88120  0.29510  0.28790  1.0000 0.1528001539
H   H77       1.0  0.95340  0.33170  0.21290  1.0000 0.1031113314
H   H78       1.0  0.92320  0.41740  0.14600  1.0000 0.124044355
H   H79       1.0  0.82670  0.46340  0.16250  1.0000 0.1031113314
H   H80       1.0  0.76790  0.29350  0.31940  1.0000 0.2800810449
H   H81       1.0  0.54700  0.89910  0.96790  1.0000 0.124044355
H   H82       1.0  0.68100  0.90290  0.01410  1.0000 0.1031113314
H   H83       1.0  0.78060  0.11200  0.24960  1.0000 0.1254618577
H   H84       1.0  0.64660  0.10510  0.20830  1.0000 0.124044355
H   H85       1.0  0.88030  0.06700  0.22070  1.0000 0.1121705882
H   H86       1.0  0.08610  0.99280  0.20490  1.0000 0.1528001539
H   H87       1.0  0.12170  0.88120  0.16830  1.0000 0.1031113314
H   H88       1.0  0.00580  0.72860  0.08260  1.0000 0.124044355
H   H89       1.0  0.86330  0.69910  0.03660  1.0000 0.1031113314
H   H90       1.0  0.97440  0.02590  0.20650  1.0000 0.2800810449
H   H91       1.0  0.06880  0.60090  0.14790  1.0000 0.124044355
H   H92       1.0  0.11120  0.59710  0.27810  1.0000 0.1031113314
H   H93       1.0  0.13760  0.38800  0.16860  1.0000 0.1254618577
H   H94       1.0  0.10320  0.39490  0.04150  1.0000 0.124044355
H   H95       1.0  0.15370  0.43300  0.31330  1.0000 0.1121705882
H   H96       1.0  0.21210  0.50720  0.59330  1.0000 0.1528001539
H   H97       1.0  0.28710  0.61880  0.74050  1.0000 0.1031113314
H   H98       1.0  0.35400  0.77140  0.77720  1.0000 0.124044355
H   H99       1.0  0.33750  0.80090  0.66420  1.0000 0.1031113314
H   H100      1.0  0.18060  0.47410  0.44850  1.0000 0.2800810449
H   H101      1.0  0.95300  0.92090  0.35210  1.0000 0.124044355
H   H102      1.0  0.81900  0.83310  0.22190  1.0000 0.1031113314
H   H103      1.0  0.71940  0.96900  0.33140  1.0000 0.1254618577
H   H104      1.0  0.85340  0.06170  0.45850  1.0000 0.124044355
H   H105      1.0  0.61970  0.84040  0.18670  1.0000 0.1121705882
H   H106      1.0  0.41390  0.61880  0.90670  1.0000 0.1528001539
H   H107      1.0  0.37830  0.54660  0.75950  1.0000 0.1031113314
H   H108      1.0  0.49420  0.57680  0.72280  1.0000 0.124044355
H   H109      1.0  0.63670  0.67330  0.83580  1.0000 0.1031113314
H   H110      1.0  0.52560  0.73210  0.05150  1.0000 0.2800810449
H   H111      1.0  0.43120  0.57910  0.53210  1.0000 0.124044355
H   H112      1.0  0.38880  0.66690  0.48590  1.0000 0.1031113314
H   H113      1.0  0.36240  0.53100  0.25040  1.0000 0.1254618577
H   H114      1.0  0.39680  0.43830  0.29170  1.0000 0.124044355
H   H115      1.0  0.34630  0.65960  0.27930  1.0000 0.1121705882
H   H116      1.0  0.28790  0.88120  0.29510  1.0000 0.1528001539
H   H117      1.0  0.21290  0.95340  0.33170  1.0000 0.1031113314
H   H118      1.0  0.14600  0.92320  0.41740  1.0000 0.124044355
H   H119      1.0  0.16250  0.82670  0.46340  1.0000 0.1031113314
H   H120      1.0  0.31940  0.76790  0.29350  1.0000 0.2800810449
C   C1        1.0  0.08260  0.58140  0.00280  1.0000 0.1825839392
C   C2        1.0  0.02570  0.59410  0.94220  1.0000 -0.1993603595
C   C3        1.0  0.05310  0.67430  0.94480  1.0000 -0.1366140955
C   C4        1.0  0.13740  0.74530  0.00830  1.0000 0.0562753236
C   C5        1.0  0.19270  0.73270  0.06780  1.0000 -0.1220744811
C   C6        1.0  0.16770  0.65330  0.06480  1.0000 -0.1893530712
C   C7        1.0  0.16920  0.83180  0.01480  1.0000 -0.0160713444
C   C8        1.0  0.14150  0.95210  0.90800  1.0000 0.341969978
C   C9        1.0  0.17110  0.04170  0.93280  1.0000 -0.2360105552
C   C10       1.0  0.14940  0.06230  0.86670  1.0000 -0.0160713444
C   C11       1.0  0.09760  0.99300  0.77480  1.0000 -0.1893530712
C   C12       1.0  0.07200  0.90940  0.75840  1.0000 0.050200576
C   C13       1.0  0.07860  0.07980  0.49720  1.0000 0.1825839392
C   C14       1.0  0.15190  0.08350  0.55780  1.0000 -0.1993603595
C   C15       1.0  0.22950  0.10830  0.55520  1.0000 -0.1366140955
C   C16       1.0  0.23700  0.12910  0.49170  1.0000 0.0562753236
C   C17       1.0  0.16490  0.12490  0.43220  1.0000 -0.1220744811
C   C18       1.0  0.08850  0.10290  0.43520  1.0000 -0.1893530712
C   C19       1.0  0.31700  0.15440  0.48520  1.0000 -0.0160713444
C   C20       1.0  0.54410  0.23350  0.59200  1.0000 0.341969978
C   C21       1.0  0.60890  0.23830  0.56720  1.0000 -0.2360105552
C   C22       1.0  0.69560  0.28270  0.63330  1.0000 -0.0160713444
C   C23       1.0  0.71820  0.32280  0.72520  1.0000 -0.1893530712
C   C24       1.0  0.65100  0.31360  0.74160  1.0000 0.050200576
C   C25       1.0  0.42140  0.91860  0.00120  1.0000 0.1825839392
C   C26       1.0  0.34810  0.90590  0.93160  1.0000 -0.1993603595
C   C27       1.0  0.27050  0.82570  0.87880  1.0000 -0.1366140955
C   C28       1.0  0.26300  0.75470  0.89210  1.0000 0.0562753236
C   C29       1.0  0.33510  0.76730  0.96000  1.0000 -0.1220744811
C   C30       1.0  0.41150  0.84670  0.01440  1.0000 -0.1893530712
C   C31       1.0  0.18300  0.66820  0.83740  1.0000 -0.0160713444
C   C32       1.0  0.95590  0.54790  0.68940  1.0000 0.341969978
C   C33       1.0  0.89110  0.45830  0.62940  1.0000 -0.2360105552
C   C34       1.0  0.80440  0.43770  0.58710  1.0000 -0.0160713444
C   C35       1.0  0.78180  0.50700  0.60460  1.0000 -0.1893530712
C   C36       1.0  0.84900  0.59060  0.66260  1.0000 0.050200576
C   C37       1.0  0.41740  0.42020  0.49880  1.0000 0.1825839392
C   C38       1.0  0.47430  0.41650  0.56840  1.0000 -0.1993603595
C   C39       1.0  0.44690  0.39170  0.62120  1.0000 -0.1366140955
C   C40       1.0  0.36260  0.37090  0.60790  1.0000 0.0562753236
C   C41       1.0  0.30730  0.37510  0.54000  1.0000 -0.1220744811
C   C42       1.0  0.33230  0.39710  0.48560  1.0000 -0.1893530712
C   C43       1.0  0.33080  0.34560  0.66260  1.0000 -0.0160713444
C   C44       1.0  0.35850  0.26650  0.81060  1.0000 0.341969978
C   C45       1.0  0.32890  0.26170  0.87060  1.0000 -0.2360105552
C   C46       1.0  0.35060  0.21730  0.91290  1.0000 -0.0160713444
C   C47       1.0  0.40240  0.17720  0.89540  1.0000 -0.1893530712
C   C48       1.0  0.42800  0.18640  0.83740  1.0000 0.050200576
C   C49       1.0  0.00280  0.08260  0.58140  1.0000 0.1825839392
C   C50       1.0  0.94220  0.02570  0.59410  1.0000 -0.1993603595
C   C51       1.0  0.94480  0.05310  0.67430  1.0000 -0.1366140955
C   C52       1.0  0.00830  0.13740  0.74530  1.0000 0.0562753236
C   C53       1.0  0.06780  0.19270  0.73270  1.0000 -0.1220744811
C   C54       1.0  0.06480  0.16770  0.65330  1.0000 -0.1893530712
C   C55       1.0  0.01480  0.16920  0.83180  1.0000 -0.0160713444
C   C56       1.0  0.90800  0.14150  0.95210  1.0000 0.341969978
C   C57       1.0  0.93280  0.17110  0.04170  1.0000 -0.2360105552
C   C58       1.0  0.86670  0.14940  0.06230  1.0000 -0.0160713444
C   C59       1.0  0.77480  0.09760  0.99300  1.0000 -0.1893530712
C   C60       1.0  0.75840  0.07200  0.90940  1.0000 0.050200576
C   C61       1.0  0.49720  0.07860  0.07980  1.0000 0.1825839392
C   C62       1.0  0.55780  0.15190  0.08350  1.0000 -0.1993603595
C   C63       1.0  0.55520  0.22950  0.10830  1.0000 -0.1366140955
C   C64       1.0  0.49170  0.23700  0.12910  1.0000 0.0562753236
C   C65       1.0  0.43220  0.16490  0.12490  1.0000 -0.1220744811
C   C66       1.0  0.43520  0.08850  0.10290  1.0000 -0.1893530712
C   C67       1.0  0.48520  0.31700  0.15440  1.0000 -0.0160713444
C   C68       1.0  0.59200  0.54410  0.23350  1.0000 0.341969978
C   C69       1.0  0.56720  0.60890  0.23830  1.0000 -0.2360105552
C   C70       1.0  0.63330  0.69560  0.28270  1.0000 -0.0160713444
C   C71       1.0  0.72520  0.71820  0.32280  1.0000 -0.1893530712
C   C72       1.0  0.74160  0.65100  0.31360  1.0000 0.050200576
C   C73       1.0  0.00120  0.42140  0.91860  1.0000 0.1825839392
C   C74       1.0  0.93160  0.34810  0.90590  1.0000 -0.1993603595
C   C75       1.0  0.87880  0.27050  0.82570  1.0000 -0.1366140955
C   C76       1.0  0.89210  0.26300  0.75470  1.0000 0.0562753236
C   C77       1.0  0.96000  0.33510  0.76730  1.0000 -0.1220744811
C   C78       1.0  0.01440  0.41150  0.84670  1.0000 -0.1893530712
C   C79       1.0  0.83740  0.18300  0.66820  1.0000 -0.0160713444
C   C80       1.0  0.68940  0.95590  0.54790  1.0000 0.341969978
C   C81       1.0  0.62940  0.89110  0.45830  1.0000 -0.2360105552
C   C82       1.0  0.58710  0.80440  0.43770  1.0000 -0.0160713444
C   C83       1.0  0.60460  0.78180  0.50700  1.0000 -0.1893530712
C   C84       1.0  0.66260  0.84900  0.59060  1.0000 0.050200576
C   C85       1.0  0.49880  0.41740  0.42020  1.0000 0.1825839392
C   C86       1.0  0.56840  0.47430  0.41650  1.0000 -0.1993603595
C   C87       1.0  0.62120  0.44690  0.39170  1.0000 -0.1366140955
C   C88       1.0  0.60790  0.36260  0.37090  1.0000 0.0562753236
C   C89       1.0  0.54000  0.30730  0.37510  1.0000 -0.1220744811
C   C90       1.0  0.48560  0.33230  0.39710  1.0000 -0.1893530712
C   C91       1.0  0.66260  0.33080  0.34560  1.0000 -0.0160713444
C   C92       1.0  0.81060  0.35850  0.26650  1.0000 0.341969978
C   C93       1.0  0.87060  0.32890  0.26170  1.0000 -0.2360105552
C   C94       1.0  0.91290  0.35060  0.21730  1.0000 -0.0160713444
C   C95       1.0  0.89540  0.40240  0.17720  1.0000 -0.1893530712
C   C96       1.0  0.83740  0.42800  0.18640  1.0000 0.050200576
C   C97       1.0  0.58140  0.00280  0.08260  1.0000 0.1825839392
C   C98       1.0  0.59410  0.94220  0.02570  1.0000 -0.1993603595
C   C99       1.0  0.67430  0.94480  0.05310  1.0000 -0.1366140955
C   C100      1.0  0.74530  0.00830  0.13740  1.0000 0.0562753236
C   C101      1.0  0.73270  0.06780  0.19270  1.0000 -0.1220744811
C   C102      1.0  0.65330  0.06480  0.16770  1.0000 -0.1893530712
C   C103      1.0  0.83180  0.01480  0.16920  1.0000 -0.0160713444
C   C104      1.0  0.95210  0.90800  0.14150  1.0000 0.341969978
C   C105      1.0  0.04170  0.93280  0.17110  1.0000 -0.2360105552
C   C106      1.0  0.06230  0.86670  0.14940  1.0000 -0.0160713444
C   C107      1.0  0.99300  0.77480  0.09760  1.0000 -0.1893530712
C   C108      1.0  0.90940  0.75840  0.07200  1.0000 0.050200576
C   C109      1.0  0.07980  0.49720  0.07860  1.0000 0.1825839392
C   C110      1.0  0.08350  0.55780  0.15190  1.0000 -0.1993603595
C   C111      1.0  0.10830  0.55520  0.22950  1.0000 -0.1366140955
C   C112      1.0  0.12910  0.49170  0.23700  1.0000 0.0562753236
C   C113      1.0  0.12490  0.43220  0.16490  1.0000 -0.1220744811
C   C114      1.0  0.10290  0.43520  0.08850  1.0000 -0.1893530712
C   C115      1.0  0.15440  0.48520  0.31700  1.0000 -0.0160713444
C   C116      1.0  0.23350  0.59200  0.54410  1.0000 0.341969978
C   C117      1.0  0.23830  0.56720  0.60890  1.0000 -0.2360105552
C   C118      1.0  0.28270  0.63330  0.69560  1.0000 -0.0160713444
C   C119      1.0  0.32280  0.72520  0.71820  1.0000 -0.1893530712
C   C120      1.0  0.31360  0.74160  0.65100  1.0000 0.050200576
C   C121      1.0  0.91860  0.00120  0.42140  1.0000 0.1825839392
C   C122      1.0  0.90590  0.93160  0.34810  1.0000 -0.1993603595
C   C123      1.0  0.82570  0.87880  0.27050  1.0000 -0.1366140955
C   C124      1.0  0.75470  0.89210  0.26300  1.0000 0.0562753236
C   C125      1.0  0.76730  0.96000  0.33510  1.0000 -0.1220744811
C   C126      1.0  0.84670  0.01440  0.41150  1.0000 -0.1893530712
C   C127      1.0  0.66820  0.83740  0.18300  1.0000 -0.0160713444
C   C128      1.0  0.54790  0.68940  0.95590  1.0000 0.341969978
C   C129      1.0  0.45830  0.62940  0.89110  1.0000 -0.2360105552
C   C130      1.0  0.43770  0.58710  0.80440  1.0000 -0.0160713444
C   C131      1.0  0.50700  0.60460  0.78180  1.0000 -0.1893530712
C   C132      1.0  0.59060  0.66260  0.84900  1.0000 0.050200576
C   C133      1.0  0.42020  0.49880  0.41740  1.0000 0.1825839392
C   C134      1.0  0.41650  0.56840  0.47430  1.0000 -0.1993603595
C   C135      1.0  0.39170  0.62120  0.44690  1.0000 -0.1366140955
C   C136      1.0  0.37090  0.60790  0.36260  1.0000 0.0562753236
C   C137      1.0  0.37510  0.54000  0.30730  1.0000 -0.1220744811
C   C138      1.0  0.39710  0.48560  0.33230  1.0000 -0.1893530712
C   C139      1.0  0.34560  0.66260  0.33080  1.0000 -0.0160713444
C   C140      1.0  0.26650  0.81060  0.35850  1.0000 0.341969978
C   C141      1.0  0.26170  0.87060  0.32890  1.0000 -0.2360105552
C   C142      1.0  0.21730  0.91290  0.35060  1.0000 -0.0160713444
C   C143      1.0  0.17720  0.89540  0.40240  1.0000 -0.1893530712
C   C144      1.0  0.18640  0.83740  0.42800  1.0000 0.050200576
N   N1        1.0  0.13120  0.84500  0.95400  1.0000 -0.1317648925
N   N2        1.0  0.16680  0.93190  0.97190  1.0000 -0.2083835465
N   N3        1.0  0.09470  0.88780  0.82350  1.0000 -0.2866943665
N   N4        1.0  0.39100  0.17720  0.54600  1.0000 -0.1317648925
N   N5        1.0  0.46000  0.19490  0.52810  1.0000 -0.2083835465
N   N6        1.0  0.56430  0.27120  0.67650  1.0000 -0.2866943665
N   N7        1.0  0.10900  0.65500  0.78620  1.0000 -0.1317648925
N   N8        1.0  0.04000  0.56810  0.73490  1.0000 -0.2083835465
N   N9        1.0  0.93570  0.61220  0.70690  1.0000 -0.2866943665
N   N10       1.0  0.36880  0.32280  0.71380  1.0000 -0.1317648925
N   N11       1.0  0.33320  0.30510  0.76510  1.0000 -0.2083835465
N   N12       1.0  0.40530  0.22880  0.79310  1.0000 -0.2866943665
N   N13       1.0  0.95400  0.13120  0.84500  1.0000 -0.1317648925
N   N14       1.0  0.97190  0.16680  0.93190  1.0000 -0.2083835465
N   N15       1.0  0.82350  0.09470  0.88780  1.0000 -0.2866943665
N   N16       1.0  0.54600  0.39100  0.17720  1.0000 -0.1317648925
N   N17       1.0  0.52810  0.46000  0.19490  1.0000 -0.2083835465
N   N18       1.0  0.67650  0.56430  0.27120  1.0000 -0.2866943665
N   N19       1.0  0.78620  0.10900  0.65500  1.0000 -0.1317648925
N   N20       1.0  0.73490  0.04000  0.56810  1.0000 -0.2083835465
N   N21       1.0  0.70690  0.93570  0.61220  1.0000 -0.2866943665
N   N22       1.0  0.71380  0.36880  0.32280  1.0000 -0.1317648925
N   N23       1.0  0.76510  0.33320  0.30510  1.0000 -0.2083835465
N   N24       1.0  0.79310  0.40530  0.22880  1.0000 -0.2866943665
N   N25       1.0  0.84500  0.95400  0.13120  1.0000 -0.1317648925
N   N26       1.0  0.93190  0.97190  0.16680  1.0000 -0.2083835465
N   N27       1.0  0.88780  0.82350  0.09470  1.0000 -0.2866943665
N   N28       1.0  0.17720  0.54600  0.39100  1.0000 -0.1317648925
N   N29       1.0  0.19490  0.52810  0.46000  1.0000 -0.2083835465
N   N30       1.0  0.27120  0.67650  0.56430  1.0000 -0.2866943665
N   N31       1.0  0.65500  0.78620  0.10900  1.0000 -0.1317648925
N   N32       1.0  0.56810  0.73490  0.04000  1.0000 -0.2083835465
N   N33       1.0  0.61220  0.70690  0.93570  1.0000 -0.2866943665
N   N34       1.0  0.32280  0.71380  0.36880  1.0000 -0.1317648925
N   N35       1.0  0.30510  0.76510  0.33320  1.0000 -0.2083835465
N   N36       1.0  0.22880  0.79310  0.40530  1.0000 -0.2866943665
N   N37       1.0  0.05480  0.50000  0.00000  1.0000 -0.1524613873
N   N38       1.0  1.00000  0.05480  0.50000  1.0000 -0.1524613873
N   N39       1.0  0.50000  0.00000  0.05480  1.0000 -0.1524613873
N   N40       1.0  0.44520  0.44520  0.44520  1.0000 -0.1524613873
Cl  Cl1       1.0  0.44081  0.75000  0.19081  1.0000 1.2495845867
Cl  Cl2       1.0  0.05919  0.25000  0.30919  1.0000 1.2495845867
Cl  Cl3       1.0  0.75000  0.19081  0.44081  1.0000 1.2495845867
Cl  Cl4       1.0  0.25000  0.30919  0.05919  1.0000 1.2495845867
Cl  Cl5       1.0  0.19081  0.44081  0.75000  1.0000 1.2495845867
Cl  Cl6       1.0  0.30919  0.05919  0.25000  1.0000 1.2495845867
O   O1        1.0  0.42720  0.67610  0.20070  1.0000 -0.4809224271
O   O2        1.0  0.37980  0.77290  0.20430  1.0000 -0.4809224271
O   O3        1.0  0.52460  0.82390  0.25110  1.0000 -0.4809224271
O   O4        1.0  0.43140  0.72710  0.10690  1.0000 -0.4809224271
O   O5        1.0  0.07280  0.27350  0.24890  1.0000 -0.4809224271
O   O6        1.0  0.12020  0.32450  0.39310  1.0000 -0.4809224271
O   O7        1.0  0.97540  0.22650  0.29930  1.0000 -0.4809224271
O   O8        1.0  0.06860  0.17550  0.29570  1.0000 -0.4809224271
O   O9        1.0  0.67610  0.20070  0.42720  1.0000 -0.4809224271
O   O10       1.0  0.77290  0.20430  0.37980  1.0000 -0.4809224271
O   O11       1.0  0.82390  0.25110  0.52460  1.0000 -0.4809224271
O   O12       1.0  0.72710  0.10690  0.43140  1.0000 -0.4809224271
O   O13       1.0  0.27350  0.24890  0.07280  1.0000 -0.4809224271
O   O14       1.0  0.32450  0.39310  0.12020  1.0000 -0.4809224271
O   O15       1.0  0.22650  0.29930  0.97540  1.0000 -0.4809224271
O   O16       1.0  0.17550  0.29570  0.06860  1.0000 -0.4809224271
O   O17       1.0  0.20070  0.42720  0.67610  1.0000 -0.4809224271
O   O18       1.0  0.20430  0.37980  0.77290  1.0000 -0.4809224271
O   O19       1.0  0.25110  0.52460  0.82390  1.0000 -0.4809224271
O   O20       1.0  0.10690  0.43140  0.72710  1.0000 -0.4809224271
O   O21       1.0  0.24890  0.07280  0.27350  1.0000 -0.4809224271
O   O22       1.0  0.39310  0.12020  0.32450  1.0000 -0.4809224271
O   O23       1.0  0.29930  0.97540  0.22650  1.0000 -0.4809224271
O   O24       1.0  0.29570  0.06860  0.17550  1.0000 -0.4809224271
