# DDEC6 charges by PACMAN v1.1 (https://github.com/mtap-research/PACMAN-charge/)
data_2018[Cu][ths]3[ION]1
_chemical_formula_sum              "Cu8 H64 C48 N4 O48"
_cell_length_a       8.5822
_cell_length_b       34.1802
_cell_length_c       8.6817
_cell_angle_alpha    90
_cell_angle_beta     107.6
_cell_angle_gamma    90

_symmetry_space_group_name_H-M    "P 1"
_symmetry_Int_Tables_number       1

loop_
  _symmetry_equiv_pos_as_xyz
  'x, y, z'

loop_
  _atom_site_type_symbol
  _atom_site_label
  _atom_site_symmetry_multiplicity
  _atom_site_fract_x
  _atom_site_fract_y
  _atom_site_fract_z
  _atom_site_occupancy
  _atom_site_charge
Cu  Cu1       1.0  0.52317  0.79660  0.25166  1.0000 0.902515205
Cu  Cu2       1.0  0.97683  0.29660  0.74834  1.0000 0.902515205
Cu  Cu3       1.0  0.47683  0.20340  0.74834  1.0000 0.902515205
Cu  Cu4       1.0  0.02317  0.70340  0.25166  1.0000 0.902515205
Cu  Cu5       1.0  0.50180  0.95446  0.26248  1.0000 0.8681335322
Cu  Cu6       1.0  0.99820  0.45446  0.73752  1.0000 0.8681335322
Cu  Cu7       1.0  0.49820  0.04554  0.73752  1.0000 0.8681335322
Cu  Cu8       1.0  0.00180  0.54554  0.26248  1.0000 0.8681335322
H   H1        1.0  0.29450  0.56670  0.08760  1.0000 0.2673878394
H   H2        1.0  0.27630  0.62930  0.99880  1.0000 0.1092500659
H   H3        1.0  0.32650  0.63040  0.19160  1.0000 0.1092500659
H   H4        1.0  0.47820  0.67680  0.09900  1.0000 0.1659880154
H   H5        1.0  0.54900  0.64330  0.01040  1.0000 0.1497224281
H   H6        1.0  0.59920  0.64440  0.20350  1.0000 0.1497224281
H   H7        1.0  0.57820  0.57790  0.99000  1.0000 0.1178185645
H   H8        1.0  0.47970  0.53770  0.97890  1.0000 0.1092500659
H   H9        1.0  0.40940  0.56800  0.72490  1.0000 0.1497224281
H   H10       1.0  0.35060  0.60620  0.79820  1.0000 0.1391370095
H   H11       1.0  0.25200  0.56610  0.78700  1.0000 0.1497224281
H   H12       1.0  0.62020  0.57830  0.28620  1.0000 0.1178185645
H   H13       1.0  0.46570  0.58020  0.35270  1.0000 0.1178185645
H   H14       1.0  0.58610  0.51810  0.40110  1.0000 0.1497224281
H   H15       1.0  0.55970  0.51240  0.21190  1.0000 0.1391370095
H   H16       1.0  0.40510  0.51430  0.27850  1.0000 0.1497224281
H   H17       1.0  0.20550  0.06670  0.91240  1.0000 0.2673878394
H   H18       1.0  0.22370  0.12930  0.00120  1.0000 0.1092500659
H   H19       1.0  0.17350  0.13040  0.80840  1.0000 0.1092500659
H   H20       1.0  0.02180  0.17680  0.90100  1.0000 0.1659880154
H   H21       1.0  0.95100  0.14330  0.98960  1.0000 0.1497224281
H   H22       1.0  0.90080  0.14440  0.79650  1.0000 0.1497224281
H   H23       1.0  0.92180  0.07790  0.01000  1.0000 0.1178185645
H   H24       1.0  0.02030  0.03770  0.02110  1.0000 0.1092500659
H   H25       1.0  0.09060  0.06800  0.27510  1.0000 0.1497224281
H   H26       1.0  0.14940  0.10620  0.20180  1.0000 0.1391370095
H   H27       1.0  0.24800  0.06610  0.21300  1.0000 0.1497224281
H   H28       1.0  0.87980  0.07830  0.71380  1.0000 0.1178185645
H   H29       1.0  0.03430  0.08020  0.64730  1.0000 0.1178185645
H   H30       1.0  0.91390  0.01810  0.59890  1.0000 0.1497224281
H   H31       1.0  0.94030  0.01240  0.78810  1.0000 0.1391370095
H   H32       1.0  0.09490  0.01430  0.72150  1.0000 0.1497224281
H   H33       1.0  0.70550  0.43330  0.91240  1.0000 0.2673878394
H   H34       1.0  0.72370  0.37070  0.00120  1.0000 0.1092500659
H   H35       1.0  0.67350  0.36960  0.80840  1.0000 0.1092500659
H   H36       1.0  0.52180  0.32320  0.90100  1.0000 0.1659880154
H   H37       1.0  0.45100  0.35670  0.98960  1.0000 0.1497224281
H   H38       1.0  0.40080  0.35560  0.79650  1.0000 0.1497224281
H   H39       1.0  0.42180  0.42210  0.01000  1.0000 0.1178185645
H   H40       1.0  0.52030  0.46230  0.02110  1.0000 0.1092500659
H   H41       1.0  0.59060  0.43200  0.27510  1.0000 0.1497224281
H   H42       1.0  0.64940  0.39380  0.20180  1.0000 0.1391370095
H   H43       1.0  0.74800  0.43390  0.21300  1.0000 0.1497224281
H   H44       1.0  0.37980  0.42170  0.71380  1.0000 0.1178185645
H   H45       1.0  0.53430  0.41980  0.64730  1.0000 0.1178185645
H   H46       1.0  0.41390  0.48190  0.59890  1.0000 0.1497224281
H   H47       1.0  0.44030  0.48760  0.78810  1.0000 0.1391370095
H   H48       1.0  0.59490  0.48570  0.72150  1.0000 0.1497224281
H   H49       1.0  0.79450  0.93330  0.08760  1.0000 0.2673878394
H   H50       1.0  0.77630  0.87070  0.99880  1.0000 0.1092500659
H   H51       1.0  0.82650  0.86960  0.19160  1.0000 0.1092500659
H   H52       1.0  0.97820  0.82320  0.09900  1.0000 0.1659880154
H   H53       1.0  0.04900  0.85670  0.01040  1.0000 0.1497224281
H   H54       1.0  0.09920  0.85560  0.20350  1.0000 0.1497224281
H   H55       1.0  0.07820  0.92210  0.99000  1.0000 0.1178185645
H   H56       1.0  0.97970  0.96230  0.97890  1.0000 0.1092500659
H   H57       1.0  0.90940  0.93200  0.72490  1.0000 0.1497224281
H   H58       1.0  0.85060  0.89380  0.79820  1.0000 0.1391370095
H   H59       1.0  0.75200  0.93390  0.78700  1.0000 0.1497224281
H   H60       1.0  0.12020  0.92170  0.28620  1.0000 0.1178185645
H   H61       1.0  0.96570  0.91980  0.35270  1.0000 0.1178185645
H   H62       1.0  0.08610  0.98190  0.40110  1.0000 0.1497224281
H   H63       1.0  0.05970  0.98760  0.21190  1.0000 0.1391370095
H   H64       1.0  0.90510  0.98570  0.27850  1.0000 0.1497224281
C   C1        1.0  0.43910  0.87679  0.18230  1.0000 0.4605453335
C   C2        1.0  0.06090  0.37679  0.81770  1.0000 0.4605453335
C   C3        1.0  0.56090  0.12321  0.81770  1.0000 0.4605453335
C   C4        1.0  0.93910  0.62321  0.18230  1.0000 0.4605453335
C   C5        1.0  0.59720  0.87410  0.33050  1.0000 0.4605453335
C   C6        1.0  0.90280  0.37410  0.66950  1.0000 0.4605453335
C   C7        1.0  0.40280  0.12590  0.66950  1.0000 0.4605453335
C   C8        1.0  0.09720  0.62590  0.33050  1.0000 0.4605453335
C   C9        1.0  0.28520  0.74130  0.19030  1.0000 0.4673696395
C   C10       1.0  0.21480  0.24130  0.80970  1.0000 0.4673696395
C   C11       1.0  0.71480  0.25870  0.80970  1.0000 0.4673696395
C   C12       1.0  0.78520  0.75870  0.19030  1.0000 0.4673696395
C   C13       1.0  0.27250  0.76392  0.34140  1.0000 0.4756423779
C   C14       1.0  0.22750  0.26392  0.65860  1.0000 0.4756423779
C   C15       1.0  0.72750  0.23608  0.65860  1.0000 0.4756423779
C   C16       1.0  0.77250  0.73608  0.34140  1.0000 0.4756423779
C   C17       1.0  0.57890  0.98856  0.00020  1.0000 0.4673696395
C   C18       1.0  0.92110  0.48856  0.99980  1.0000 0.4673696395
C   C19       1.0  0.42110  0.01144  0.99980  1.0000 0.4605453335
C   C20       1.0  0.07890  0.51144  0.00020  1.0000 0.4673696395
C   C21       1.0  0.43090  0.98763  0.51550  1.0000 0.4540213965
C   C22       1.0  0.06910  0.48763  0.48450  1.0000 0.4540213965
C   C23       1.0  0.56910  0.01237  0.48450  1.0000 0.4540213965
C   C24       1.0  0.93090  0.51237  0.51550  1.0000 0.4540213965
C   C25       1.0  0.36580  0.62355  0.09890  1.0000 -0.0282908726
C   C26       1.0  0.51090  0.64929  0.10340  1.0000 -0.3899882265
C   C27       1.0  0.46810  0.56653  0.97260  1.0000 -0.0232603644
C   C28       1.0  0.36060  0.57768  0.80600  1.0000 -0.3996708158
C   C29       1.0  0.50820  0.56824  0.26970  1.0000 -0.0282908726
C   C30       1.0  0.51540  0.52441  0.29230  1.0000 -0.3996708158
C   C31       1.0  0.13420  0.12355  0.90110  1.0000 -0.0282908726
C   C32       1.0  0.98910  0.14929  0.89660  1.0000 -0.3899882265
C   C33       1.0  0.03190  0.06653  0.02740  1.0000 -0.0232603644
C   C34       1.0  0.13940  0.07768  0.19400  1.0000 -0.3996708158
C   C35       1.0  0.99180  0.06824  0.73030  1.0000 -0.0282908726
C   C36       1.0  0.98460  0.02441  0.70770  1.0000 -0.3996708158
C   C37       1.0  0.63420  0.37645  0.90110  1.0000 -0.0282908726
C   C38       1.0  0.48910  0.35071  0.89660  1.0000 -0.3899882265
C   C39       1.0  0.53190  0.43347  0.02740  1.0000 -0.0232603644
C   C40       1.0  0.63940  0.42232  0.19400  1.0000 -0.3996708158
C   C41       1.0  0.49180  0.43176  0.73030  1.0000 -0.0282908726
C   C42       1.0  0.48460  0.47559  0.70770  1.0000 -0.4052291192
C   C43       1.0  0.86580  0.87645  0.09890  1.0000 -0.0282908726
C   C44       1.0  0.01090  0.85071  0.10340  1.0000 -0.3899882265
C   C45       1.0  0.96810  0.93347  0.97260  1.0000 -0.0232603644
C   C46       1.0  0.86060  0.92232  0.80600  1.0000 -0.3996708158
C   C47       1.0  0.00820  0.93176  0.26970  1.0000 -0.0282908726
C   C48       1.0  0.01540  0.97559  0.29230  1.0000 -0.3996708158
N   N1        1.0  0.40163  0.58035  0.10500  1.0000 -0.0232603644
N   N2        1.0  0.09837  0.08035  0.89500  1.0000 -0.0232603644
N   N3        1.0  0.59837  0.41965  0.89500  1.0000 -0.0232603644
N   N4        1.0  0.90163  0.91965  0.10500  1.0000 -0.0232603644
O   O1        1.0  0.39139  0.84653  0.10359  1.0000 -0.4670018308
O   O2        1.0  0.10861  0.34653  0.89641  1.0000 -0.4670018308
O   O3        1.0  0.60861  0.15347  0.89641  1.0000 -0.4670018308
O   O4        1.0  0.89139  0.65347  0.10359  1.0000 -0.4670018308
O   O5        1.0  0.37149  0.90992  0.15282  1.0000 -0.4670018308
O   O6        1.0  0.12851  0.40992  0.84718  1.0000 -0.4670018308
O   O7        1.0  0.62851  0.09008  0.84718  1.0000 -0.4670018308
O   O8        1.0  0.87149  0.59008  0.15282  1.0000 -0.4670018308
O   O9        1.0  0.64483  0.84003  0.37916  1.0000 -0.4502230153
O   O10       1.0  0.85517  0.34003  0.62084  1.0000 -0.4502230153
O   O11       1.0  0.35517  0.15997  0.62084  1.0000 -0.4502230153
O   O12       1.0  0.14483  0.65997  0.37916  1.0000 -0.4502230153
O   O13       1.0  0.66509  0.90496  0.38862  1.0000 -0.5001831099
O   O14       1.0  0.83491  0.40496  0.61138  1.0000 -0.5001831099
O   O15       1.0  0.33491  0.09504  0.61138  1.0000 -0.5001831099
O   O16       1.0  0.16509  0.59504  0.38862  1.0000 -0.5001831099
O   O17       1.0  0.36298  0.79429  0.37704  1.0000 -0.4607657358
O   O18       1.0  0.13702  0.29429  0.62296  1.0000 -0.4607657358
O   O19       1.0  0.63702  0.20571  0.62296  1.0000 -0.4607657358
O   O20       1.0  0.86298  0.70571  0.37704  1.0000 -0.4607657358
O   O21       1.0  0.18090  0.75188  0.41542  1.0000 -0.4312586688
O   O22       1.0  0.31910  0.25188  0.58458  1.0000 -0.4312586688
O   O23       1.0  0.81910  0.24812  0.58458  1.0000 -0.4312586688
O   O24       1.0  0.68090  0.74812  0.41542  1.0000 -0.4312586688
O   O25       1.0  0.38934  0.75362  0.12651  1.0000 -0.4366832875
O   O26       1.0  0.11066  0.25362  0.87349  1.0000 -0.4366832875
O   O27       1.0  0.61066  0.24638  0.87349  1.0000 -0.4366832875
O   O28       1.0  0.88934  0.74638  0.12651  1.0000 -0.4366832875
O   O29       1.0  0.19426  0.71243  0.14292  1.0000 -0.4312586688
O   O30       1.0  0.30574  0.21243  0.85708  1.0000 -0.4312586688
O   O31       1.0  0.80574  0.28757  0.85708  1.0000 -0.4312586688
O   O32       1.0  0.69426  0.78757  0.14292  1.0000 -0.4312586688
O   O33       1.0  0.61433  0.95900  0.09417  1.0000 -0.5001831099
O   O34       1.0  0.88567  0.45900  0.90583  1.0000 -0.5001831099
O   O35       1.0  0.38567  0.04100  0.90583  1.0000 -0.5001831099
O   O36       1.0  0.11433  0.54100  0.09417  1.0000 -0.5001831099
O   O37       1.0  0.65827  0.99973  0.91181  1.0000 -0.4949480273
O   O38       1.0  0.84173  0.49973  0.08819  1.0000 -0.4949480273
O   O39       1.0  0.34173  0.00027  0.08819  1.0000 -0.4949480273
O   O40       1.0  0.15827  0.50027  0.91181  1.0000 -0.5001831099
O   O41       1.0  0.38841  0.95752  0.43132  1.0000 -0.4502230153
O   O42       1.0  0.11159  0.45752  0.56868  1.0000 -0.4502230153
O   O43       1.0  0.61159  0.04248  0.56868  1.0000 -0.4502230153
O   O44       1.0  0.88841  0.54248  0.43132  1.0000 -0.4502230153
O   O45       1.0  0.37232  0.99973  0.62240  1.0000 -0.4607657358
O   O46       1.0  0.12768  0.49973  0.37760  1.0000 -0.4607657358
O   O47       1.0  0.62768  0.00027  0.37760  1.0000 -0.4607657358
O   O48       1.0  0.87232  0.50027  0.62240  1.0000 -0.4607657358
