# DDEC6 charges by PACMAN v1.1 (https://github.com/mtap-research/PACMAN-charge/)
data_2018[Cu][sql]2[ION]2
_chemical_formula_sum              "Cu1 H32 C20 N12 Cl2 O10"
_cell_length_a       6.5086
_cell_length_b       12.4962
_cell_length_c       12.9374
_cell_angle_alpha    102.423
_cell_angle_beta     94.894
_cell_angle_gamma    92.474

_symmetry_space_group_name_H-M    "P 1"
_symmetry_Int_Tables_number       1

loop_
  _symmetry_equiv_pos_as_xyz
  'x, y, z'

loop_
  _atom_site_type_symbol
  _atom_site_label
  _atom_site_symmetry_multiplicity
  _atom_site_fract_x
  _atom_site_fract_y
  _atom_site_fract_z
  _atom_site_occupancy
  _atom_site_charge
Cu  Cu1       1.0  0.00000  0.00000  0.00000  1.0000 0.6469925668
H   H1        1.0  0.55580  0.14430  0.29060  1.0000 0.1201631286
H   H2        1.0  0.08780  0.92520  0.22130  1.0000 0.1289612926
H   H3        1.0  0.05290  0.25970  0.03690  1.0000 0.1289612926
H   H4        1.0  0.52040  0.21830  0.86590  1.0000 0.1289612926
H   H5        1.0  0.47900  0.41600  0.85500  1.0000 0.1201631286
H   H6        1.0  0.24600  0.44400  0.85200  1.0000 0.1201631286
H   H7        1.0  0.30500  0.92100  0.38700  1.0000 0.1009914994
H   H8        1.0  0.25900  0.43400  0.03300  1.0000 0.1104469555
H   H9        1.0  0.66500  0.91200  0.34700  1.0000 0.1201631286
H   H10       1.0  0.69700  0.03100  0.41200  1.0000 0.1009914994
H   H11       1.0  0.66700  0.38600  0.03000  1.0000 0.1104469555
H   H12       1.0  0.55700  0.39100  0.12700  1.0000 0.1104469555
H   H13       1.0  0.40700  0.13900  0.48800  1.0000 0.1104469555
H   H14       1.0  0.18400  0.08300  0.47600  1.0000 0.1104469555
H   H15       1.0  0.80300  0.17500  0.13600  1.0000 0.2603827294
H   H16       1.0  0.65100  0.12500  0.07100  1.0000 0.2603827294
H   H17       1.0  0.44420  0.85570  0.70940  1.0000 0.1201631286
H   H18       1.0  0.91220  0.07480  0.77870  1.0000 0.1289612926
H   H19       1.0  0.94710  0.74030  0.96310  1.0000 0.1289612926
H   H20       1.0  0.47960  0.78170  0.13410  1.0000 0.1289612926
H   H21       1.0  0.52100  0.58400  0.14500  1.0000 0.1201631286
H   H22       1.0  0.75400  0.55600  0.14800  1.0000 0.1201631286
H   H23       1.0  0.69500  0.07900  0.61300  1.0000 0.1009914994
H   H24       1.0  0.74100  0.56600  0.96700  1.0000 0.1104469555
H   H25       1.0  0.33500  0.08800  0.65300  1.0000 0.1201631286
H   H26       1.0  0.30300  0.96900  0.58800  1.0000 0.1009914994
H   H27       1.0  0.33300  0.61400  0.97000  1.0000 0.1104469555
H   H28       1.0  0.44300  0.60900  0.87300  1.0000 0.1104469555
H   H29       1.0  0.59300  0.86100  0.51200  1.0000 0.1104469555
H   H30       1.0  0.81600  0.91700  0.52400  1.0000 0.1104469555
H   H31       1.0  0.19700  0.82500  0.86400  1.0000 0.2603827294
H   H32       1.0  0.34900  0.87500  0.92900  1.0000 0.2603827294
C   C1        1.0  0.43980  0.10150  0.25540  1.0000 0.079879579
C   C2        1.0  0.18370  0.98140  0.21790  1.0000 0.1009914994
C   C3        1.0  0.15000  0.22750  0.99320  1.0000 0.1104469555
C   C4        1.0  0.40470  0.20450  0.89960  1.0000 0.1104469555
C   C5        1.0  0.37640  0.45310  0.89800  1.0000 -0.2191353414
C   C6        1.0  0.39230  0.98700  0.39440  1.0000 0.079879579
C   C7        1.0  0.36190  0.40310  0.99380  1.0000 0.1009914994
C   C8        1.0  0.33030  0.07090  0.48800  1.0000 -0.2096117311
C   C9        1.0  0.56330  0.42340  0.06660  1.0000 -0.2096117311
C   C10       1.0  0.61970  0.96600  0.40730  1.0000 -0.2191353414
C   C11       1.0  0.56020  0.89850  0.74460  1.0000 0.079879579
C   C12       1.0  0.81630  0.01860  0.78210  1.0000 0.1009914994
C   C13       1.0  0.85000  0.77250  0.00680  1.0000 0.1104469555
C   C14       1.0  0.59530  0.79550  0.10040  1.0000 0.1104469555
C   C15       1.0  0.62360  0.54690  0.10200  1.0000 -0.2191353414
C   C16       1.0  0.60770  0.01300  0.60560  1.0000 0.079879579
C   C17       1.0  0.63810  0.59690  0.00620  1.0000 0.1009914994
C   C18       1.0  0.66970  0.92910  0.51200  1.0000 -0.2096117311
C   C19       1.0  0.43670  0.57660  0.93340  1.0000 -0.2096117311
C   C20       1.0  0.38030  0.03400  0.59270  1.0000 -0.2191353414
N   N1        1.0  0.18650  0.03240  0.13900  1.0000 -0.1833782766
N   N2        1.0  0.35170  0.11000  0.16290  1.0000 -0.2096117311
N   N3        1.0  0.15420  0.12220  0.95410  1.0000 -0.1864218984
N   N4        1.0  0.30590  0.28290  0.96150  1.0000 -0.0237514974
N   N5        1.0  0.34050  0.02250  0.29340  1.0000 -0.0140985392
N   N6        1.0  0.31750  0.10640  0.89300  1.0000 -0.2334743488
N   N7        1.0  0.81350  0.96760  0.86100  1.0000 -0.1833782766
N   N8        1.0  0.64830  0.89000  0.83710  1.0000 -0.2096117311
N   N9        1.0  0.84580  0.87780  0.04590  1.0000 -0.1864218984
N   N10       1.0  0.69410  0.71710  0.03850  1.0000 -0.0237514974
N   N11       1.0  0.65950  0.97750  0.70660  1.0000 -0.0140985392
N   N12       1.0  0.68250  0.89360  0.10700  1.0000 -0.2334743488
Cl  Cl1       1.0  0.14206  0.67861  0.26790  1.0000 1.2540255215
Cl  Cl2       1.0  0.85794  0.32139  0.73210  1.0000 1.2540255215
O   O1        1.0  0.77050  0.14010  0.07150  1.0000 -0.6825378511
O   O2        1.0  0.22950  0.85990  0.92850  1.0000 -0.6825378511
O   O3        1.0  0.34180  0.71100  0.32330  1.0000 -0.4813755948
O   O4        1.0  0.14970  0.68070  0.16000  1.0000 -0.5062657867
O   O5        1.0  0.99530  0.75400  0.30750  1.0000 -0.4813755948
O   O6        1.0  0.08260  0.57430  0.28050  1.0000 -0.4428922359
O   O7        1.0  0.65820  0.28900  0.67670  1.0000 -0.4813755948
O   O8        1.0  0.85030  0.31930  0.84000  1.0000 -0.5062657867
O   O9        1.0  0.00470  0.24600  0.69250  1.0000 -0.4813755948
O   O10       1.0  0.91740  0.42570  0.71950  1.0000 -0.4428922359
