# DDEC6 charges by PACMAN v1.1 (https://github.com/mtap-research/PACMAN-charge/)
data_2018[Cu][sql]2[ION]1
_chemical_formula_sum              "Cu2 H132 C128 N16 Cl4 O26"
_cell_length_a       13.834
_cell_length_b       13.834
_cell_length_c       22.341
_cell_angle_alpha    80.9269
_cell_angle_beta     99.0731
_cell_angle_gamma    125.679

_symmetry_space_group_name_H-M    "P 1"
_symmetry_Int_Tables_number       1

loop_
  _symmetry_equiv_pos_as_xyz
  'x, y, z'

loop_
  _atom_site_type_symbol
  _atom_site_label
  _atom_site_symmetry_multiplicity
  _atom_site_fract_x
  _atom_site_fract_y
  _atom_site_fract_z
  _atom_site_occupancy
  _atom_site_charge
Cu  Cu1       1.0  0.83521  0.03231  0.25817  1.0000 0.6420859012
Cu  Cu2       1.0  0.03231  0.83521  0.74183  1.0000 0.6420859012
H   H1        1.0  0.59980  0.99800  0.21040  1.0000 0.1114532284
H   H2        1.0  0.93620  0.23500  0.16240  1.0000 0.1114532284
H   H3        1.0  0.86860  0.32420  0.08630  1.0000 0.1381995634
H   H4        1.0  0.66760  0.25520  0.07440  1.0000 0.1281383001
H   H5        1.0  0.45080  0.02040  0.17550  1.0000 0.1114532284
H   H6        1.0  0.44700  0.00980  0.10490  1.0000 0.118314009
H   H7        1.0  0.54520  0.39520  0.06370  1.0000 0.118314009
H   H8        1.0  0.53790  0.56150  0.04980  1.0000 0.1114532284
H   H9        1.0  0.45290  0.59290  0.12060  1.0000 0.118314009
H   H10       1.0  0.39510  0.46870  0.21080  1.0000 0.1114532284
H   H11       1.0  0.40480  0.30280  0.22590  1.0000 0.118314009
H   H12       1.0  0.35260  0.19720  0.06550  1.0000 0.0801584634
H   H13       1.0  0.50660  0.24860  0.00650  1.0000 0.1114532284
H   H14       1.0  0.45800  0.11080  0.00790  1.0000 0.118314009
H   H15       1.0  0.38370  0.16550  0.91510  1.0000 0.1114532284
H   H16       1.0  0.32790  0.21010  0.95170  1.0000 0.1013704848
H   H17       1.0  0.18220  0.03020  0.91630  1.0000 0.1013704848
H   H18       1.0  0.25090  0.97310  0.95010  1.0000 0.1013704848
H   H19       1.0  0.14360  0.05320  0.00980  1.0000 0.1013704848
H   H20       1.0  0.09690  0.91670  0.00860  1.0000 0.1114532284
H   H21       1.0  0.27360  0.95380  0.06550  1.0000 0.0901143643
H   H22       1.0  0.27350  0.79410  0.23400  1.0000 0.118314009
H   H23       1.0  0.29570  0.64530  0.21720  1.0000 0.1114532284
H   H24       1.0  0.21570  0.55090  0.12700  1.0000 0.118314009
H   H25       1.0  0.11890  0.61030  0.05050  1.0000 0.118314009
H   H26       1.0  0.11190  0.77070  0.06340  1.0000 0.118314009
H   H27       1.0  0.20540  0.08080  0.18120  1.0000 0.1281383001
H   H28       1.0  0.19780  0.12680  0.11170  1.0000 0.118314009
H   H29       1.0  0.06240  0.08140  0.21780  1.0000 0.118314009
H   H30       1.0  0.72090  0.89610  0.14710  1.0000 0.1114532284
H   H31       1.0  0.76670  0.82550  0.07550  1.0000 0.1381995634
H   H32       1.0  0.96670  0.89470  0.07150  1.0000 0.118314009
H   H33       1.0  0.82100  0.23060  0.28070  1.0000 0.1114532284
H   H34       1.0  0.72310  0.92270  0.37850  1.0000 0.1013704848
H   H35       1.0  0.64560  0.96360  0.44780  1.0000 0.1381995634
H   H36       1.0  0.64580  0.13600  0.43170  1.0000 0.1281383001
H   H37       1.0  0.68870  0.30550  0.30290  1.0000 0.118314009
H   H38       1.0  0.69690  0.31330  0.37450  1.0000 0.1114532284
H   H39       1.0  0.05900  0.60800  0.46690  1.0000 0.118314009
H   H40       1.0  0.26090  0.76370  0.47180  1.0000 0.118314009
H   H41       1.0  0.38530  0.79090  0.40090  1.0000 0.118314009
H   H42       1.0  0.30430  0.64550  0.33050  1.0000 0.1114532284
H   H43       1.0  0.09850  0.50090  0.31910  1.0000 0.118314009
H   H44       1.0  0.97340  0.57400  0.29180  1.0000 0.0801584634
H   H45       1.0  0.92390  0.43130  0.22890  1.0000 0.1114532284
H   H46       1.0  0.78470  0.37690  0.22560  1.0000 0.1114532284
H   H47       1.0  0.86090  0.49410  0.13380  1.0000 0.1013704848
H   H48       1.0  0.96270  0.60710  0.17040  1.0000 0.0901143643
H   H49       1.0  0.71070  0.50350  0.16760  1.0000 0.1013704848
H   H50       1.0  0.80390  0.62770  0.13130  1.0000 0.1013704848
H   H51       1.0  0.90680  0.71420  0.22410  1.0000 0.1114532284
H   H52       1.0  0.76920  0.66360  0.22460  1.0000 0.1013704848
H   H53       1.0  0.73000  0.49520  0.28800  1.0000 0.0901143643
H   H54       1.0  0.60810  0.53770  0.31420  1.0000 0.1114532284
H   H55       1.0  0.40870  0.37170  0.32300  1.0000 0.118314009
H   H56       1.0  0.35620  0.24040  0.41140  1.0000 0.1114532284
H   H57       1.0  0.50780  0.25380  0.48290  1.0000 0.118314009
H   H58       1.0  0.70680  0.41700  0.47200  1.0000 0.118314009
H   H59       1.0  0.02430  0.72670  0.37530  1.0000 0.1114532284
H   H60       1.0  0.01600  0.75660  0.30350  1.0000 0.118314009
H   H61       1.0  0.86020  0.82840  0.28450  1.0000 0.1013704848
H   H62       1.0  0.00970  0.12670  0.36870  1.0000 0.1114532284
H   H63       1.0  0.12660  0.07760  0.43380  1.0000 0.1281383001
H   H64       1.0  0.11650  0.90650  0.42210  1.0000 0.1381995634
H   H65       1.0  0.64890  0.77430  0.28950  1.0000 0.3623694393
H   H66       1.0  0.58680  0.81260  0.24320  1.0000 0.3721844467
H   H67       1.0  0.99800  0.59980  0.78960  1.0000 0.1114532284
H   H68       1.0  0.23500  0.93620  0.83760  1.0000 0.1114532284
H   H69       1.0  0.32420  0.86860  0.91370  1.0000 0.1381995634
H   H70       1.0  0.25520  0.66760  0.92560  1.0000 0.1281383001
H   H71       1.0  0.02040  0.45080  0.82450  1.0000 0.1114532284
H   H72       1.0  0.00980  0.44700  0.89510  1.0000 0.118314009
H   H73       1.0  0.39520  0.54520  0.93630  1.0000 0.118314009
H   H74       1.0  0.56150  0.53790  0.95020  1.0000 0.1114532284
H   H75       1.0  0.59290  0.45290  0.87940  1.0000 0.118314009
H   H76       1.0  0.46870  0.39510  0.78920  1.0000 0.1114532284
H   H77       1.0  0.30280  0.40480  0.77410  1.0000 0.118314009
H   H78       1.0  0.19720  0.35260  0.93450  1.0000 0.0801584634
H   H79       1.0  0.24860  0.50660  0.99350  1.0000 0.1114532284
H   H80       1.0  0.11080  0.45800  0.99210  1.0000 0.118314009
H   H81       1.0  0.16550  0.38370  0.08490  1.0000 0.1114532284
H   H82       1.0  0.21010  0.32790  0.04830  1.0000 0.1013704848
H   H83       1.0  0.03020  0.18220  0.08370  1.0000 0.1013704848
H   H84       1.0  0.97310  0.25090  0.04990  1.0000 0.1013704848
H   H85       1.0  0.05320  0.14360  0.99020  1.0000 0.1013704848
H   H86       1.0  0.91670  0.09690  0.99140  1.0000 0.1114532284
H   H87       1.0  0.95380  0.27360  0.93450  1.0000 0.0901143643
H   H88       1.0  0.79410  0.27350  0.76600  1.0000 0.118314009
H   H89       1.0  0.64530  0.29570  0.78280  1.0000 0.1114532284
H   H90       1.0  0.55090  0.21570  0.87300  1.0000 0.118314009
H   H91       1.0  0.61030  0.11890  0.94950  1.0000 0.1114532284
H   H92       1.0  0.77070  0.11190  0.93660  1.0000 0.1114532284
H   H93       1.0  0.08080  0.20540  0.81880  1.0000 0.1281383001
H   H94       1.0  0.12680  0.19780  0.88830  1.0000 0.118314009
H   H95       1.0  0.08140  0.06240  0.78220  1.0000 0.118314009
H   H96       1.0  0.89610  0.72090  0.85290  1.0000 0.1114532284
H   H97       1.0  0.82550  0.76670  0.92450  1.0000 0.1381995634
H   H98       1.0  0.89470  0.96670  0.92850  1.0000 0.118314009
H   H99       1.0  0.23060  0.82100  0.71930  1.0000 0.1114532284
H   H100      1.0  0.92270  0.72310  0.62150  1.0000 0.1013704848
H   H101      1.0  0.96360  0.64560  0.55220  1.0000 0.1381995634
H   H102      1.0  0.13600  0.64580  0.56830  1.0000 0.1281383001
H   H103      1.0  0.30550  0.68870  0.69710  1.0000 0.118314009
H   H104      1.0  0.31330  0.69690  0.62550  1.0000 0.1114532284
H   H105      1.0  0.60800  0.05900  0.53310  1.0000 0.118314009
H   H106      1.0  0.76370  0.26090  0.52820  1.0000 0.118314009
H   H107      1.0  0.79090  0.38530  0.59910  1.0000 0.1114532284
H   H108      1.0  0.64550  0.30430  0.66950  1.0000 0.1114532284
H   H109      1.0  0.50090  0.09850  0.68090  1.0000 0.118314009
H   H110      1.0  0.57400  0.97340  0.70820  1.0000 0.0801584634
H   H111      1.0  0.43130  0.92390  0.77110  1.0000 0.1114532284
H   H112      1.0  0.37690  0.78470  0.77440  1.0000 0.1114532284
H   H113      1.0  0.49410  0.86090  0.86620  1.0000 0.1013704848
H   H114      1.0  0.60710  0.96270  0.82960  1.0000 0.0901143643
H   H115      1.0  0.50350  0.71070  0.83240  1.0000 0.1013704848
H   H116      1.0  0.62770  0.80390  0.86870  1.0000 0.1013704848
H   H117      1.0  0.71420  0.90680  0.77590  1.0000 0.1114532284
H   H118      1.0  0.66360  0.76920  0.77540  1.0000 0.1013704848
H   H119      1.0  0.49520  0.73000  0.71200  1.0000 0.0901143643
H   H120      1.0  0.53770  0.60810  0.68580  1.0000 0.1114532284
H   H121      1.0  0.37170  0.40870  0.67700  1.0000 0.118314009
H   H122      1.0  0.24040  0.35620  0.58860  1.0000 0.1114532284
H   H123      1.0  0.25380  0.50780  0.51710  1.0000 0.118314009
H   H124      1.0  0.41700  0.70680  0.52800  1.0000 0.118314009
H   H125      1.0  0.72670  0.02430  0.62470  1.0000 0.1114532284
H   H126      1.0  0.75660  0.01600  0.69650  1.0000 0.118314009
H   H127      1.0  0.82840  0.86020  0.71550  1.0000 0.1013704848
H   H128      1.0  0.12670  0.00970  0.63130  1.0000 0.1114532284
H   H129      1.0  0.07760  0.12660  0.56620  1.0000 0.1281383001
H   H130      1.0  0.90650  0.11650  0.57790  1.0000 0.1281383001
H   H131      1.0  0.77430  0.64890  0.71050  1.0000 0.3623694393
H   H132      1.0  0.81260  0.58680  0.75680  1.0000 0.3721844467
C   C1        1.0  0.65470  0.06610  0.18560  1.0000 -0.020166456
C   C2        1.0  0.85400  0.20480  0.15690  1.0000 0.0414498056
C   C3        1.0  0.81370  0.25870  0.11220  1.0000 -0.1203234108
C   C4        1.0  0.69430  0.21770  0.10500  1.0000 -0.0897554842
C   C5        1.0  0.61320  0.12080  0.14320  1.0000 0.0901143643
C   C6        1.0  0.48460  0.06660  0.13670  1.0000 -0.1587358234
C   C7        1.0  0.48870  0.22890  0.16010  1.0000 0.3978404316
C   C8        1.0  0.47420  0.33080  0.14580  1.0000 -0.020166456
C   C9        1.0  0.51400  0.40920  0.09370  1.0000 -0.1587358234
C   C10       1.0  0.50860  0.50780  0.08510  1.0000 -0.0816798968
C   C11       1.0  0.46060  0.52820  0.12770  1.0000 -0.0897554842
C   C12       1.0  0.42440  0.45320  0.18050  1.0000 -0.0816798968
C   C13       1.0  0.43060  0.35420  0.18970  1.0000 -0.1203234108
C   C14       1.0  0.37220  0.13780  0.06620  1.0000 0.0261525034
C   C15       1.0  0.43410  0.16570  0.00810  1.0000 -0.2278158578
C   C16       1.0  0.34530  0.14990  0.95270  1.0000 -0.1488786991
C   C17       1.0  0.23450  0.03290  0.95270  1.0000 -0.1488786991
C   C18       1.0  0.16920  0.99980  0.00930  1.0000 -0.2357651529
C   C19       1.0  0.25290  0.01150  0.06740  1.0000 0.0414498056
C   C20       1.0  0.16780  0.88400  0.16560  1.0000 0.4153554353
C   C21       1.0  0.18790  0.79490  0.15060  1.0000 -0.0256705259
C   C22       1.0  0.24370  0.75830  0.19640  1.0000 -0.1296366323
C   C23       1.0  0.25540  0.66860  0.18660  1.0000 -0.0816798968
C   C24       1.0  0.20900  0.61320  0.13280  1.0000 -0.0816798968
C   C25       1.0  0.15260  0.64920  0.08720  1.0000 -0.0715927382
C   C26       1.0  0.14560  0.74260  0.09550  1.0000 -0.1385330347
C   C27       1.0  0.16470  0.05450  0.14050  1.0000 -0.1587358234
C   C28       1.0  0.03560  0.99980  0.14270  1.0000 0.0801584634
C   C29       1.0  0.00280  0.03120  0.18820  1.0000 0.005532677
C   C30       1.0  0.80040  0.91900  0.14720  1.0000 0.0414498056
C   C31       1.0  0.82760  0.87940  0.10340  1.0000 -0.1203234108
C   C32       1.0  0.94630  0.92050  0.10130  1.0000 -0.110999306
C   C33       1.0  0.78360  0.17500  0.31440  1.0000 0.0205837545
C   C34       1.0  0.72700  0.99440  0.37200  1.0000 0.0205837545
C   C35       1.0  0.67940  0.01800  0.41320  1.0000 -0.1296366323
C   C36       1.0  0.68080  0.12100  0.40430  1.0000 -0.0975348837
C   C37       1.0  0.73480  0.20100  0.35430  1.0000 0.1013704848
C   C38       1.0  0.73580  0.31000  0.34200  1.0000 -0.1587358234
C   C39       1.0  0.92820  0.44280  0.39230  1.0000 0.4066856417
C   C40       1.0  0.05710  0.53870  0.39200  1.0000 -0.020166456
C   C41       1.0  0.10770  0.61770  0.43770  1.0000 -0.1296366323
C   C42       1.0  0.22870  0.71010  0.44090  1.0000 -0.0897554842
C   C43       1.0  0.30350  0.72570  0.39970  1.0000 -0.0975348837
C   C44       1.0  0.25380  0.64160  0.35640  1.0000 -0.0816798968
C   C45       1.0  0.13140  0.55260  0.35090  1.0000 -0.1296366323
C   C46       1.0  0.88680  0.50780  0.28650  1.0000 0.0414498056
C   C47       1.0  0.86600  0.45180  0.22780  1.0000 -0.2278158578
C   C48       1.0  0.87920  0.53560  0.17050  1.0000 -0.1385330347
C   C49       1.0  0.79450  0.57450  0.16850  1.0000 -0.1488786991
C   C50       1.0  0.82480  0.64040  0.22510  1.0000 -0.2278158578
C   C51       1.0  0.81590  0.56170  0.28400  1.0000 0.0414498056
C   C52       1.0  0.80630  0.59610  0.38910  1.0000 0.4153554353
C   C53       1.0  0.67520  0.48940  0.39240  1.0000 -0.0064652583
C   C54       1.0  0.58760  0.47980  0.34790  1.0000 -0.1488786991
C   C55       1.0  0.46880  0.38280  0.35420  1.0000 -0.0715927382
C   C56       1.0  0.43780  0.30180  0.40580  1.0000 -0.0816798968
C   C57       1.0  0.52730  0.31150  0.44920  1.0000 -0.0897554842
C   C58       1.0  0.64570  0.40790  0.44200  1.0000 -0.110999306
C   C59       1.0  0.97820  0.74140  0.34110  1.0000 -0.1587358234
C   C60       1.0  0.98860  0.85100  0.35090  1.0000 0.0901143643
C   C61       1.0  0.91550  0.87990  0.31480  1.0000 -0.0064652583
C   C62       1.0  0.00200  0.05520  0.36470  1.0000 0.0582115601
C   C63       1.0  0.07320  0.02700  0.40290  1.0000 -0.1296366323
C   C64       1.0  0.06720  0.92520  0.39610  1.0000 -0.0975348837
C   C65       1.0  0.06610  0.65470  0.81440  1.0000 -0.020166456
C   C66       1.0  0.20480  0.85400  0.84310  1.0000 0.0414498056
C   C67       1.0  0.25870  0.81370  0.88780  1.0000 -0.1203234108
C   C68       1.0  0.21770  0.69430  0.89500  1.0000 -0.0897554842
C   C69       1.0  0.12080  0.61320  0.85680  1.0000 0.0901143643
C   C70       1.0  0.06660  0.48460  0.86330  1.0000 -0.1587358234
C   C71       1.0  0.22890  0.48870  0.83990  1.0000 0.3978404316
C   C72       1.0  0.33080  0.47420  0.85420  1.0000 -0.020166456
C   C73       1.0  0.40920  0.51400  0.90630  1.0000 -0.1587358234
C   C74       1.0  0.50780  0.50860  0.91490  1.0000 -0.0816798968
C   C75       1.0  0.52820  0.46060  0.87230  1.0000 -0.0897554842
C   C76       1.0  0.45320  0.42440  0.81950  1.0000 -0.0816798968
C   C77       1.0  0.35420  0.43060  0.81030  1.0000 -0.1203234108
C   C78       1.0  0.13780  0.37220  0.93380  1.0000 0.0261525034
C   C79       1.0  0.16570  0.43410  0.99190  1.0000 -0.2278158578
C   C80       1.0  0.14990  0.34530  0.04730  1.0000 -0.1488786991
C   C81       1.0  0.03290  0.23450  0.04730  1.0000 -0.1488786991
C   C82       1.0  0.99980  0.16920  0.99070  1.0000 -0.2357651529
C   C83       1.0  0.01150  0.25290  0.93260  1.0000 0.0414498056
C   C84       1.0  0.88400  0.16780  0.83440  1.0000 0.4153554353
C   C85       1.0  0.79490  0.18790  0.84940  1.0000 -0.0256705259
C   C86       1.0  0.75830  0.24370  0.80360  1.0000 -0.1296366323
C   C87       1.0  0.66860  0.25540  0.81340  1.0000 -0.0816798968
C   C88       1.0  0.61320  0.20900  0.86720  1.0000 -0.0816798968
C   C89       1.0  0.64920  0.15260  0.91280  1.0000 -0.0715927382
C   C90       1.0  0.74260  0.14560  0.90450  1.0000 -0.1385330347
C   C91       1.0  0.05450  0.16470  0.85950  1.0000 -0.1587358234
C   C92       1.0  0.99980  0.03560  0.85730  1.0000 0.0801584634
C   C93       1.0  0.03120  0.00280  0.81180  1.0000 0.005532677
C   C94       1.0  0.91900  0.80040  0.85280  1.0000 0.0414498056
C   C95       1.0  0.87940  0.82760  0.89660  1.0000 -0.1203234108
C   C96       1.0  0.92050  0.94630  0.89870  1.0000 -0.110999306
C   C97       1.0  0.17500  0.78360  0.68560  1.0000 0.0205837545
C   C98       1.0  0.99440  0.72700  0.62800  1.0000 0.0205837545
C   C99       1.0  0.01800  0.67940  0.58680  1.0000 -0.1296366323
C   C100      1.0  0.12100  0.68080  0.59570  1.0000 -0.0975348837
C   C101      1.0  0.20100  0.73480  0.64570  1.0000 0.1013704848
C   C102      1.0  0.31000  0.73580  0.65800  1.0000 -0.1587358234
C   C103      1.0  0.44280  0.92820  0.60770  1.0000 0.4066856417
C   C104      1.0  0.53870  0.05710  0.60800  1.0000 -0.020166456
C   C105      1.0  0.61770  0.10770  0.56230  1.0000 -0.1296366323
C   C106      1.0  0.71010  0.22870  0.55910  1.0000 -0.0897554842
C   C107      1.0  0.72570  0.30350  0.60030  1.0000 -0.0975348837
C   C108      1.0  0.64160  0.25380  0.64360  1.0000 -0.0816798968
C   C109      1.0  0.55260  0.13140  0.64910  1.0000 -0.1296366323
C   C110      1.0  0.50780  0.88680  0.71350  1.0000 0.0414498056
C   C111      1.0  0.45180  0.86600  0.77220  1.0000 -0.2278158578
C   C112      1.0  0.53560  0.87920  0.82950  1.0000 -0.1385330347
C   C113      1.0  0.57450  0.79450  0.83150  1.0000 -0.1488786991
C   C114      1.0  0.64040  0.82480  0.77490  1.0000 -0.2278158578
C   C115      1.0  0.56170  0.81590  0.71600  1.0000 0.0414498056
C   C116      1.0  0.59610  0.80630  0.61090  1.0000 0.4153554353
C   C117      1.0  0.48940  0.67520  0.60760  1.0000 -0.0064652583
C   C118      1.0  0.47980  0.58760  0.65210  1.0000 -0.1488786991
C   C119      1.0  0.38280  0.46880  0.64580  1.0000 -0.0715927382
C   C120      1.0  0.30180  0.43780  0.59420  1.0000 -0.0816798968
C   C121      1.0  0.31150  0.52730  0.55080  1.0000 -0.0897554842
C   C122      1.0  0.40790  0.64570  0.55800  1.0000 -0.110999306
C   C123      1.0  0.74140  0.97820  0.65890  1.0000 -0.1587358234
C   C124      1.0  0.85100  0.98860  0.64910  1.0000 0.0901143643
C   C125      1.0  0.87990  0.91550  0.68520  1.0000 -0.0064652583
C   C126      1.0  0.05520  0.00200  0.63530  1.0000 0.0582115601
C   C127      1.0  0.02700  0.07320  0.59710  1.0000 -0.1296366323
C   C128      1.0  0.92520  0.06720  0.60390  1.0000 -0.0975348837
N   N1        1.0  0.77350  0.10710  0.19310  1.0000 -0.2520138907
N   N2        1.0  0.45230  0.15170  0.12110  1.0000 -0.1296366323
N   N3        1.0  0.19440  0.97680  0.12240  1.0000 -0.1488786991
N   N4        1.0  0.88630  0.99150  0.19140  1.0000 -0.27092863
N   N5        1.0  0.77980  0.07220  0.32180  1.0000 -0.2520138907
N   N6        1.0  0.85910  0.42170  0.33890  1.0000 -0.1488786991
N   N7        1.0  0.86030  0.63590  0.33630  1.0000 -0.1488786991
N   N8        1.0  0.92040  0.98020  0.32130  1.0000 -0.2520138907
N   N9        1.0  0.10710  0.77350  0.80690  1.0000 -0.2520138907
N   N10       1.0  0.15170  0.45230  0.87890  1.0000 -0.1296366323
N   N11       1.0  0.97680  0.19440  0.87760  1.0000 -0.1488786991
N   N12       1.0  0.99150  0.88630  0.80860  1.0000 -0.27092863
N   N13       1.0  0.07220  0.77980  0.67820  1.0000 -0.2520138907
N   N14       1.0  0.42170  0.85910  0.66110  1.0000 -0.1488786991
N   N15       1.0  0.63590  0.86030  0.66370  1.0000 -0.1488786991
N   N16       1.0  0.98020  0.92040  0.67870  1.0000 -0.2520138907
Cl  Cl1       1.0  0.51752  0.84728  0.03028  1.0000 1.2766035709
Cl  Cl2       1.0  0.14931  0.32029  0.25902  1.0000 1.2719050559
Cl  Cl3       1.0  0.84728  0.51752  0.96972  1.0000 1.2766035709
Cl  Cl4       1.0  0.32029  0.14931  0.74098  1.0000 1.2719050559
O   O1        1.0  0.53750  0.22130  0.21110  1.0000 -0.4883561221
O   O2        1.0  0.13480  0.87560  0.21310  1.0000 -0.4301136223
O   O3        1.0  0.88600  0.37720  0.44090  1.0000 -0.5103068141
O   O4        1.0  0.86210  0.64550  0.43700  1.0000 -0.4883561221
O   O5        1.0  0.64960  0.82860  0.26530  1.0000 -0.7234325198
O   O6        1.0  0.22130  0.53750  0.78890  1.0000 -0.4883561221
O   O7        1.0  0.87560  0.13480  0.78690  1.0000 -0.4301136223
O   O8        1.0  0.37720  0.88600  0.55910  1.0000 -0.5103068141
O   O9        1.0  0.64550  0.86210  0.56300  1.0000 -0.4883561221
O   O10       1.0  0.82860  0.64960  0.73470  1.0000 -0.7234325198
O   O11       1.0  0.46330  0.91070  0.01510  1.0000 -0.5008863119
O   O12       1.0  0.63420  0.90920  0.00870  1.0000 -0.5008863119
O   O13       1.0  0.52770  0.82750  0.09530  1.0000 -0.5103068141
O   O14       1.0  0.44260  0.73420  0.00440  1.0000 -0.5008863119
O   O15       1.0  0.13960  0.32780  0.19340  1.0000 -0.5008863119
O   O16       1.0  0.22910  0.43450  0.28080  1.0000 -0.4737559942
O   O17       1.0  0.03130  0.26750  0.27700  1.0000 -0.5355904189
O   O18       1.0  0.19010  0.24570  0.28220  1.0000 -0.5008863119
O   O19       1.0  0.91070  0.46330  0.98490  1.0000 -0.5008863119
O   O20       1.0  0.90920  0.63420  0.99130  1.0000 -0.5008863119
O   O21       1.0  0.82750  0.52770  0.90470  1.0000 -0.5103068141
O   O22       1.0  0.73420  0.44260  0.99560  1.0000 -0.5008863119
O   O23       1.0  0.32780  0.13960  0.80660  1.0000 -0.5008863119
O   O24       1.0  0.43450  0.22910  0.71920  1.0000 -0.4737559942
O   O25       1.0  0.26750  0.03130  0.72300  1.0000 -0.5355904189
O   O26       1.0  0.24570  0.19010  0.71780  1.0000 -0.5008863119
