# DDEC6 charges by PACMAN v1.1 (https://github.com/mtap-research/PACMAN-charge/)
data_2018[Ce][nan]2[ION]1
_chemical_formula_sum              "Ce4 H56 C20 Cl4 O32"
_cell_length_a       9.64371
_cell_length_b       9.64371
_cell_length_c       19.4113
_cell_angle_alpha    90
_cell_angle_beta     90
_cell_angle_gamma    125.746

_symmetry_space_group_name_H-M    "P 1"
_symmetry_Int_Tables_number       1

loop_
  _symmetry_equiv_pos_as_xyz
  'x, y, z'

loop_
  _atom_site_type_symbol
  _atom_site_label
  _atom_site_symmetry_multiplicity
  _atom_site_fract_x
  _atom_site_fract_y
  _atom_site_fract_z
  _atom_site_occupancy
  _atom_site_charge
Ce  Ce1       1.0  0.73284  0.26716  0.50000  1.0000 1.9523561311
Ce  Ce2       1.0  0.26716  0.73284  0.00000  1.0000 1.9523561311
Ce  Ce3       1.0  0.26716  0.73284  0.50000  1.0000 1.9523561311
Ce  Ce4       1.0  0.73284  0.26716  0.00000  1.0000 1.9523561311
H   H1        1.0  0.00700  0.29400  0.31500  1.0000 0.1435673101
H   H2        1.0  0.89660  0.36880  0.31380  1.0000 0.1435673101
H   H3        1.0  0.76390  0.60610  0.49930  1.0000 0.3428808687
H   H4        1.0  0.68530  0.53070  0.43880  1.0000 0.3506605191
H   H5        1.0  0.01890  0.28110  0.56700  1.0000 0.3298985338
H   H6        1.0  0.88920  0.11480  0.57200  1.0000 0.3298985338
H   H7        1.0  0.99300  0.70600  0.81500  1.0000 0.1435673101
H   H8        1.0  0.10340  0.63120  0.81380  1.0000 0.1435673101
H   H9        1.0  0.23610  0.39390  0.99930  1.0000 0.3428808687
H   H10       1.0  0.31470  0.46930  0.93880  1.0000 0.3506605191
H   H11       1.0  0.98110  0.71890  0.06700  1.0000 0.3298985338
H   H12       1.0  0.11080  0.88520  0.07200  1.0000 0.3298985338
H   H13       1.0  0.29400  0.00700  0.18500  1.0000 0.1435673101
H   H14       1.0  0.36880  0.89660  0.18620  1.0000 0.1435673101
H   H15       1.0  0.60610  0.76390  0.00070  1.0000 0.3428808687
H   H16       1.0  0.53070  0.68530  0.06120  1.0000 0.3506605191
H   H17       1.0  0.28110  0.01890  0.93300  1.0000 0.3298985338
H   H18       1.0  0.11480  0.88920  0.92800  1.0000 0.3298985338
H   H19       1.0  0.70600  0.99300  0.68500  1.0000 0.1435673101
H   H20       1.0  0.63120  0.10340  0.68620  1.0000 0.1435673101
H   H21       1.0  0.39390  0.23610  0.50070  1.0000 0.3428808687
H   H22       1.0  0.46930  0.31470  0.56120  1.0000 0.3506605191
H   H23       1.0  0.71890  0.98110  0.43300  1.0000 0.3298985338
H   H24       1.0  0.88520  0.11080  0.42800  1.0000 0.3298985338
H   H25       1.0  0.99300  0.70600  0.68500  1.0000 0.1435673101
H   H26       1.0  0.10340  0.63120  0.68620  1.0000 0.1435673101
H   H27       1.0  0.23610  0.39390  0.50070  1.0000 0.3428808687
H   H28       1.0  0.31470  0.46930  0.56120  1.0000 0.3506605191
H   H29       1.0  0.98110  0.71890  0.43300  1.0000 0.3298985338
H   H30       1.0  0.11080  0.88520  0.42800  1.0000 0.3298985338
H   H31       1.0  0.00700  0.29400  0.18500  1.0000 0.1435673101
H   H32       1.0  0.89660  0.36880  0.18620  1.0000 0.1435673101
H   H33       1.0  0.76390  0.60610  0.00070  1.0000 0.3428808687
H   H34       1.0  0.68530  0.53070  0.06120  1.0000 0.3506605191
H   H35       1.0  0.01890  0.28110  0.93300  1.0000 0.3298985338
H   H36       1.0  0.88920  0.11480  0.92800  1.0000 0.3298985338
H   H37       1.0  0.70600  0.99300  0.81500  1.0000 0.1435673101
H   H38       1.0  0.63120  0.10340  0.81380  1.0000 0.1435673101
H   H39       1.0  0.39390  0.23610  0.99930  1.0000 0.3428808687
H   H40       1.0  0.46930  0.31470  0.93880  1.0000 0.3506605191
H   H41       1.0  0.71890  0.98110  0.06700  1.0000 0.3298985338
H   H42       1.0  0.88520  0.11080  0.07200  1.0000 0.3298985338
H   H43       1.0  0.29400  0.00700  0.31500  1.0000 0.1435673101
H   H44       1.0  0.36880  0.89660  0.31380  1.0000 0.1435673101
H   H45       1.0  0.60610  0.76390  0.49930  1.0000 0.3428808687
H   H46       1.0  0.53070  0.68530  0.43880  1.0000 0.3506605191
H   H47       1.0  0.28110  0.01890  0.56700  1.0000 0.3298985338
H   H48       1.0  0.11480  0.88920  0.57200  1.0000 0.3298985338
H   H49       1.0  0.22450  0.53030  0.25000  1.0000 0.1065932376
H   H50       1.0  0.11760  0.60960  0.25000  1.0000 0.1040470836
H   H51       1.0  0.77550  0.46970  0.75000  1.0000 0.1065932376
H   H52       1.0  0.88240  0.39040  0.75000  1.0000 0.1040470836
H   H53       1.0  0.53030  0.22450  0.25000  1.0000 0.1065932376
H   H54       1.0  0.60960  0.11760  0.25000  1.0000 0.1040470836
H   H55       1.0  0.46970  0.77550  0.75000  1.0000 0.1065932376
H   H56       1.0  0.39040  0.88240  0.75000  1.0000 0.1040470836
C   C1        1.0  0.09905  0.49675  0.38060  1.0000 0.6627026809
C   C2        1.0  0.01456  0.40084  0.31494  1.0000 -0.3292554008
C   C3        1.0  0.90095  0.50325  0.88060  1.0000 0.6627026809
C   C4        1.0  0.98544  0.59916  0.81494  1.0000 -0.3292554008
C   C5        1.0  0.49675  0.09905  0.11940  1.0000 0.6627026809
C   C6        1.0  0.40084  0.01456  0.18506  1.0000 -0.3292554008
C   C7        1.0  0.50325  0.90095  0.61940  1.0000 0.6627026809
C   C8        1.0  0.59916  0.98544  0.68506  1.0000 -0.3292554008
C   C9        1.0  0.90095  0.50325  0.61940  1.0000 0.6627026809
C   C10       1.0  0.98544  0.59916  0.68506  1.0000 -0.3292554008
C   C11       1.0  0.09905  0.49675  0.11940  1.0000 0.6627026809
C   C12       1.0  0.01456  0.40084  0.18506  1.0000 -0.3292554008
C   C13       1.0  0.50325  0.90095  0.88060  1.0000 0.6627026809
C   C14       1.0  0.59916  0.98544  0.81494  1.0000 -0.3292554008
C   C15       1.0  0.49675  0.09905  0.38060  1.0000 0.6627026809
C   C16       1.0  0.40084  0.01456  0.31494  1.0000 -0.3292554008
C   C17       1.0  0.10760  0.50140  0.25000  1.0000 -0.073538317
C   C18       1.0  0.89240  0.49860  0.75000  1.0000 -0.073538317
C   C19       1.0  0.50140  0.10760  0.25000  1.0000 -0.073538317
C   C20       1.0  0.49860  0.89240  0.75000  1.0000 -0.073538317
Cl  Cl1       1.0  0.17055  0.17055  0.42693  1.0000 -0.6231392758
Cl  Cl2       1.0  0.82945  0.82945  0.92693  1.0000 -0.6231392758
Cl  Cl3       1.0  0.17055  0.17055  0.07307  1.0000 -0.6231392758
Cl  Cl4       1.0  0.82945  0.82945  0.57307  1.0000 -0.6231392758
O   O1        1.0  0.00970  0.45512  0.43591  1.0000 -0.7042805837
O   O2        1.0  0.25557  0.61743  0.38151  1.0000 -0.5980454074
O   O3        1.0  0.75769  0.54491  0.46692  1.0000 -0.7121316704
O   O4        1.0  0.91400  0.20860  0.57353  1.0000 -0.6926221239
O   O5        1.0  0.99030  0.54488  0.93591  1.0000 -0.7042805837
O   O6        1.0  0.74443  0.38257  0.88151  1.0000 -0.5980454074
O   O7        1.0  0.24231  0.45509  0.96692  1.0000 -0.7121316704
O   O8        1.0  0.08600  0.79140  0.07353  1.0000 -0.6926221239
O   O9        1.0  0.45512  0.00970  0.06409  1.0000 -0.7042805837
O   O10       1.0  0.61743  0.25557  0.11849  1.0000 -0.5980454074
O   O11       1.0  0.54491  0.75769  0.03308  1.0000 -0.7121316704
O   O12       1.0  0.20860  0.91400  0.92647  1.0000 -0.6926221239
O   O13       1.0  0.54488  0.99030  0.56409  1.0000 -0.7042805837
O   O14       1.0  0.38257  0.74443  0.61849  1.0000 -0.5980454074
O   O15       1.0  0.45509  0.24231  0.53308  1.0000 -0.7121316704
O   O16       1.0  0.79140  0.08600  0.42647  1.0000 -0.6926221239
O   O17       1.0  0.99030  0.54488  0.56409  1.0000 -0.7042805837
O   O18       1.0  0.74443  0.38257  0.61849  1.0000 -0.5980454074
O   O19       1.0  0.24231  0.45509  0.53308  1.0000 -0.7121316704
O   O20       1.0  0.08600  0.79140  0.42647  1.0000 -0.6926221239
O   O21       1.0  0.00970  0.45512  0.06409  1.0000 -0.7042805837
O   O22       1.0  0.25557  0.61743  0.11849  1.0000 -0.5980454074
O   O23       1.0  0.75769  0.54491  0.03308  1.0000 -0.7121316704
O   O24       1.0  0.91400  0.20860  0.92647  1.0000 -0.6926221239
O   O25       1.0  0.54488  0.99030  0.93591  1.0000 -0.7042805837
O   O26       1.0  0.38257  0.74443  0.88151  1.0000 -0.5980454074
O   O27       1.0  0.45509  0.24231  0.96692  1.0000 -0.7121316704
O   O28       1.0  0.79140  0.08600  0.07353  1.0000 -0.6926221239
O   O29       1.0  0.45512  0.00970  0.43591  1.0000 -0.7042805837
O   O30       1.0  0.61743  0.25557  0.38151  1.0000 -0.5980454074
O   O31       1.0  0.54491  0.75769  0.46692  1.0000 -0.7121316704
O   O32       1.0  0.20860  0.91400  0.57353  1.0000 -0.6926221239
