# DDEC6 charges by PACMAN v1.1 (https://github.com/mtap-research/PACMAN-charge/)
data_2018[Zn][sql]2[ION]3
_chemical_formula_sum              "Zn2 H76 C108 N8 O24"
_cell_length_a       11.765
_cell_length_b       11.765
_cell_length_c       24.187
_cell_angle_alpha    89.092
_cell_angle_beta     90.908
_cell_angle_gamma    123.465

_symmetry_space_group_name_H-M    "P 1"
_symmetry_Int_Tables_number       1

loop_
  _symmetry_equiv_pos_as_xyz
  'x, y, z'

loop_
  _atom_site_type_symbol
  _atom_site_label
  _atom_site_symmetry_multiplicity
  _atom_site_fract_x
  _atom_site_fract_y
  _atom_site_fract_z
  _atom_site_occupancy
  _atom_site_charge
Zn  Zn1       1.0  0.77623  0.77623  0.75000  1.0000 0.9594089779
Zn  Zn2       1.0  0.22377  0.22377  0.25000  1.0000 0.9594089779
H   H1        1.0  0.94605  0.50475  0.67738  1.0000 0.3286545071
H   H2        1.0  0.74325  0.03093  0.69858  1.0000 0.3399828616
H   H3        1.0  0.53875  0.42455  0.65474  1.0000 0.1287938821
H   H4        1.0  0.81976  0.36240  0.51328  1.0000 0.1185291304
H   H5        1.0  0.00779  0.06111  0.56626  1.0000 0.1185291304
H   H6        1.0  0.07329  0.18265  0.47471  1.0000 0.1185291304
H   H7        1.0  0.55383  0.04133  0.55478  1.0000 0.1185291304
H   H8        1.0  0.32791  0.23981  0.60989  1.0000 0.1185291304
H   H9        1.0  0.92869  0.40829  0.43086  1.0000 0.1121510431
H   H10       1.0  0.05454  0.31694  0.41123  1.0000 0.1185291304
H   H11       1.0  0.33194  0.94574  0.53257  1.0000 0.1121510431
H   H12       1.0  0.21665  0.04367  0.56051  1.0000 0.1121510431
H   H13       1.0  0.50475  0.94605  0.82262  1.0000 0.3286545071
H   H14       1.0  0.03093  0.74325  0.80142  1.0000 0.3399828616
H   H15       1.0  0.42455  0.53875  0.84526  1.0000 0.1287938821
H   H16       1.0  0.36240  0.81976  0.98672  1.0000 0.1185291304
H   H17       1.0  0.06111  0.00779  0.93374  1.0000 0.1185291304
H   H18       1.0  0.18265  0.07329  0.02529  1.0000 0.1185291304
H   H19       1.0  0.04133  0.55383  0.94522  1.0000 0.1185291304
H   H20       1.0  0.23981  0.32791  0.89011  1.0000 0.1185291304
H   H21       1.0  0.40829  0.92869  0.06914  1.0000 0.1121510431
H   H22       1.0  0.31694  0.05454  0.08877  1.0000 0.1185291304
H   H23       1.0  0.94574  0.33194  0.96743  1.0000 0.1121510431
H   H24       1.0  0.04367  0.21665  0.93949  1.0000 0.1121510431
H   H25       1.0  0.05395  0.49525  0.32262  1.0000 0.3286545071
H   H26       1.0  0.25675  0.96907  0.30142  1.0000 0.3399828616
H   H27       1.0  0.46125  0.57545  0.34526  1.0000 0.1287938821
H   H28       1.0  0.18024  0.63760  0.48672  1.0000 0.1185291304
H   H29       1.0  0.99221  0.93889  0.43374  1.0000 0.1185291304
H   H30       1.0  0.92671  0.81735  0.52529  1.0000 0.1185291304
H   H31       1.0  0.44617  0.95867  0.44522  1.0000 0.1185291304
H   H32       1.0  0.67209  0.76019  0.39011  1.0000 0.1185291304
H   H33       1.0  0.07131  0.59171  0.56914  1.0000 0.1121510431
H   H34       1.0  0.94546  0.68306  0.58877  1.0000 0.1185291304
H   H35       1.0  0.66806  0.05426  0.46743  1.0000 0.1121510431
H   H36       1.0  0.78335  0.95633  0.43949  1.0000 0.1121510431
H   H37       1.0  0.49525  0.05395  0.17738  1.0000 0.3286545071
H   H38       1.0  0.96907  0.25675  0.19858  1.0000 0.3399828616
H   H39       1.0  0.57545  0.46125  0.15474  1.0000 0.1287938821
H   H40       1.0  0.63760  0.18024  0.01328  1.0000 0.1185291304
H   H41       1.0  0.93889  0.99221  0.06626  1.0000 0.1185291304
H   H42       1.0  0.81735  0.92671  0.97471  1.0000 0.1185291304
H   H43       1.0  0.95867  0.44617  0.05478  1.0000 0.1185291304
H   H44       1.0  0.76019  0.67209  0.10989  1.0000 0.1185291304
H   H45       1.0  0.59171  0.07131  0.93086  1.0000 0.1121510431
H   H46       1.0  0.68306  0.94546  0.91123  1.0000 0.1185291304
H   H47       1.0  0.05426  0.66806  0.03257  1.0000 0.1121510431
H   H48       1.0  0.95633  0.78335  0.06051  1.0000 0.1121510431
H   H49       1.0  0.13703  0.62921  0.76544  1.0000 0.3003393504
H   H50       1.0  0.22394  0.59776  0.73381  1.0000 0.2936866674
H   H51       1.0  0.93690  0.45532  0.81134  1.0000 0.1457031239
H   H52       1.0  0.87114  0.08714  0.81181  1.0000 0.2936866674
H   H53       1.0  0.17050  0.36632  0.72706  1.0000 0.1431416217
H   H54       1.0  0.03014  0.14798  0.75428  1.0000 0.1121510431
H   H55       1.0  0.80151  0.23013  0.83568  1.0000 0.1121510431
H   H56       1.0  0.62921  0.13703  0.73456  1.0000 0.3003393504
H   H57       1.0  0.59776  0.22394  0.76619  1.0000 0.2936866674
H   H58       1.0  0.45532  0.93690  0.68866  1.0000 0.1457031239
H   H59       1.0  0.08714  0.87114  0.68819  1.0000 0.2936866674
H   H60       1.0  0.36632  0.17050  0.77294  1.0000 0.1431416217
H   H61       1.0  0.14798  0.03014  0.74572  1.0000 0.1121510431
H   H62       1.0  0.23013  0.80151  0.66432  1.0000 0.1121510431
H   H63       1.0  0.86297  0.37079  0.23456  1.0000 0.3003393504
H   H64       1.0  0.77606  0.40224  0.26619  1.0000 0.2936866674
H   H65       1.0  0.06310  0.54468  0.18866  1.0000 0.1457031239
H   H66       1.0  0.12886  0.91286  0.18819  1.0000 0.2936866674
H   H67       1.0  0.82950  0.63368  0.27294  1.0000 0.1431416217
H   H68       1.0  0.96986  0.85202  0.24572  1.0000 0.1121510431
H   H69       1.0  0.19849  0.76987  0.16432  1.0000 0.1121510431
H   H70       1.0  0.37079  0.86297  0.26544  1.0000 0.3003393504
H   H71       1.0  0.40224  0.77606  0.23381  1.0000 0.2936866674
H   H72       1.0  0.54468  0.06310  0.31134  1.0000 0.1457031239
H   H73       1.0  0.91286  0.12886  0.31181  1.0000 0.2936866674
H   H74       1.0  0.63368  0.82950  0.22706  1.0000 0.1431416217
H   H75       1.0  0.85202  0.96986  0.25428  1.0000 0.1121510431
H   H76       1.0  0.76987  0.19849  0.33568  1.0000 0.1121510431
C   C1        1.0  0.78940  0.38440  0.64210  1.0000 0.2116770315
C   C2        1.0  0.80140  0.20520  0.59620  1.0000 -0.0644384902
C   C3        1.0  0.87300  0.23920  0.54600  1.0000 0.0415367949
C   C4        1.0  0.72370  0.26650  0.61160  1.0000 -0.0822861586
C   C5        1.0  0.78870  0.57150  0.69340  1.0000 0.5875792894
C   C6        1.0  0.80440  0.11520  0.63220  1.0000 0.2116770315
C   C7        1.0  0.71790  0.44490  0.65940  1.0000 -0.167714512
C   C8        1.0  0.51480  0.26560  0.61310  1.0000 0.0629361877
C   C9        1.0  0.95170  0.18390  0.53350  1.0000 0.0629361877
C   C10       1.0  0.88290  0.05950  0.62050  1.0000 -0.1411420802
C   C11       1.0  0.58450  0.20470  0.59610  1.0000 0.0498470198
C   C12       1.0  0.58470  0.38470  0.64410  1.0000 -0.1411420802
C   C13       1.0  0.88730  0.96150  0.65940  1.0000 0.5715759191
C   C14       1.0  0.86900  0.32400  0.50600  1.0000 -0.1411420802
C   C15       1.0  0.95470  0.09550  0.57310  1.0000 -0.1500676219
C   C16       1.0  0.02050  0.21690  0.48260  1.0000 -0.1411420802
C   C17       1.0  0.51040  0.08320  0.56600  1.0000 -0.1411420802
C   C18       1.0  0.37460  0.20100  0.59890  1.0000 -0.1411420802
C   C19       1.0  0.93470  0.35230  0.45670  1.0000 -0.0994643352
C   C20       1.0  0.01050  0.29790  0.44500  1.0000 -0.0822861586
C   C21       1.0  0.37770  0.02570  0.55290  1.0000 -0.0994643352
C   C22       1.0  0.30820  0.08460  0.56960  1.0000 -0.0994643352
C   C23       1.0  0.38440  0.78940  0.85790  1.0000 0.2116770315
C   C24       1.0  0.20520  0.80140  0.90380  1.0000 -0.0644384902
C   C25       1.0  0.23920  0.87300  0.95400  1.0000 0.0415367949
C   C26       1.0  0.26650  0.72370  0.88840  1.0000 -0.0822861586
C   C27       1.0  0.57150  0.78870  0.80660  1.0000 0.5875792894
C   C28       1.0  0.11520  0.80440  0.86780  1.0000 0.2116770315
C   C29       1.0  0.44490  0.71790  0.84060  1.0000 -0.167714512
C   C30       1.0  0.26560  0.51480  0.88690  1.0000 0.0629361877
C   C31       1.0  0.18390  0.95170  0.96650  1.0000 0.0629361877
C   C32       1.0  0.05950  0.88290  0.87950  1.0000 -0.1411420802
C   C33       1.0  0.20470  0.58450  0.90390  1.0000 0.0498470198
C   C34       1.0  0.38470  0.58470  0.85590  1.0000 -0.1411420802
C   C35       1.0  0.96150  0.88730  0.84060  1.0000 0.5715759191
C   C36       1.0  0.32400  0.86900  0.99400  1.0000 -0.1411420802
C   C37       1.0  0.09550  0.95470  0.92690  1.0000 -0.1500676219
C   C38       1.0  0.21690  0.02050  0.01740  1.0000 -0.1411420802
C   C39       1.0  0.08320  0.51040  0.93400  1.0000 -0.1411420802
C   C40       1.0  0.20100  0.37460  0.90110  1.0000 -0.1411420802
C   C41       1.0  0.35230  0.93470  0.04330  1.0000 -0.0994643352
C   C42       1.0  0.29790  0.01050  0.05500  1.0000 -0.0822861586
C   C43       1.0  0.02570  0.37770  0.94710  1.0000 -0.0994643352
C   C44       1.0  0.08460  0.30820  0.93040  1.0000 -0.0994643352
C   C45       1.0  0.21060  0.61560  0.35790  1.0000 0.2116770315
C   C46       1.0  0.19860  0.79480  0.40380  1.0000 -0.0644384902
C   C47       1.0  0.12700  0.76080  0.45400  1.0000 0.0415367949
C   C48       1.0  0.27630  0.73350  0.38840  1.0000 -0.0822861586
C   C49       1.0  0.21130  0.42850  0.30660  1.0000 0.5875792894
C   C50       1.0  0.19560  0.88480  0.36780  1.0000 0.2116770315
C   C51       1.0  0.28210  0.55510  0.34060  1.0000 -0.167714512
C   C52       1.0  0.48520  0.73440  0.38690  1.0000 0.0629361877
C   C53       1.0  0.04830  0.81610  0.46650  1.0000 0.0629361877
C   C54       1.0  0.11710  0.94050  0.37950  1.0000 -0.1411420802
C   C55       1.0  0.41550  0.79530  0.40390  1.0000 0.0498470198
C   C56       1.0  0.41530  0.61530  0.35590  1.0000 -0.1411420802
C   C57       1.0  0.11270  0.03850  0.34060  1.0000 0.5715759191
C   C58       1.0  0.13100  0.67600  0.49400  1.0000 -0.1411420802
C   C59       1.0  0.04530  0.90450  0.42690  1.0000 -0.1500676219
C   C60       1.0  0.97950  0.78310  0.51740  1.0000 -0.1411420802
C   C61       1.0  0.48960  0.91680  0.43400  1.0000 -0.1411420802
C   C62       1.0  0.62540  0.79900  0.40110  1.0000 -0.1411420802
C   C63       1.0  0.06530  0.64770  0.54330  1.0000 -0.0994643352
C   C64       1.0  0.98950  0.70210  0.55500  1.0000 -0.0822861586
C   C65       1.0  0.62230  0.97430  0.44710  1.0000 -0.0994643352
C   C66       1.0  0.69180  0.91540  0.43040  1.0000 -0.0994643352
C   C67       1.0  0.61560  0.21060  0.14210  1.0000 0.2116770315
C   C68       1.0  0.79480  0.19860  0.09620  1.0000 -0.0644384902
C   C69       1.0  0.76080  0.12700  0.04600  1.0000 0.0415367949
C   C70       1.0  0.73350  0.27630  0.11160  1.0000 -0.0822861586
C   C71       1.0  0.42850  0.21130  0.19340  1.0000 0.5875792894
C   C72       1.0  0.88480  0.19560  0.13220  1.0000 0.2116770315
C   C73       1.0  0.55510  0.28210  0.15940  1.0000 -0.167714512
C   C74       1.0  0.73440  0.48520  0.11310  1.0000 0.0629361877
C   C75       1.0  0.81610  0.04830  0.03350  1.0000 0.0629361877
C   C76       1.0  0.94050  0.11710  0.12050  1.0000 -0.1411420802
C   C77       1.0  0.79530  0.41550  0.09610  1.0000 0.0498470198
C   C78       1.0  0.61530  0.41530  0.14410  1.0000 -0.1411420802
C   C79       1.0  0.03850  0.11270  0.15940  1.0000 0.5715759191
C   C80       1.0  0.67600  0.13100  0.00600  1.0000 -0.1411420802
C   C81       1.0  0.90450  0.04530  0.07310  1.0000 -0.1500676219
C   C82       1.0  0.78310  0.97950  0.98260  1.0000 -0.1411420802
C   C83       1.0  0.91680  0.48960  0.06600  1.0000 -0.1411420802
C   C84       1.0  0.79900  0.62540  0.09890  1.0000 -0.1411420802
C   C85       1.0  0.64770  0.06530  0.95670  1.0000 -0.0994643352
C   C86       1.0  0.70210  0.98950  0.94500  1.0000 -0.0822861586
C   C87       1.0  0.97430  0.62230  0.05290  1.0000 -0.0994643352
C   C88       1.0  0.91540  0.69180  0.06960  1.0000 -0.0994643352
C   C89       1.0  0.07190  0.44110  0.76720  1.0000 0.3399828616
C   C90       1.0  0.95850  0.39470  0.79940  1.0000 -0.2717659902
C   C91       1.0  0.09670  0.34130  0.74960  1.0000 -0.2717659902
C   C92       1.0  0.01290  0.21210  0.76570  1.0000 0.0629361877
C   C93       1.0  0.87760  0.26000  0.81390  1.0000 0.0629361877
C   C94       1.0  0.44110  0.07190  0.73280  1.0000 0.3399828616
C   C95       1.0  0.39470  0.95850  0.70060  1.0000 -0.2717659902
C   C96       1.0  0.34130  0.09670  0.75040  1.0000 -0.2717659902
C   C97       1.0  0.21210  0.01290  0.73430  1.0000 0.0629361877
C   C98       1.0  0.26000  0.87760  0.68610  1.0000 0.0629361877
C   C99       1.0  0.92810  0.55890  0.23280  1.0000 0.3399828616
C   C100      1.0  0.04150  0.60530  0.20060  1.0000 -0.2717659902
C   C101      1.0  0.90330  0.65870  0.25040  1.0000 -0.2717659902
C   C102      1.0  0.98710  0.78790  0.23430  1.0000 0.0629361877
C   C103      1.0  0.12240  0.74000  0.18610  1.0000 0.0629361877
C   C104      1.0  0.55890  0.92810  0.26720  1.0000 0.3399828616
C   C105      1.0  0.60530  0.04150  0.29940  1.0000 -0.2717659902
C   C106      1.0  0.65870  0.90330  0.24960  1.0000 -0.2717659902
C   C107      1.0  0.78790  0.98710  0.26570  1.0000 0.0629361877
C   C108      1.0  0.74000  0.12240  0.31390  1.0000 0.0629361877
N   N1        1.0  0.15370  0.57110  0.75400  1.0000 -0.5296931919
N   N2        1.0  0.90590  0.17130  0.79750  1.0000 -0.1411420802
N   N3        1.0  0.57110  0.15370  0.74600  1.0000 -0.5296931919
N   N4        1.0  0.17130  0.90590  0.70250  1.0000 -0.1411420802
N   N5        1.0  0.84630  0.42890  0.24600  1.0000 -0.5296931919
N   N6        1.0  0.09410  0.82870  0.20250  1.0000 -0.1411420802
N   N7        1.0  0.42890  0.84630  0.25400  1.0000 -0.5296931919
N   N8        1.0  0.82870  0.09410  0.29750  1.0000 -0.1411420802
O   O1        1.0  0.92117  0.44003  0.65692  1.0000 -0.4205904212
O   O2        1.0  0.72965  0.08035  0.67931  1.0000 -0.4339352157
O   O3        1.0  0.81078  0.92562  0.70219  1.0000 -0.5791533199
O   O4        1.0  0.71582  0.61578  0.70645  1.0000 -0.5494053569
O   O5        1.0  0.91108  0.62732  0.70583  1.0000 -0.5622668472
O   O6        1.0  0.95905  0.91855  0.64990  1.0000 -0.5394870248
O   O7        1.0  0.44003  0.92117  0.84308  1.0000 -0.4205904212
O   O8        1.0  0.08035  0.72965  0.82069  1.0000 -0.4339352157
O   O9        1.0  0.92562  0.81078  0.79781  1.0000 -0.5791533199
O   O10       1.0  0.61578  0.71582  0.79355  1.0000 -0.5494053569
O   O11       1.0  0.62732  0.91108  0.79417  1.0000 -0.5622668472
O   O12       1.0  0.91855  0.95905  0.85010  1.0000 -0.5394870248
O   O13       1.0  0.07883  0.55997  0.34308  1.0000 -0.4205904212
O   O14       1.0  0.27035  0.91965  0.32069  1.0000 -0.4339352157
O   O15       1.0  0.18922  0.07438  0.29781  1.0000 -0.5791533199
O   O16       1.0  0.28418  0.38422  0.29355  1.0000 -0.5494053569
O   O17       1.0  0.08892  0.37268  0.29417  1.0000 -0.5622668472
O   O18       1.0  0.04095  0.08145  0.35010  1.0000 -0.5394870248
O   O19       1.0  0.55997  0.07883  0.15692  1.0000 -0.4205904212
O   O20       1.0  0.91965  0.27035  0.17931  1.0000 -0.4339352157
O   O21       1.0  0.07438  0.18922  0.20219  1.0000 -0.5791533199
O   O22       1.0  0.38422  0.28418  0.20645  1.0000 -0.5494053569
O   O23       1.0  0.37268  0.08892  0.20583  1.0000 -0.5622668472
O   O24       1.0  0.08145  0.04095  0.14990  1.0000 -0.5394870248
