# DDEC6 charges by PACMAN v1.1 (https://github.com/mtap-research/PACMAN-charge/)
data_2018[CuSb][dia]3[ION]1
_chemical_formula_sum              "Cu4 Sb2 H72 C88 N24 O8 F12"
_cell_length_a       10.09
_cell_length_b       17.342
_cell_length_c       20.435
_cell_angle_alpha    90
_cell_angle_beta     104.261
_cell_angle_gamma    90

_symmetry_space_group_name_H-M    "P 1"
_symmetry_Int_Tables_number       1

loop_
  _symmetry_equiv_pos_as_xyz
  'x, y, z'

loop_
  _atom_site_type_symbol
  _atom_site_label
  _atom_site_symmetry_multiplicity
  _atom_site_fract_x
  _atom_site_fract_y
  _atom_site_fract_z
  _atom_site_occupancy
  _atom_site_charge
Cu  Cu1       1.0  0.73510  0.48155  0.50418  1.0000 0.232582787
Cu  Cu2       1.0  0.23770  0.73205  0.00608  1.0000 0.2142419237
Cu  Cu3       1.0  0.26490  0.98155  0.49582  1.0000 0.232582787
Cu  Cu4       1.0  0.76230  0.23205  0.99392  1.0000 0.2142419237
Sb  Sb1       1.0  0.95980  0.22233  0.33224  1.0000 1.8832488078
Sb  Sb2       1.0  0.04020  0.72233  0.66776  1.0000 1.8832488078
H   H1        1.0  0.96490  0.64150  0.26230  1.0000 0.2814062057
H   H2        1.0  0.84050  0.66850  0.34090  1.0000 0.1377153582
H   H3        1.0  0.74900  0.62640  0.42480  1.0000 0.110290701
H   H4        1.0  0.95740  0.44100  0.44530  1.0000 0.110290701
H   H5        1.0  0.03160  0.46530  0.35210  1.0000 0.1566818524
H   H6        1.0  0.94890  0.67970  0.16410  1.0000 0.1319786626
H   H7        1.0  0.04300  0.74320  0.08440  1.0000 0.110290701
H   H8        1.0  0.25090  0.52270  0.17480  1.0000 0.1319786626
H   H9        1.0  0.31230  0.58970  0.08860  1.0000 0.0999153594
H   H10       1.0  0.21170  0.39700  0.24030  1.0000 0.2814062057
H   H11       1.0  0.01610  0.42180  0.15880  1.0000 0.1377153582
H   H12       1.0  0.84490  0.37760  0.07540  1.0000 0.0999153594
H   H13       1.0  0.04490  0.18930  0.05740  1.0000 0.0999153594
H   H14       1.0  0.22170  0.22510  0.14400  1.0000 0.1478386043
H   H15       1.0  0.30020  0.43060  0.33390  1.0000 0.1319786626
H   H16       1.0  0.45350  0.49370  0.42480  1.0000 0.0999153594
H   H17       1.0  0.59400  0.28180  0.32550  1.0000 0.1478386043
H   H18       1.0  0.72170  0.33250  0.42390  1.0000 0.110290701
H   H19       1.0  0.51270  0.64750  0.74430  1.0000 0.2880997825
H   H20       1.0  0.63320  0.67190  0.66530  1.0000 0.1478386043
H   H21       1.0  0.71870  0.63180  0.57640  1.0000 0.110290701
H   H22       1.0  0.53180  0.43100  0.57290  1.0000 0.0999153594
H   H23       1.0  0.42690  0.47510  0.65610  1.0000 0.1377153582
H   H24       1.0  0.47440  0.70740  0.82190  1.0000 0.1377153582
H   H25       1.0  0.42850  0.75390  0.91880  1.0000 0.110290701
H   H26       1.0  0.24730  0.52440  0.83790  1.0000 0.1377153582
H   H27       1.0  0.18240  0.58430  0.92530  1.0000 0.0999153594
H   H28       1.0  0.27550  0.40190  0.76200  1.0000 0.2814062057
H   H29       1.0  0.48590  0.42570  0.83680  1.0000 0.1377153582
H   H30       1.0  0.66330  0.38490  0.92080  1.0000 0.0999153594
H   H31       1.0  0.49360  0.18510  0.93190  1.0000 0.0884347372
H   H32       1.0  0.30140  0.21750  0.84220  1.0000 0.1377153582
H   H33       1.0  0.17120  0.44680  0.67350  1.0000 0.1377153582
H   H34       1.0  0.01610  0.50490  0.58730  1.0000 0.123134287
H   H35       1.0  0.91320  0.27500  0.67340  1.0000 0.1319786626
H   H36       1.0  0.77740  0.32420  0.57830  1.0000 0.110290701
H   H37       1.0  0.03510  0.14150  0.73770  1.0000 0.2814062057
H   H38       1.0  0.15950  0.16850  0.65910  1.0000 0.1377153582
H   H39       1.0  0.25100  0.12640  0.57520  1.0000 0.110290701
H   H40       1.0  0.04260  0.94100  0.55470  1.0000 0.110290701
H   H41       1.0  0.96840  0.96530  0.64790  1.0000 0.1566818524
H   H42       1.0  0.05110  0.17970  0.83590  1.0000 0.1319786626
H   H43       1.0  0.95700  0.24320  0.91560  1.0000 0.110290701
H   H44       1.0  0.74910  0.02270  0.82520  1.0000 0.1319786626
H   H45       1.0  0.68770  0.08970  0.91140  1.0000 0.0999153594
H   H46       1.0  0.78830  0.89700  0.75970  1.0000 0.2814062057
H   H47       1.0  0.98390  0.92180  0.84120  1.0000 0.1377153582
H   H48       1.0  0.15510  0.87760  0.92460  1.0000 0.0999153594
H   H49       1.0  0.95510  0.68930  0.94260  1.0000 0.0999153594
H   H50       1.0  0.77830  0.72510  0.85600  1.0000 0.1478386043
H   H51       1.0  0.69980  0.93060  0.66610  1.0000 0.1319786626
H   H52       1.0  0.54650  0.99370  0.57520  1.0000 0.0999153594
H   H53       1.0  0.40600  0.78180  0.67450  1.0000 0.1478386043
H   H54       1.0  0.27830  0.83250  0.57610  1.0000 0.110290701
H   H55       1.0  0.48730  0.14750  0.25570  1.0000 0.2880997825
H   H56       1.0  0.36680  0.17190  0.33470  1.0000 0.1478386043
H   H57       1.0  0.28130  0.13180  0.42360  1.0000 0.110290701
H   H58       1.0  0.46820  0.93100  0.42710  1.0000 0.0999153594
H   H59       1.0  0.57310  0.97510  0.34390  1.0000 0.1377153582
H   H60       1.0  0.52560  0.20740  0.17810  1.0000 0.1377153582
H   H61       1.0  0.57150  0.25390  0.08120  1.0000 0.110290701
H   H62       1.0  0.75270  0.02440  0.16210  1.0000 0.1377153582
H   H63       1.0  0.81760  0.08430  0.07470  1.0000 0.0999153594
H   H64       1.0  0.72450  0.90190  0.23800  1.0000 0.2814062057
H   H65       1.0  0.51410  0.92570  0.16320  1.0000 0.1377153582
H   H66       1.0  0.33670  0.88490  0.07920  1.0000 0.0999153594
H   H67       1.0  0.50640  0.68510  0.06810  1.0000 0.0884347372
H   H68       1.0  0.69860  0.71750  0.15780  1.0000 0.1377153582
H   H69       1.0  0.82880  0.94680  0.32650  1.0000 0.1377153582
H   H70       1.0  0.98390  0.00490  0.41270  1.0000 0.123134287
H   H71       1.0  0.08680  0.77500  0.32660  1.0000 0.1319786626
H   H72       1.0  0.22260  0.82420  0.42170  1.0000 0.110290701
C   C1        1.0  0.86230  0.61950  0.35890  1.0000 -0.2440431845
C   C2        1.0  0.81100  0.59470  0.41090  1.0000 0.0494341744
C   C3        1.0  0.92760  0.48610  0.42160  1.0000 0.080599308
C   C4        1.0  0.97730  0.50120  0.36710  1.0000 -0.2303714883
C   C5        1.0  0.94520  0.57270  0.33320  1.0000 0.2708594743
C   C6        1.0  0.07750  0.55880  0.24480  1.0000 0.4255890865
C   C7        1.0  0.10150  0.59810  0.18610  1.0000 -0.0036300463
C   C8        1.0  0.02680  0.66130  0.15270  1.0000 -0.1884225514
C   C9        1.0  0.07800  0.69530  0.10060  1.0000 0.0494341744
C   C10       1.0  0.20510  0.56770  0.15780  1.0000 -0.1884225514
C   C11       1.0  0.23750  0.60680  0.10360  1.0000 0.0700860787
C   C12       1.0  0.02240  0.37320  0.14050  1.0000 -0.2210213822
C   C13       1.0  0.92330  0.34760  0.08860  1.0000 0.0494341744
C   C14       1.0  0.03970  0.23650  0.07820  1.0000 0.0494341744
C   C15       1.0  0.14490  0.25640  0.13110  1.0000 -0.2210213822
C   C16       1.0  0.13490  0.32610  0.16640  1.0000 0.2880997825
C   C17       1.0  0.34130  0.31400  0.25580  1.0000 0.4620723519
C   C18       1.0  0.43040  0.35110  0.31700  1.0000 0.0288590351
C   C19       1.0  0.38880  0.41200  0.34940  1.0000 -0.1673181113
C   C20       1.0  0.47920  0.44820  0.40720  1.0000 0.0700860787
C   C21       1.0  0.55950  0.32260  0.34570  1.0000 -0.1509040278
C   C22       1.0  0.63740  0.35480  0.40450  1.0000 0.0700860787
C   C23       1.0  0.61100  0.62310  0.64700  1.0000 -0.2083277498
C   C24       1.0  0.66160  0.59920  0.59310  1.0000 0.0884347372
C   C25       1.0  0.54900  0.48070  0.59000  1.0000 0.0583385871
C   C26       1.0  0.49100  0.50540  0.64210  1.0000 -0.2303714883
C   C27       1.0  0.53150  0.57720  0.67280  1.0000 0.2537412215
C   C28       1.0  0.40380  0.56530  0.76200  1.0000 0.4620723519
C   C29       1.0  0.37080  0.60690  0.82190  1.0000 0.0376232676
C   C30       1.0  0.42100  0.67910  0.84460  1.0000 -0.1585463466
C   C31       1.0  0.39000  0.70710  0.90170  1.0000 0.0288590351
C   C32       1.0  0.28420  0.57220  0.85300  1.0000 -0.1585463466
C   C33       1.0  0.24930  0.60720  0.90760  1.0000 0.080599308
C   C34       1.0  0.48520  0.37630  0.85440  1.0000 -0.2440431845
C   C35       1.0  0.59060  0.35130  0.90480  1.0000 0.0494341744
C   C36       1.0  0.49140  0.23310  0.91140  1.0000 0.0583385871
C   C37       1.0  0.37280  0.25220  0.85700  1.0000 -0.2603610437
C   C38       1.0  0.37190  0.32490  0.82840  1.0000 0.2708594743
C   C39       1.0  0.16020  0.31390  0.74180  1.0000 0.4436842668
C   C40       1.0  0.06530  0.35420  0.68460  1.0000 0.0144116152
C   C41       1.0  0.08790  0.42230  0.65610  1.0000 -0.1585463466
C   C42       1.0  0.99680  0.45730  0.60370  1.0000 0.0494341744
C   C43       1.0  0.93900  0.32000  0.65500  1.0000 -0.1884225514
C   C44       1.0  0.85460  0.35190  0.60020  1.0000 0.0700860787
C   C45       1.0  0.13770  0.11950  0.64110  1.0000 -0.2440431845
C   C46       1.0  0.18900  0.09470  0.58910  1.0000 0.0494341744
C   C47       1.0  0.07240  0.98610  0.57840  1.0000 0.080599308
C   C48       1.0  0.02270  0.00120  0.63290  1.0000 -0.2303714883
C   C49       1.0  0.05480  0.07270  0.66680  1.0000 0.2708594743
C   C50       1.0  0.92250  0.05880  0.75520  1.0000 0.4255890865
C   C51       1.0  0.89850  0.09810  0.81390  1.0000 -0.0036300463
C   C52       1.0  0.97320  0.16130  0.84730  1.0000 -0.1884225514
C   C53       1.0  0.92200  0.19530  0.89940  1.0000 0.0494341744
C   C54       1.0  0.79490  0.06770  0.84220  1.0000 -0.1884225514
C   C55       1.0  0.76250  0.10680  0.89640  1.0000 0.0700860787
C   C56       1.0  0.97760  0.87320  0.85950  1.0000 -0.2210213822
C   C57       1.0  0.07670  0.84760  0.91140  1.0000 0.0494341744
C   C58       1.0  0.96030  0.73650  0.92180  1.0000 0.0494341744
C   C59       1.0  0.85510  0.75640  0.86890  1.0000 -0.2210213822
C   C60       1.0  0.86510  0.82610  0.83360  1.0000 0.2880997825
C   C61       1.0  0.65870  0.81400  0.74420  1.0000 0.4620723519
C   C62       1.0  0.56960  0.85110  0.68300  1.0000 0.0288590351
C   C63       1.0  0.61120  0.91200  0.65060  1.0000 -0.1673181113
C   C64       1.0  0.52080  0.94820  0.59280  1.0000 0.0700860787
C   C65       1.0  0.44050  0.82260  0.65430  1.0000 -0.1509040278
C   C66       1.0  0.36260  0.85480  0.59550  1.0000 0.0700860787
C   C67       1.0  0.38900  0.12310  0.35300  1.0000 -0.2083277498
C   C68       1.0  0.33840  0.09920  0.40690  1.0000 0.0884347372
C   C69       1.0  0.45100  0.98070  0.41000  1.0000 0.0583385871
C   C70       1.0  0.50900  0.00540  0.35790  1.0000 -0.2303714883
C   C71       1.0  0.46850  0.07720  0.32720  1.0000 0.2537412215
C   C72       1.0  0.59620  0.06530  0.23800  1.0000 0.4620723519
C   C73       1.0  0.62920  0.10690  0.17810  1.0000 0.0376232676
C   C74       1.0  0.57900  0.17910  0.15540  1.0000 -0.1585463466
C   C75       1.0  0.61000  0.20710  0.09830  1.0000 0.0288590351
C   C76       1.0  0.71580  0.07220  0.14700  1.0000 -0.1585463466
C   C77       1.0  0.75070  0.10720  0.09240  1.0000 0.080599308
C   C78       1.0  0.51480  0.87630  0.14560  1.0000 -0.2440431845
C   C79       1.0  0.40940  0.85130  0.09520  1.0000 0.0494341744
C   C80       1.0  0.50860  0.73310  0.08860  1.0000 0.0583385871
C   C81       1.0  0.62720  0.75220  0.14300  1.0000 -0.2603610437
C   C82       1.0  0.62810  0.82490  0.17160  1.0000 0.2708594743
C   C83       1.0  0.83980  0.81390  0.25820  1.0000 0.4436842668
C   C84       1.0  0.93470  0.85420  0.31540  1.0000 0.0144116152
C   C85       1.0  0.91210  0.92230  0.34390  1.0000 -0.1585463466
C   C86       1.0  0.00320  0.95730  0.39630  1.0000 0.0494341744
C   C87       1.0  0.06100  0.82000  0.34500  1.0000 -0.1884225514
C   C88       1.0  0.14540  0.85190  0.39980  1.0000 0.0700860787
N   N1        1.0  0.84410  0.52780  0.44350  1.0000 -0.2083277498
N   N2        1.0  0.99250  0.59680  0.27800  1.0000 -0.3617607933
N   N3        1.0  0.16990  0.66450  0.07380  1.0000 -0.1785746199
N   N4        1.0  0.92800  0.28070  0.05350  1.0000 -0.2650403958
N   N5        1.0  0.22760  0.35320  0.22410  1.0000 -0.3507469278
N   N6        1.0  0.59950  0.41580  0.43510  1.0000 -0.2083277498
N   N7        1.0  0.62880  0.52870  0.56440  1.0000 -0.2210213822
N   N8        1.0  0.48530  0.60250  0.72910  1.0000 -0.3393734675
N   N9        1.0  0.30630  0.67090  0.93520  1.0000 -0.2083277498
N   N10       1.0  0.59630  0.28030  0.93350  1.0000 -0.2440431845
N   N11       1.0  0.26830  0.35500  0.77430  1.0000 -0.3617607933
N   N12       1.0  0.87500  0.41940  0.57590  1.0000 -0.1884225514
N   N13       1.0  0.15590  0.02780  0.55650  1.0000 -0.2083277498
N   N14       1.0  0.00750  0.09680  0.72200  1.0000 -0.3617607933
N   N15       1.0  0.83010  0.16450  0.92620  1.0000 -0.1785746199
N   N16       1.0  0.07200  0.78070  0.94650  1.0000 -0.2650403958
N   N17       1.0  0.77240  0.85320  0.77590  1.0000 -0.3507469278
N   N18       1.0  0.40050  0.91580  0.56490  1.0000 -0.2083277498
N   N19       1.0  0.37120  0.02870  0.43560  1.0000 -0.2210213822
N   N20       1.0  0.51470  0.10250  0.27090  1.0000 -0.3393734675
N   N21       1.0  0.69370  0.17090  0.06480  1.0000 -0.2083277498
N   N22       1.0  0.40370  0.78030  0.06650  1.0000 -0.2440431845
N   N23       1.0  0.73170  0.85500  0.22570  1.0000 -0.3617607933
N   N24       1.0  0.12500  0.91940  0.42410  1.0000 -0.1884225514
O   O1        1.0  0.11890  0.49460  0.26370  1.0000 -0.469420312
O   O2        1.0  0.38140  0.25210  0.23600  1.0000 -0.4981535258
O   O3        1.0  0.35320  0.50480  0.74430  1.0000 -0.4624047708
O   O4        1.0  0.13420  0.24600  0.75570  1.0000 -0.5262415689
O   O5        1.0  0.88110  0.99460  0.73630  1.0000 -0.469420312
O   O6        1.0  0.61860  0.75210  0.76400  1.0000 -0.4981535258
O   O7        1.0  0.64680  0.00480  0.25570  1.0000 -0.4624047708
O   O8        1.0  0.86580  0.74600  0.24430  1.0000 -0.5262415689
F   F1        1.0  0.78480  0.19130  0.32900  1.0000 -0.4947516851
F   F2        1.0  0.02590  0.16290  0.40760  1.0000 -0.4981535258
F   F3        1.0  0.98150  0.13960  0.27900  1.0000 -0.5103999656
F   F4        1.0  0.13570  0.25350  0.33550  1.0000 -0.4981535258
F   F5        1.0  0.89490  0.28060  0.25590  1.0000 -0.4947516851
F   F6        1.0  0.93740  0.30450  0.38530  1.0000 -0.4947516851
F   F7        1.0  0.21520  0.69130  0.67100  1.0000 -0.4947516851
F   F8        1.0  0.97410  0.66290  0.59240  1.0000 -0.4947516851
F   F9        1.0  0.01850  0.63960  0.72100  1.0000 -0.5103999656
F   F10       1.0  0.86430  0.75350  0.66450  1.0000 -0.4981535258
F   F11       1.0  0.10510  0.78060  0.74410  1.0000 -0.4981535258
F   F12       1.0  0.06260  0.80450  0.61470  1.0000 -0.4947516851
