# DDEC6 charges by PACMAN v1.1 (https://github.com/mtap-research/PACMAN-charge/)
data_2018[La][nan]2[ION]1
_chemical_formula_sum              "La4 H56 C20 Cl4 O32"
_cell_length_a       9.67778
_cell_length_b       9.67778
_cell_length_c       19.45
_cell_angle_alpha    90
_cell_angle_beta     90
_cell_angle_gamma    125.728

_symmetry_space_group_name_H-M    "P 1"
_symmetry_Int_Tables_number       1

loop_
  _symmetry_equiv_pos_as_xyz
  'x, y, z'

loop_
  _atom_site_type_symbol
  _atom_site_label
  _atom_site_symmetry_multiplicity
  _atom_site_fract_x
  _atom_site_fract_y
  _atom_site_fract_z
  _atom_site_occupancy
  _atom_site_charge
La  La1       1.0  0.73269  0.26731  0.50000  1.0000 1.8619240637
La  La2       1.0  0.26731  0.73269  0.00000  1.0000 1.8619240637
La  La3       1.0  0.26731  0.73269  0.50000  1.0000 1.8619240637
La  La4       1.0  0.73269  0.26731  0.00000  1.0000 1.8619240637
H   H1        1.0  0.00300  0.29260  0.31510  1.0000 0.1455899238
H   H2        1.0  0.89690  0.37150  0.31370  1.0000 0.143840548
H   H3        1.0  0.76910  0.60890  0.49780  1.0000 0.3424277737
H   H4        1.0  0.68180  0.52420  0.43930  1.0000 0.3424277737
H   H5        1.0  0.01630  0.28370  0.56690  1.0000 0.3195067051
H   H6        1.0  0.89610  0.11590  0.57000  1.0000 0.3195067051
H   H7        1.0  0.99700  0.70740  0.81510  1.0000 0.1455899238
H   H8        1.0  0.10310  0.62850  0.81370  1.0000 0.143840548
H   H9        1.0  0.23090  0.39110  0.99780  1.0000 0.3424277737
H   H10       1.0  0.31820  0.47580  0.93930  1.0000 0.3424277737
H   H11       1.0  0.98370  0.71630  0.06690  1.0000 0.3195067051
H   H12       1.0  0.10390  0.88410  0.07000  1.0000 0.3195067051
H   H13       1.0  0.29260  0.00300  0.18490  1.0000 0.1455899238
H   H14       1.0  0.37150  0.89690  0.18630  1.0000 0.143840548
H   H15       1.0  0.60890  0.76910  0.00220  1.0000 0.3424277737
H   H16       1.0  0.52420  0.68180  0.06070  1.0000 0.3424277737
H   H17       1.0  0.28370  0.01630  0.93310  1.0000 0.3195067051
H   H18       1.0  0.11590  0.89610  0.93000  1.0000 0.3195067051
H   H19       1.0  0.70740  0.99700  0.68490  1.0000 0.1455899238
H   H20       1.0  0.62850  0.10310  0.68630  1.0000 0.143840548
H   H21       1.0  0.39110  0.23090  0.50220  1.0000 0.3424277737
H   H22       1.0  0.47580  0.31820  0.56070  1.0000 0.3424277737
H   H23       1.0  0.71630  0.98370  0.43310  1.0000 0.3195067051
H   H24       1.0  0.88410  0.10390  0.43000  1.0000 0.3195067051
H   H25       1.0  0.99700  0.70740  0.68490  1.0000 0.1455899238
H   H26       1.0  0.10310  0.62850  0.68630  1.0000 0.143840548
H   H27       1.0  0.23090  0.39110  0.50220  1.0000 0.3424277737
H   H28       1.0  0.31820  0.47580  0.56070  1.0000 0.3424277737
H   H29       1.0  0.98370  0.71630  0.43310  1.0000 0.3195067051
H   H30       1.0  0.10390  0.88410  0.43000  1.0000 0.3195067051
H   H31       1.0  0.00300  0.29260  0.18490  1.0000 0.1455899238
H   H32       1.0  0.89690  0.37150  0.18630  1.0000 0.143840548
H   H33       1.0  0.76910  0.60890  0.00220  1.0000 0.3424277737
H   H34       1.0  0.68180  0.52420  0.06070  1.0000 0.3424277737
H   H35       1.0  0.01630  0.28370  0.93310  1.0000 0.3195067051
H   H36       1.0  0.89610  0.11590  0.93000  1.0000 0.3195067051
H   H37       1.0  0.70740  0.99700  0.81510  1.0000 0.1455899238
H   H38       1.0  0.62850  0.10310  0.81370  1.0000 0.143840548
H   H39       1.0  0.39110  0.23090  0.99780  1.0000 0.3424277737
H   H40       1.0  0.47580  0.31820  0.93930  1.0000 0.3424277737
H   H41       1.0  0.71630  0.98370  0.06690  1.0000 0.3195067051
H   H42       1.0  0.88410  0.10390  0.07000  1.0000 0.3195067051
H   H43       1.0  0.29260  0.00300  0.31510  1.0000 0.1455899238
H   H44       1.0  0.37150  0.89690  0.31370  1.0000 0.143840548
H   H45       1.0  0.60890  0.76910  0.49780  1.0000 0.3424277737
H   H46       1.0  0.52420  0.68180  0.43930  1.0000 0.3424277737
H   H47       1.0  0.28370  0.01630  0.56690  1.0000 0.3195067051
H   H48       1.0  0.11590  0.89610  0.57000  1.0000 0.3195067051
H   H49       1.0  0.12030  0.60850  0.25000  1.0000 0.1005238615
H   H50       1.0  0.22200  0.52460  0.25000  1.0000 0.1057741087
H   H51       1.0  0.87970  0.39150  0.75000  1.0000 0.1005238615
H   H52       1.0  0.77800  0.47540  0.75000  1.0000 0.1057741087
H   H53       1.0  0.60850  0.12030  0.25000  1.0000 0.1005238615
H   H54       1.0  0.52460  0.22200  0.25000  1.0000 0.1057741087
H   H55       1.0  0.39150  0.87970  0.75000  1.0000 0.1005238615
H   H56       1.0  0.47540  0.77800  0.75000  1.0000 0.1057741087
C   C1        1.0  0.09964  0.49634  0.38025  1.0000 0.6550048109
C   C2        1.0  0.01342  0.40058  0.31482  1.0000 -0.333422098
C   C3        1.0  0.90036  0.50366  0.88025  1.0000 0.6550048109
C   C4        1.0  0.98658  0.59942  0.81482  1.0000 -0.333422098
C   C5        1.0  0.49634  0.09964  0.11975  1.0000 0.6550048109
C   C6        1.0  0.40058  0.01342  0.18518  1.0000 -0.333422098
C   C7        1.0  0.50366  0.90036  0.61975  1.0000 0.6547120925
C   C8        1.0  0.59942  0.98658  0.68518  1.0000 -0.333422098
C   C9        1.0  0.90036  0.50366  0.61975  1.0000 0.6550048109
C   C10       1.0  0.98658  0.59942  0.68518  1.0000 -0.333422098
C   C11       1.0  0.09964  0.49634  0.11975  1.0000 0.6550048109
C   C12       1.0  0.01342  0.40058  0.18518  1.0000 -0.333422098
C   C13       1.0  0.50366  0.90036  0.88025  1.0000 0.6550048109
C   C14       1.0  0.59942  0.98658  0.81482  1.0000 -0.333422098
C   C15       1.0  0.49634  0.09964  0.38025  1.0000 0.6550048109
C   C16       1.0  0.40058  0.01342  0.31482  1.0000 -0.333422098
C   C17       1.0  0.10690  0.49890  0.25000  1.0000 -0.0742872838
C   C18       1.0  0.89310  0.50110  0.75000  1.0000 -0.0742872838
C   C19       1.0  0.49890  0.10690  0.25000  1.0000 -0.0742872838
C   C20       1.0  0.50110  0.89310  0.75000  1.0000 -0.0742872838
Cl  Cl1       1.0  0.17117  0.17117  0.42707  1.0000 -0.6251809035
Cl  Cl2       1.0  0.82883  0.82883  0.92707  1.0000 -0.6251809035
Cl  Cl3       1.0  0.17117  0.17117  0.07293  1.0000 -0.6251809035
Cl  Cl4       1.0  0.82883  0.82883  0.57293  1.0000 -0.6251809035
O   O1        1.0  0.01158  0.45530  0.43560  1.0000 -0.6771990741
O   O2        1.0  0.25541  0.61515  0.38067  1.0000 -0.5876252536
O   O3        1.0  0.75732  0.54588  0.46667  1.0000 -0.6771990741
O   O4        1.0  0.91535  0.20783  0.57364  1.0000 -0.6771990741
O   O5        1.0  0.98842  0.54470  0.93560  1.0000 -0.6771990741
O   O6        1.0  0.74459  0.38485  0.88067  1.0000 -0.5876252536
O   O7        1.0  0.24268  0.45412  0.96667  1.0000 -0.6771990741
O   O8        1.0  0.08465  0.79217  0.07364  1.0000 -0.6771990741
O   O9        1.0  0.45530  0.01158  0.06440  1.0000 -0.6771990741
O   O10       1.0  0.61515  0.25541  0.11933  1.0000 -0.5876252536
O   O11       1.0  0.54588  0.75732  0.03333  1.0000 -0.6771990741
O   O12       1.0  0.20783  0.91535  0.92636  1.0000 -0.6771990741
O   O13       1.0  0.54470  0.98842  0.56440  1.0000 -0.6771990741
O   O14       1.0  0.38485  0.74459  0.61933  1.0000 -0.5876252536
O   O15       1.0  0.45412  0.24268  0.53333  1.0000 -0.6771990741
O   O16       1.0  0.79217  0.08465  0.42636  1.0000 -0.6771990741
O   O17       1.0  0.98842  0.54470  0.56440  1.0000 -0.6771990741
O   O18       1.0  0.74459  0.38485  0.61933  1.0000 -0.5876252536
O   O19       1.0  0.24268  0.45412  0.53333  1.0000 -0.6771990741
O   O20       1.0  0.08465  0.79217  0.42636  1.0000 -0.6771990741
O   O21       1.0  0.01158  0.45530  0.06440  1.0000 -0.6771990741
O   O22       1.0  0.25541  0.61515  0.11933  1.0000 -0.5876252536
O   O23       1.0  0.75732  0.54588  0.03333  1.0000 -0.6771990741
O   O24       1.0  0.91535  0.20783  0.92636  1.0000 -0.6771990741
O   O25       1.0  0.54470  0.98842  0.93560  1.0000 -0.6771990741
O   O26       1.0  0.38485  0.74459  0.88067  1.0000 -0.5876252536
O   O27       1.0  0.45412  0.24268  0.96667  1.0000 -0.6771990741
O   O28       1.0  0.79217  0.08465  0.07364  1.0000 -0.6771990741
O   O29       1.0  0.45530  0.01158  0.43560  1.0000 -0.6771990741
O   O30       1.0  0.61515  0.25541  0.38067  1.0000 -0.5876252536
O   O31       1.0  0.54588  0.75732  0.46667  1.0000 -0.6771990741
O   O32       1.0  0.20783  0.91535  0.57364  1.0000 -0.6771990741
