# DDEC6 charges by PACMAN v1.1 (https://github.com/mtap-research/PACMAN-charge/)
data_2018[U][hcb]2[ION]1
_chemical_formula_sum              "U4 H96 C156 N8 O44"
_cell_length_a       21.8991
_cell_length_b       21.8991
_cell_length_c       18.373
_cell_angle_alpha    67.5695
_cell_angle_beta     112.43
_cell_angle_gamma    148.291

_symmetry_space_group_name_H-M    "P 1"
_symmetry_Int_Tables_number       1

loop_
  _symmetry_equiv_pos_as_xyz
  'x, y, z'

loop_
  _atom_site_type_symbol
  _atom_site_label
  _atom_site_symmetry_multiplicity
  _atom_site_fract_x
  _atom_site_fract_y
  _atom_site_fract_z
  _atom_site_occupancy
  _atom_site_charge
U   U1        1.0  0.66161  0.79757  0.38228  1.0000 2.258467577
U   U2        1.0  0.79757  0.66161  0.11772  1.0000 2.258467577
U   U3        1.0  0.33839  0.20243  0.61772  1.0000 2.258467577
U   U4        1.0  0.20243  0.33839  0.88228  1.0000 2.258467577
H   H1        1.0  0.17200  0.53820  0.79230  1.0000 0.1299560519
H   H2        1.0  0.30280  0.60900  0.73410  1.0000 0.140307074
H   H3        1.0  0.16500  0.61480  0.52060  1.0000 0.1114500608
H   H4        1.0  0.31110  0.54750  0.65480  1.0000 0.140307074
H   H5        1.0  0.01990  0.52310  0.57750  1.0000 0.1299560519
H   H6        1.0  0.42700  0.59800  0.59570  1.0000 0.140307074
H   H7        1.0  0.49660  0.83760  0.44590  1.0000 0.1199271387
H   H8        1.0  0.37430  0.78150  0.50330  1.0000 0.1199271387
H   H9        1.0  0.09680  0.66920  0.65910  1.0000 0.1299560519
H   H10       1.0  0.78000  0.33400  0.70150  1.0000 0.1299560519
H   H11       1.0  0.70170  0.37330  0.63700  1.0000 0.1199271387
H   H12       1.0  0.02190  0.70810  0.59330  1.0000 0.1199271387
H   H13       1.0  0.68470  0.47330  0.62970  1.0000 0.1199271387
H   H14       1.0  0.62850  0.53770  0.56580  1.0000 0.1475893068
H   H15       1.0  0.84980  0.74380  0.40890  1.0000 0.140307074
H   H16       1.0  0.91230  0.68570  0.47580  1.0000 0.1114500608
H   H17       1.0  0.97050  0.32490  0.77970  1.0000 0.140307074
H   H18       1.0  0.92070  0.21270  0.89990  1.0000 0.140307074
H   H19       1.0  0.87470  0.32590  0.96070  1.0000 0.1299560519
H   H20       1.0  0.92860  0.44220  0.84260  1.0000 0.140307074
H   H21       1.0  0.73160  0.13180  0.03180  1.0000 0.1199271387
H   H22       1.0  0.66667  0.00387  0.14470  1.0000 0.1199271387
H   H23       1.0  0.91110  0.07890  0.15580  1.0000 0.140307074
H   H24       1.0  0.96420  0.19640  0.03640  1.0000 0.1299560519
H   H25       1.0  0.53820  0.17200  0.70770  1.0000 0.1299560519
H   H26       1.0  0.60900  0.30280  0.76590  1.0000 0.140307074
H   H27       1.0  0.61480  0.16500  0.97940  1.0000 0.1114500608
H   H28       1.0  0.54750  0.31110  0.84520  1.0000 0.140307074
H   H29       1.0  0.52310  0.01990  0.92250  1.0000 0.1299560519
H   H30       1.0  0.59800  0.42700  0.90430  1.0000 0.140307074
H   H31       1.0  0.83760  0.49660  0.05410  1.0000 0.1199271387
H   H32       1.0  0.78150  0.37430  0.99670  1.0000 0.1199271387
H   H33       1.0  0.66920  0.09680  0.84090  1.0000 0.1299560519
H   H34       1.0  0.33400  0.78000  0.79850  1.0000 0.1299560519
H   H35       1.0  0.37330  0.70170  0.86300  1.0000 0.1199271387
H   H36       1.0  0.70810  0.02190  0.90670  1.0000 0.1199271387
H   H37       1.0  0.47330  0.68470  0.87030  1.0000 0.1199271387
H   H38       1.0  0.53770  0.62850  0.93420  1.0000 0.1475893068
H   H39       1.0  0.74380  0.84980  0.09110  1.0000 0.140307074
H   H40       1.0  0.68570  0.91230  0.02420  1.0000 0.1114500608
H   H41       1.0  0.32490  0.97050  0.72030  1.0000 0.140307074
H   H42       1.0  0.21270  0.92070  0.60010  1.0000 0.140307074
H   H43       1.0  0.32590  0.87470  0.53930  1.0000 0.1299560519
H   H44       1.0  0.44220  0.92860  0.65740  1.0000 0.140307074
H   H45       1.0  0.13180  0.73160  0.46820  1.0000 0.1199271387
H   H46       1.0  0.00387  0.66667  0.35530  1.0000 0.1199271387
H   H47       1.0  0.07890  0.91110  0.34420  1.0000 0.140307074
H   H48       1.0  0.19640  0.96420  0.46360  1.0000 0.1299560519
H   H49       1.0  0.82800  0.46180  0.20770  1.0000 0.1299560519
H   H50       1.0  0.69720  0.39100  0.26590  1.0000 0.140307074
H   H51       1.0  0.83500  0.38520  0.47940  1.0000 0.1114500608
H   H52       1.0  0.68890  0.45250  0.34520  1.0000 0.140307074
H   H53       1.0  0.98010  0.47690  0.42250  1.0000 0.1299560519
H   H54       1.0  0.57300  0.40200  0.40430  1.0000 0.140307074
H   H55       1.0  0.50340  0.16240  0.55410  1.0000 0.1199271387
H   H56       1.0  0.62570  0.21850  0.49670  1.0000 0.1199271387
H   H57       1.0  0.90320  0.33080  0.34090  1.0000 0.1299560519
H   H58       1.0  0.22000  0.66600  0.29850  1.0000 0.1299560519
H   H59       1.0  0.29830  0.62670  0.36300  1.0000 0.1199271387
H   H60       1.0  0.97810  0.29190  0.40670  1.0000 0.1199271387
H   H61       1.0  0.31530  0.52670  0.37030  1.0000 0.1199271387
H   H62       1.0  0.37150  0.46230  0.43420  1.0000 0.1475893068
H   H63       1.0  0.15020  0.25620  0.59110  1.0000 0.140307074
H   H64       1.0  0.08770  0.31430  0.52420  1.0000 0.1114500608
H   H65       1.0  0.02950  0.67510  0.22030  1.0000 0.140307074
H   H66       1.0  0.07930  0.78730  0.10010  1.0000 0.140307074
H   H67       1.0  0.12530  0.67410  0.03930  1.0000 0.1299560519
H   H68       1.0  0.07140  0.55780  0.15740  1.0000 0.140307074
H   H69       1.0  0.26840  0.86820  0.96820  1.0000 0.1199271387
H   H70       1.0  0.33333  0.99613  0.85530  1.0000 0.1199271387
H   H71       1.0  0.08890  0.92110  0.84420  1.0000 0.140307074
H   H72       1.0  0.03580  0.80360  0.96360  1.0000 0.1299560519
H   H73       1.0  0.46180  0.82800  0.29230  1.0000 0.1299560519
H   H74       1.0  0.39100  0.69720  0.23410  1.0000 0.140307074
H   H75       1.0  0.38520  0.83500  0.02060  1.0000 0.1114500608
H   H76       1.0  0.45250  0.68890  0.15480  1.0000 0.140307074
H   H77       1.0  0.47690  0.98010  0.07750  1.0000 0.1299560519
H   H78       1.0  0.40200  0.57300  0.09570  1.0000 0.140307074
H   H79       1.0  0.16240  0.50340  0.94590  1.0000 0.1199271387
H   H80       1.0  0.21850  0.62570  0.00330  1.0000 0.1199271387
H   H81       1.0  0.33080  0.90320  0.15910  1.0000 0.1299560519
H   H82       1.0  0.66600  0.22000  0.20150  1.0000 0.1299560519
H   H83       1.0  0.62670  0.29830  0.13700  1.0000 0.1199271387
H   H84       1.0  0.29190  0.97810  0.09330  1.0000 0.1199271387
H   H85       1.0  0.52670  0.31530  0.12970  1.0000 0.1199271387
H   H86       1.0  0.46230  0.37150  0.06580  1.0000 0.1475893068
H   H87       1.0  0.25620  0.15020  0.90890  1.0000 0.140307074
H   H88       1.0  0.31430  0.08770  0.97580  1.0000 0.1114500608
H   H89       1.0  0.67510  0.02950  0.27970  1.0000 0.140307074
H   H90       1.0  0.78730  0.07930  0.39990  1.0000 0.140307074
H   H91       1.0  0.67410  0.12530  0.46070  1.0000 0.1299560519
H   H92       1.0  0.55780  0.07140  0.34260  1.0000 0.140307074
H   H93       1.0  0.86820  0.26840  0.53180  1.0000 0.1199271387
H   H94       1.0  0.99613  0.33333  0.64470  1.0000 0.1199271387
H   H95       1.0  0.92110  0.08890  0.65580  1.0000 0.140307074
H   H96       1.0  0.80360  0.03580  0.53640  1.0000 0.1299560519
C   C1        1.0  0.07940  0.52100  0.69040  1.0000 0.176447771
C   C2        1.0  0.16690  0.54910  0.73740  1.0000 -0.1515444074
C   C3        1.0  0.24690  0.59370  0.70160  1.0000 -0.1021072869
C   C4        1.0  0.24810  0.61670  0.62040  1.0000 0.064479671
C   C5        1.0  0.16420  0.59460  0.57530  1.0000 -0.1410101418
C   C6        1.0  0.34820  0.60580  0.61180  1.0000 -0.1116100852
C   C7        1.0  0.33040  0.65840  0.58540  1.0000 0.0784833203
C   C8        1.0  0.07890  0.54310  0.60990  1.0000 -0.1794570205
C   C9        1.0  0.41690  0.63510  0.57680  1.0000 -0.0692893765
C   C10       1.0  0.45730  0.77730  0.48750  1.0000 -0.0903448812
C   C11       1.0  0.47250  0.72250  0.51260  1.0000 -0.0305769099
C   C12       1.0  0.38530  0.74510  0.52230  1.0000 -0.1410101418
C   C13       1.0  0.54020  0.74980  0.47050  1.0000 0.5417152863
C   C14       1.0  0.01640  0.60860  0.65410  1.0000 -0.1410101418
C   C15       1.0  0.82850  0.40990  0.67960  1.0000 -0.1656244774
C   C16       1.0  0.94830  0.49970  0.68650  1.0000 0.1551283668
C   C17       1.0  0.78180  0.43360  0.64040  1.0000 -0.1181456898
C   C18       1.0  0.85210  0.54570  0.60570  1.0000 0.097637543
C   C19       1.0  0.97200  0.63200  0.61520  1.0000 -0.1021072869
C   C20       1.0  0.80630  0.57570  0.56180  1.0000 0.064479671
C   C21       1.0  0.72130  0.53070  0.58640  1.0000 -0.1116100852
C   C22       1.0  0.68650  0.56870  0.54790  1.0000 -0.0575084831
C   C23       1.0  0.74000  0.65200  0.48390  1.0000 0.0038063427
C   C24       1.0  0.81850  0.69150  0.45510  1.0000 -0.0816971068
C   C25       1.0  0.85590  0.65610  0.49470  1.0000 -0.1265820698
C   C26       1.0  0.70790  0.69810  0.44430  1.0000 0.5675022001
C   C27       1.0  0.95750  0.39750  0.79960  1.0000 0.1659851293
C   C28       1.0  0.95290  0.32690  0.81680  1.0000 -0.1410101418
C   C29       1.0  0.92250  0.25930  0.88870  1.0000 -0.1116100852
C   C30       1.0  0.89450  0.25870  0.94460  1.0000 0.0716082431
C   C31       1.0  0.89600  0.32680  0.92470  1.0000 -0.1410101418
C   C32       1.0  0.92750  0.39610  0.85380  1.0000 -0.1623945223
C   C33       1.0  0.85750  0.18070  0.02200  1.0000 0.0716082431
C   C34       1.0  0.76750  0.12030  0.05610  1.0000 -0.1623945223
C   C35       1.0  0.72880  0.04460  0.12400  1.0000 -0.0903448812
C   C36       1.0  0.78380  0.03000  0.16080  1.0000 -0.0159813771
C   C37       1.0  0.87280  0.08760  0.13000  1.0000 -0.0692893765
C   C38       1.0  0.90600  0.16020  0.05920  1.0000 -0.1265820698
C   C39       1.0  0.74090  0.94750  0.23550  1.0000 0.5675022001
C   C40       1.0  0.52100  0.07940  0.80960  1.0000 0.176447771
C   C41       1.0  0.54910  0.16690  0.76260  1.0000 -0.1515444074
C   C42       1.0  0.59370  0.24690  0.79840  1.0000 -0.1021072869
C   C43       1.0  0.61670  0.24810  0.87960  1.0000 0.064479671
C   C44       1.0  0.59460  0.16420  0.92470  1.0000 -0.1410101418
C   C45       1.0  0.60580  0.34820  0.88820  1.0000 -0.1116100852
C   C46       1.0  0.65840  0.33040  0.91460  1.0000 0.0784833203
C   C47       1.0  0.54310  0.07890  0.89010  1.0000 -0.1794570205
C   C48       1.0  0.63510  0.41690  0.92320  1.0000 -0.0692893765
C   C49       1.0  0.77730  0.45730  0.01250  1.0000 -0.0903448812
C   C50       1.0  0.72250  0.47250  0.98740  1.0000 -0.0305769099
C   C51       1.0  0.74510  0.38530  0.97770  1.0000 -0.1410101418
C   C52       1.0  0.74980  0.54020  0.02950  1.0000 0.5417152863
C   C53       1.0  0.60860  0.01640  0.84590  1.0000 -0.1410101418
C   C54       1.0  0.40990  0.82850  0.82040  1.0000 -0.1656244774
C   C55       1.0  0.49970  0.94830  0.81350  1.0000 0.1551283668
C   C56       1.0  0.43360  0.78180  0.85960  1.0000 -0.1181456898
C   C57       1.0  0.54570  0.85210  0.89430  1.0000 0.097637543
C   C58       1.0  0.63200  0.97200  0.88480  1.0000 -0.1021072869
C   C59       1.0  0.57570  0.80630  0.93820  1.0000 0.064479671
C   C60       1.0  0.53070  0.72130  0.91360  1.0000 -0.1116100852
C   C61       1.0  0.56870  0.68650  0.95210  1.0000 -0.0575084831
C   C62       1.0  0.65200  0.74000  0.01610  1.0000 0.0038063427
C   C63       1.0  0.69150  0.81850  0.04490  1.0000 -0.0816971068
C   C64       1.0  0.65610  0.85590  0.00530  1.0000 -0.1265820698
C   C65       1.0  0.69810  0.70790  0.05570  1.0000 0.5675022001
C   C66       1.0  0.39750  0.95750  0.70040  1.0000 0.1659851293
C   C67       1.0  0.32690  0.95290  0.68320  1.0000 -0.1410101418
C   C68       1.0  0.25930  0.92250  0.61130  1.0000 -0.1116100852
C   C69       1.0  0.25870  0.89450  0.55540  1.0000 0.0716082431
C   C70       1.0  0.32680  0.89600  0.57530  1.0000 -0.1410101418
C   C71       1.0  0.39610  0.92750  0.64620  1.0000 -0.1623945223
C   C72       1.0  0.18070  0.85750  0.47800  1.0000 0.0716082431
C   C73       1.0  0.12030  0.76750  0.44390  1.0000 -0.1623945223
C   C74       1.0  0.04460  0.72880  0.37600  1.0000 -0.0903448812
C   C75       1.0  0.03000  0.78380  0.33920  1.0000 -0.0159813771
C   C76       1.0  0.08760  0.87280  0.37000  1.0000 -0.0692893765
C   C77       1.0  0.16020  0.90600  0.44080  1.0000 -0.1265820698
C   C78       1.0  0.94750  0.74090  0.26450  1.0000 0.5675022001
C   C79       1.0  0.92060  0.47900  0.30960  1.0000 0.176447771
C   C80       1.0  0.83310  0.45090  0.26260  1.0000 -0.1515444074
C   C81       1.0  0.75310  0.40630  0.29840  1.0000 -0.1021072869
C   C82       1.0  0.75190  0.38330  0.37960  1.0000 0.064479671
C   C83       1.0  0.83580  0.40540  0.42470  1.0000 -0.1410101418
C   C84       1.0  0.65180  0.39420  0.38820  1.0000 -0.1116100852
C   C85       1.0  0.66960  0.34160  0.41460  1.0000 0.0784833203
C   C86       1.0  0.92110  0.45690  0.39010  1.0000 -0.1794570205
C   C87       1.0  0.58310  0.36490  0.42320  1.0000 -0.0692893765
C   C88       1.0  0.54270  0.22270  0.51250  1.0000 -0.0903448812
C   C89       1.0  0.52750  0.27750  0.48740  1.0000 -0.0305769099
C   C90       1.0  0.61470  0.25490  0.47770  1.0000 -0.1410101418
C   C91       1.0  0.45980  0.25020  0.52950  1.0000 0.5417152863
C   C92       1.0  0.98360  0.39140  0.34590  1.0000 -0.1410101418
C   C93       1.0  0.17150  0.59010  0.32040  1.0000 -0.1656244774
C   C94       1.0  0.05170  0.50030  0.31350  1.0000 0.1551283668
C   C95       1.0  0.21820  0.56640  0.35960  1.0000 -0.1181456898
C   C96       1.0  0.14790  0.45430  0.39430  1.0000 0.097637543
C   C97       1.0  0.02800  0.36800  0.38480  1.0000 -0.1021072869
C   C98       1.0  0.19370  0.42430  0.43820  1.0000 0.064479671
C   C99       1.0  0.27870  0.46930  0.41360  1.0000 -0.1116100852
C   C100      1.0  0.31350  0.43130  0.45210  1.0000 -0.0575084831
C   C101      1.0  0.26000  0.34800  0.51610  1.0000 0.0038063427
C   C102      1.0  0.18150  0.30850  0.54490  1.0000 -0.0816971068
C   C103      1.0  0.14410  0.34390  0.50530  1.0000 -0.1265820698
C   C104      1.0  0.29210  0.30190  0.55570  1.0000 0.5675022001
C   C105      1.0  0.04250  0.60250  0.20040  1.0000 0.1659851293
C   C106      1.0  0.04710  0.67310  0.18320  1.0000 -0.1410101418
C   C107      1.0  0.07750  0.74070  0.11130  1.0000 -0.1116100852
C   C108      1.0  0.10550  0.74130  0.05540  1.0000 0.0716082431
C   C109      1.0  0.10400  0.67320  0.07530  1.0000 -0.1410101418
C   C110      1.0  0.07250  0.60390  0.14620  1.0000 -0.1623945223
C   C111      1.0  0.14250  0.81930  0.97800  1.0000 0.0716082431
C   C112      1.0  0.23250  0.87970  0.94390  1.0000 -0.1623945223
C   C113      1.0  0.27120  0.95540  0.87600  1.0000 -0.0903448812
C   C114      1.0  0.21620  0.97000  0.83920  1.0000 -0.0159813771
C   C115      1.0  0.12720  0.91240  0.87000  1.0000 -0.0692893765
C   C116      1.0  0.09400  0.83980  0.94080  1.0000 -0.1265820698
C   C117      1.0  0.25910  0.05250  0.76450  1.0000 0.5675022001
C   C118      1.0  0.47900  0.92060  0.19040  1.0000 0.176447771
C   C119      1.0  0.45090  0.83310  0.23740  1.0000 -0.1515444074
C   C120      1.0  0.40630  0.75310  0.20160  1.0000 -0.1021072869
C   C121      1.0  0.38330  0.75190  0.12040  1.0000 0.064479671
C   C122      1.0  0.40540  0.83580  0.07530  1.0000 -0.1410101418
C   C123      1.0  0.39420  0.65180  0.11180  1.0000 -0.1116100852
C   C124      1.0  0.34160  0.66960  0.08540  1.0000 0.0784833203
C   C125      1.0  0.45690  0.92110  0.10990  1.0000 -0.1794570205
C   C126      1.0  0.36490  0.58310  0.07680  1.0000 -0.0692893765
C   C127      1.0  0.22270  0.54270  0.98750  1.0000 -0.0903448812
C   C128      1.0  0.27750  0.52750  0.01260  1.0000 -0.0305769099
C   C129      1.0  0.25490  0.61470  0.02230  1.0000 -0.1410101418
C   C130      1.0  0.25020  0.45980  0.97050  1.0000 0.5417152863
C   C131      1.0  0.39140  0.98360  0.15410  1.0000 -0.1410101418
C   C132      1.0  0.59010  0.17150  0.17960  1.0000 -0.1623945223
C   C133      1.0  0.50030  0.05170  0.18650  1.0000 0.1551283668
C   C134      1.0  0.56640  0.21820  0.14040  1.0000 -0.1181456898
C   C135      1.0  0.45430  0.14790  0.10570  1.0000 0.097637543
C   C136      1.0  0.36800  0.02800  0.11520  1.0000 -0.1021072869
C   C137      1.0  0.42430  0.19370  0.06180  1.0000 0.064479671
C   C138      1.0  0.46930  0.27870  0.08640  1.0000 -0.1116100852
C   C139      1.0  0.43130  0.31350  0.04790  1.0000 -0.0575084831
C   C140      1.0  0.34800  0.26000  0.98390  1.0000 0.0038063427
C   C141      1.0  0.30850  0.18150  0.95510  1.0000 -0.0816971068
C   C142      1.0  0.34390  0.14410  0.99470  1.0000 -0.1265820698
C   C143      1.0  0.30190  0.29210  0.94430  1.0000 0.5675022001
C   C144      1.0  0.60250  0.04250  0.29960  1.0000 0.1659851293
C   C145      1.0  0.67310  0.04710  0.31680  1.0000 -0.1410101418
C   C146      1.0  0.74070  0.07750  0.38870  1.0000 -0.1116100852
C   C147      1.0  0.74130  0.10550  0.44460  1.0000 0.0716082431
C   C148      1.0  0.67320  0.10400  0.42470  1.0000 -0.1410101418
C   C149      1.0  0.60390  0.07250  0.35380  1.0000 -0.1623945223
C   C150      1.0  0.81930  0.14250  0.52200  1.0000 0.0716082431
C   C151      1.0  0.87970  0.23250  0.55610  1.0000 -0.1623945223
C   C152      1.0  0.95540  0.27120  0.62400  1.0000 -0.0903448812
C   C153      1.0  0.97000  0.21620  0.66080  1.0000 -0.0159813771
C   C154      1.0  0.91240  0.12720  0.63000  1.0000 -0.0692893765
C   C155      1.0  0.83980  0.09400  0.55920  1.0000 -0.1265820698
C   C156      1.0  0.05250  0.25910  0.73550  1.0000 0.5675022001
N   N1        1.0  0.99450  0.47090  0.72640  1.0000 -0.1623945223
N   N2        1.0  0.47090  0.99450  0.77360  1.0000 -0.1623945223
N   N3        1.0  0.00550  0.52910  0.27360  1.0000 -0.1623945223
N   N4        1.0  0.52910  0.00550  0.22640  1.0000 -0.1623945223
N   N5        1.0  0.08550  0.30850  0.24200  1.0000 0.7809940647
N   N6        1.0  0.30850  0.08550  0.25800  1.0000 0.7809940647
N   N7        1.0  0.91450  0.69150  0.75800  1.0000 0.7809940647
N   N8        1.0  0.69150  0.91450  0.74200  1.0000 0.7809940647
O   O1        1.0  0.57010  0.71550  0.49760  1.0000 -0.4747138252
O   O2        1.0  0.56450  0.80570  0.40190  1.0000 -0.5510193114
O   O3        1.0  0.52900  0.67160  0.33380  1.0000 -0.6415973683
O   O4        1.0  0.78510  0.91610  0.42680  1.0000 -0.5202582483
O   O5        1.0  0.75010  0.76890  0.38210  1.0000 -0.5381245319
O   O6        1.0  0.77120  0.91280  0.26430  1.0000 -0.5122098853
O   O7        1.0  0.67930  0.91770  0.27310  1.0000 -0.5510193114
O   O8        1.0  0.65050  0.67570  0.48100  1.0000 -0.5202582483
O   O9        1.0  0.71550  0.57010  0.00240  1.0000 -0.4747138252
O   O10       1.0  0.80570  0.56450  0.09810  1.0000 -0.5510193114
O   O11       1.0  0.67160  0.52900  0.16620  1.0000 -0.6415973683
O   O12       1.0  0.91610  0.78510  0.07320  1.0000 -0.5202582483
O   O13       1.0  0.76890  0.75010  0.11790  1.0000 -0.5381245319
O   O14       1.0  0.91280  0.77120  0.23570  1.0000 -0.5122098853
O   O15       1.0  0.91770  0.67930  0.22690  1.0000 -0.5510193114
O   O16       1.0  0.67570  0.65050  0.01900  1.0000 -0.5202582483
O   O17       1.0  0.42990  0.28450  0.50240  1.0000 -0.4747138252
O   O18       1.0  0.43550  0.19430  0.59810  1.0000 -0.5510193114
O   O19       1.0  0.47100  0.32840  0.66620  1.0000 -0.6415973683
O   O20       1.0  0.21490  0.08390  0.57320  1.0000 -0.5202582483
O   O21       1.0  0.24990  0.23110  0.61790  1.0000 -0.5381245319
O   O22       1.0  0.22880  0.08720  0.73570  1.0000 -0.5122098853
O   O23       1.0  0.32070  0.08230  0.72690  1.0000 -0.5510193114
O   O24       1.0  0.34950  0.32430  0.51900  1.0000 -0.5202582483
O   O25       1.0  0.28450  0.42990  0.99760  1.0000 -0.4747138252
O   O26       1.0  0.19430  0.43550  0.90190  1.0000 -0.5510193114
O   O27       1.0  0.32840  0.47100  0.83380  1.0000 -0.6415973683
O   O28       1.0  0.08390  0.21490  0.92680  1.0000 -0.5202582483
O   O29       1.0  0.23110  0.24990  0.88210  1.0000 -0.5381245319
O   O30       1.0  0.08720  0.22880  0.76430  1.0000 -0.5122098853
O   O31       1.0  0.08230  0.32070  0.77310  1.0000 -0.5510193114
O   O32       1.0  0.32430  0.34950  0.98100  1.0000 -0.5202582483
O   O33       1.0  0.01760  0.20640  0.31200  1.0000 -0.4230120112
O   O34       1.0  0.05370  0.35630  0.20600  1.0000 -0.5381245319
O   O35       1.0  0.15980  0.31620  0.23400  1.0000 -0.4042409141
O   O36       1.0  0.20640  0.01760  0.18800  1.0000 -0.4230120112
O   O37       1.0  0.35630  0.05370  0.29400  1.0000 -0.5381245319
O   O38       1.0  0.31620  0.15980  0.26600  1.0000 -0.4042409141
O   O39       1.0  0.98240  0.79360  0.68800  1.0000 -0.4230120112
O   O40       1.0  0.94630  0.64370  0.79400  1.0000 -0.5381245319
O   O41       1.0  0.84020  0.68380  0.76600  1.0000 -0.4042409141
O   O42       1.0  0.79360  0.98240  0.81200  1.0000 -0.4230120112
O   O43       1.0  0.64370  0.94630  0.70600  1.0000 -0.5381245319
O   O44       1.0  0.68380  0.84020  0.73400  1.0000 -0.4042409141
