# DDEC6 charges by PACMAN v1.1 (https://github.com/mtap-research/PACMAN-charge/)
data_2018[Cu][ths]3[ION]2
_chemical_formula_sum              "Cu8 H64 C48 N4 O48"
_cell_length_a       8.5956
_cell_length_b       34.1564
_cell_length_c       8.6926
_cell_angle_alpha    90
_cell_angle_beta     107.603
_cell_angle_gamma    90

_symmetry_space_group_name_H-M    "P 1"
_symmetry_Int_Tables_number       1

loop_
  _symmetry_equiv_pos_as_xyz
  'x, y, z'

loop_
  _atom_site_type_symbol
  _atom_site_label
  _atom_site_symmetry_multiplicity
  _atom_site_fract_x
  _atom_site_fract_y
  _atom_site_fract_z
  _atom_site_occupancy
  _atom_site_charge
Cu  Cu1       1.0  0.52101  0.79656  0.25159  1.0000 0.9068341419
Cu  Cu2       1.0  0.97899  0.29656  0.74841  1.0000 0.9024523263
Cu  Cu3       1.0  0.47899  0.20344  0.74841  1.0000 0.9024523263
Cu  Cu4       1.0  0.02101  0.70344  0.25159  1.0000 0.9024523263
Cu  Cu5       1.0  0.50171  0.95447  0.26233  1.0000 0.8728772864
Cu  Cu6       1.0  0.99829  0.45447  0.73767  1.0000 0.8728772864
Cu  Cu7       1.0  0.49829  0.04553  0.73767  1.0000 0.8728772864
Cu  Cu8       1.0  0.00171  0.54553  0.26233  1.0000 0.8728772864
H   H1        1.0  0.29460  0.56650  0.08700  1.0000 0.266860561
H   H2        1.0  0.27520  0.62910  0.99890  1.0000 0.1087355225
H   H3        1.0  0.32570  0.63000  0.19150  1.0000 0.1087355225
H   H4        1.0  0.47560  0.67690  0.09950  1.0000 0.1651654854
H   H5        1.0  0.54690  0.64350  0.01020  1.0000 0.1490723624
H   H6        1.0  0.59740  0.64450  0.20310  1.0000 0.1490723624
H   H7        1.0  0.57670  0.57820  0.98870  1.0000 0.1171025537
H   H8        1.0  0.47980  0.53780  0.97800  1.0000 0.1087355225
H   H9        1.0  0.40870  0.56800  0.72430  1.0000 0.1490723624
H   H10       1.0  0.34850  0.60610  0.79700  1.0000 0.138952186
H   H11       1.0  0.25160  0.56570  0.78630  1.0000 0.1490723624
H   H12       1.0  0.62020  0.57820  0.28440  1.0000 0.1171025537
H   H13       1.0  0.46670  0.58060  0.35180  1.0000 0.1171025537
H   H14       1.0  0.58530  0.51830  0.40090  1.0000 0.1490723624
H   H15       1.0  0.55780  0.51230  0.21200  1.0000 0.138952186
H   H16       1.0  0.40420  0.51470  0.27940  1.0000 0.1490723624
H   H17       1.0  0.20540  0.06650  0.91300  1.0000 0.266860561
H   H18       1.0  0.22480  0.12910  0.00110  1.0000 0.1087355225
H   H19       1.0  0.17430  0.13000  0.80850  1.0000 0.1087355225
H   H20       1.0  0.02440  0.17690  0.90050  1.0000 0.1644531652
H   H21       1.0  0.95310  0.14350  0.98980  1.0000 0.1490723624
H   H22       1.0  0.90260  0.14450  0.79690  1.0000 0.1490723624
H   H23       1.0  0.92330  0.07820  0.01130  1.0000 0.1171025537
H   H24       1.0  0.02020  0.03780  0.02200  1.0000 0.1087355225
H   H25       1.0  0.09130  0.06800  0.27570  1.0000 0.1490723624
H   H26       1.0  0.15150  0.10610  0.20300  1.0000 0.138952186
H   H27       1.0  0.24840  0.06570  0.21370  1.0000 0.1490723624
H   H28       1.0  0.87980  0.07820  0.71560  1.0000 0.1171025537
H   H29       1.0  0.03330  0.08060  0.64820  1.0000 0.1171025537
H   H30       1.0  0.91470  0.01830  0.59910  1.0000 0.1490723624
H   H31       1.0  0.94220  0.01230  0.78800  1.0000 0.138952186
H   H32       1.0  0.09580  0.01470  0.72060  1.0000 0.1490723624
H   H33       1.0  0.70540  0.43350  0.91300  1.0000 0.266860561
H   H34       1.0  0.72480  0.37090  0.00110  1.0000 0.1087355225
H   H35       1.0  0.67430  0.37000  0.80850  1.0000 0.1087355225
H   H36       1.0  0.52440  0.32310  0.90050  1.0000 0.1644531652
H   H37       1.0  0.45310  0.35650  0.98980  1.0000 0.1490723624
H   H38       1.0  0.40260  0.35550  0.79690  1.0000 0.1490723624
H   H39       1.0  0.42330  0.42180  0.01130  1.0000 0.1171025537
H   H40       1.0  0.52020  0.46220  0.02200  1.0000 0.1087355225
H   H41       1.0  0.59130  0.43200  0.27570  1.0000 0.1490723624
H   H42       1.0  0.65150  0.39390  0.20300  1.0000 0.138952186
H   H43       1.0  0.74840  0.43430  0.21370  1.0000 0.1490723624
H   H44       1.0  0.37980  0.42180  0.71560  1.0000 0.1171025537
H   H45       1.0  0.53330  0.41940  0.64820  1.0000 0.1171025537
H   H46       1.0  0.41470  0.48170  0.59910  1.0000 0.1490723624
H   H47       1.0  0.44220  0.48770  0.78800  1.0000 0.138952186
H   H48       1.0  0.59580  0.48530  0.72060  1.0000 0.1490723624
H   H49       1.0  0.79460  0.93350  0.08700  1.0000 0.266860561
H   H50       1.0  0.77520  0.87090  0.99890  1.0000 0.1087355225
H   H51       1.0  0.82570  0.87000  0.19150  1.0000 0.1087355225
H   H52       1.0  0.97560  0.82310  0.09950  1.0000 0.1651654854
H   H53       1.0  0.04690  0.85650  0.01020  1.0000 0.1490723624
H   H54       1.0  0.09740  0.85550  0.20310  1.0000 0.1490723624
H   H55       1.0  0.07670  0.92180  0.98870  1.0000 0.1171025537
H   H56       1.0  0.97980  0.96220  0.97800  1.0000 0.1087355225
H   H57       1.0  0.90870  0.93200  0.72430  1.0000 0.1490723624
H   H58       1.0  0.84850  0.89390  0.79700  1.0000 0.138952186
H   H59       1.0  0.75160  0.93430  0.78630  1.0000 0.1490723624
H   H60       1.0  0.12020  0.92180  0.28440  1.0000 0.1171025537
H   H61       1.0  0.96670  0.91940  0.35180  1.0000 0.1171025537
H   H62       1.0  0.08530  0.98170  0.40090  1.0000 0.1490723624
H   H63       1.0  0.05780  0.98770  0.21200  1.0000 0.138952186
H   H64       1.0  0.90420  0.98530  0.27940  1.0000 0.1490723624
C   C1        1.0  0.43850  0.87683  0.18230  1.0000 0.4602980405
C   C2        1.0  0.06150  0.37683  0.81770  1.0000 0.4602980405
C   C3        1.0  0.56150  0.12317  0.81770  1.0000 0.4602980405
C   C4        1.0  0.93850  0.62317  0.18230  1.0000 0.4602980405
C   C5        1.0  0.59600  0.87408  0.33070  1.0000 0.4602980405
C   C6        1.0  0.90400  0.37408  0.66930  1.0000 0.4602980405
C   C7        1.0  0.40400  0.12592  0.66930  1.0000 0.4602980405
C   C8        1.0  0.09600  0.62592  0.33070  1.0000 0.4602980405
C   C9        1.0  0.28280  0.74137  0.18980  1.0000 0.4690222407
C   C10       1.0  0.21720  0.24137  0.81020  1.0000 0.4690222407
C   C11       1.0  0.71720  0.25863  0.81020  1.0000 0.4690222407
C   C12       1.0  0.78280  0.75863  0.18980  1.0000 0.4690222407
C   C13       1.0  0.27010  0.76396  0.34090  1.0000 0.4690222407
C   C14       1.0  0.22990  0.26396  0.65910  1.0000 0.4690222407
C   C15       1.0  0.72990  0.23604  0.65910  1.0000 0.4690222407
C   C16       1.0  0.77010  0.73604  0.34090  1.0000 0.4690222407
C   C17       1.0  0.57870  0.98858  0.00020  1.0000 0.4690222407
C   C18       1.0  0.92130  0.48858  0.99980  1.0000 0.4690222407
C   C19       1.0  0.42130  0.01142  0.99980  1.0000 0.4690222407
C   C20       1.0  0.07870  0.51142  0.00020  1.0000 0.4690222407
C   C21       1.0  0.43100  0.98769  0.51530  1.0000 0.4541499481
C   C22       1.0  0.06900  0.48769  0.48470  1.0000 0.4541499481
C   C23       1.0  0.56900  0.01231  0.48470  1.0000 0.4541499481
C   C24       1.0  0.93100  0.51231  0.51530  1.0000 0.4541499481
C   C25       1.0  0.36480  0.62336  0.09870  1.0000 -0.0284359822
C   C26       1.0  0.50890  0.64937  0.10330  1.0000 -0.3898434549
C   C27       1.0  0.46710  0.56666  0.97160  1.0000 -0.0284359822
C   C28       1.0  0.35960  0.57757  0.80520  1.0000 -0.3986950465
C   C29       1.0  0.50830  0.56830  0.26880  1.0000 -0.0284359822
C   C30       1.0  0.51440  0.52458  0.29230  1.0000 -0.3986950465
C   C31       1.0  0.13520  0.12336  0.90130  1.0000 -0.0284359822
C   C32       1.0  0.99110  0.14937  0.89670  1.0000 -0.3898434549
C   C33       1.0  0.03290  0.06666  0.02840  1.0000 -0.0284359822
C   C34       1.0  0.14040  0.07757  0.19480  1.0000 -0.3986950465
C   C35       1.0  0.99170  0.06830  0.73120  1.0000 -0.0284359822
C   C36       1.0  0.98560  0.02458  0.70770  1.0000 -0.3986950465
C   C37       1.0  0.63520  0.37664  0.90130  1.0000 -0.0284359822
C   C38       1.0  0.49110  0.35063  0.89670  1.0000 -0.3898434549
C   C39       1.0  0.53290  0.43334  0.02840  1.0000 -0.0284359822
C   C40       1.0  0.64040  0.42243  0.19480  1.0000 -0.3986950465
C   C41       1.0  0.49170  0.43170  0.73120  1.0000 -0.0284359822
C   C42       1.0  0.48560  0.47542  0.70770  1.0000 -0.3986950465
C   C43       1.0  0.86480  0.87664  0.09870  1.0000 -0.0284359822
C   C44       1.0  0.00890  0.85063  0.10330  1.0000 -0.3898434549
C   C45       1.0  0.96710  0.93334  0.97160  1.0000 -0.0284359822
C   C46       1.0  0.85960  0.92243  0.80520  1.0000 -0.3986950465
C   C47       1.0  0.00830  0.93170  0.26880  1.0000 -0.0284359822
C   C48       1.0  0.01440  0.97542  0.29230  1.0000 -0.3986950465
N   N1        1.0  0.40120  0.58022  0.10400  1.0000 -0.0224953502
N   N2        1.0  0.09880  0.08022  0.89600  1.0000 -0.0224953502
N   N3        1.0  0.59880  0.41978  0.89600  1.0000 -0.0224953502
N   N4        1.0  0.90120  0.91978  0.10400  1.0000 -0.0224953502
O   O1        1.0  0.39038  0.84647  0.10402  1.0000 -0.4676706627
O   O2        1.0  0.10962  0.34647  0.89598  1.0000 -0.4676706627
O   O3        1.0  0.60962  0.15353  0.89598  1.0000 -0.4676706627
O   O4        1.0  0.89038  0.65353  0.10402  1.0000 -0.4676706627
O   O5        1.0  0.37163  0.90996  0.15257  1.0000 -0.4614405617
O   O6        1.0  0.12837  0.40996  0.84743  1.0000 -0.4614405617
O   O7        1.0  0.62837  0.09004  0.84743  1.0000 -0.4614405617
O   O8        1.0  0.87163  0.59004  0.15257  1.0000 -0.4614405617
O   O9        1.0  0.64291  0.83998  0.37938  1.0000 -0.4494896293
O   O10       1.0  0.85709  0.33998  0.62062  1.0000 -0.4494896293
O   O11       1.0  0.35709  0.16002  0.62062  1.0000 -0.4494896293
O   O12       1.0  0.14291  0.66002  0.37938  1.0000 -0.4494896293
O   O13       1.0  0.66381  0.90492  0.38866  1.0000 -0.4981650492
O   O14       1.0  0.83619  0.40492  0.61134  1.0000 -0.4981650492
O   O15       1.0  0.33619  0.09508  0.61134  1.0000 -0.4981650492
O   O16       1.0  0.16381  0.59508  0.38866  1.0000 -0.4981650492
O   O17       1.0  0.36015  0.79424  0.37675  1.0000 -0.4614405617
O   O18       1.0  0.13985  0.29424  0.62325  1.0000 -0.4614405617
O   O19       1.0  0.63985  0.20576  0.62325  1.0000 -0.4614405617
O   O20       1.0  0.86015  0.70576  0.37675  1.0000 -0.4614405617
O   O21       1.0  0.17820  0.75187  0.41447  1.0000 -0.4327202805
O   O22       1.0  0.32180  0.25187  0.58553  1.0000 -0.4327202805
O   O23       1.0  0.82180  0.24813  0.58553  1.0000 -0.4327202805
O   O24       1.0  0.67820  0.74813  0.41447  1.0000 -0.4327202805
O   O25       1.0  0.38684  0.75367  0.12642  1.0000 -0.4352567926
O   O26       1.0  0.11316  0.25367  0.87358  1.0000 -0.4352567926
O   O27       1.0  0.61316  0.24633  0.87358  1.0000 -0.4352567926
O   O28       1.0  0.88684  0.74633  0.12642  1.0000 -0.4327202805
O   O29       1.0  0.19203  0.71244  0.14252  1.0000 -0.4327202805
O   O30       1.0  0.30797  0.21244  0.85748  1.0000 -0.4327202805
O   O31       1.0  0.80797  0.28756  0.85748  1.0000 -0.4327202805
O   O32       1.0  0.69203  0.78756  0.14252  1.0000 -0.4327202805
O   O33       1.0  0.61449  0.95906  0.09449  1.0000 -0.4981650492
O   O34       1.0  0.88551  0.45906  0.90551  1.0000 -0.4981650492
O   O35       1.0  0.38551  0.04094  0.90551  1.0000 -0.4981650492
O   O36       1.0  0.11449  0.54094  0.09449  1.0000 -0.4981650492
O   O37       1.0  0.65793  0.99979  0.91179  1.0000 -0.4981650492
O   O38       1.0  0.84207  0.49979  0.08821  1.0000 -0.4981650492
O   O39       1.0  0.34207  0.00021  0.08821  1.0000 -0.4981650492
O   O40       1.0  0.15793  0.50021  0.91179  1.0000 -0.4949396685
O   O41       1.0  0.38766  0.95763  0.43055  1.0000 -0.4494896293
O   O42       1.0  0.11234  0.45763  0.56945  1.0000 -0.4494896293
O   O43       1.0  0.61234  0.04237  0.56945  1.0000 -0.4494896293
O   O44       1.0  0.88766  0.54237  0.43055  1.0000 -0.4494896293
O   O45       1.0  0.37220  0.99981  0.62207  1.0000 -0.4614405617
O   O46       1.0  0.12780  0.49981  0.37793  1.0000 -0.4614405617
O   O47       1.0  0.62780  0.00019  0.37793  1.0000 -0.4614405617
O   O48       1.0  0.87220  0.50019  0.62207  1.0000 -0.4614405617
