# DDEC6 charges by PACMAN v1.1 (https://github.com/mtap-research/PACMAN-charge/)
data_2018[Ag][sql]2[ION]1
_chemical_formula_sum              "Ag8 B4 H128 C152 N64 F24"
_cell_length_a       16.5732
_cell_length_b       21.1425
_cell_length_c       21.5501
_cell_angle_alpha    90
_cell_angle_beta     128.943
_cell_angle_gamma    90

_symmetry_space_group_name_H-M    "P 1"
_symmetry_Int_Tables_number       1

loop_
  _symmetry_equiv_pos_as_xyz
  'x, y, z'

loop_
  _atom_site_type_symbol
  _atom_site_label
  _atom_site_symmetry_multiplicity
  _atom_site_fract_x
  _atom_site_fract_y
  _atom_site_fract_z
  _atom_site_occupancy
  _atom_site_charge
Ag  Ag1       1.0  0.99819  0.26979  0.28987  1.0000 0.2756364324
Ag  Ag2       1.0  0.09633  0.32063  0.73300  1.0000 0.2672514298
Ag  Ag3       1.0  0.00181  0.76979  0.21013  1.0000 0.2756364324
Ag  Ag4       1.0  0.90367  0.82063  0.76700  1.0000 0.2672514298
Ag  Ag5       1.0  0.00181  0.73021  0.71013  1.0000 0.2756364324
Ag  Ag6       1.0  0.90367  0.67937  0.26700  1.0000 0.2672514298
Ag  Ag7       1.0  0.99819  0.23021  0.78987  1.0000 0.2756364324
Ag  Ag8       1.0  0.09633  0.17937  0.23300  1.0000 0.2672514298
B   B1        1.0  0.80110  0.47510  0.88270  1.0000 1.0306713261
B   B2        1.0  0.19890  0.97510  0.61730  1.0000 1.0306713261
B   B3        1.0  0.19890  0.52490  0.11730  1.0000 1.0306713261
B   B4        1.0  0.80110  0.02490  0.38270  1.0000 1.0306713261
H   H1        1.0  0.21970  0.19170  0.45030  1.0000 0.1198068938
H   H2        1.0  0.22110  0.13360  0.55190  1.0000 0.1389713296
H   H3        1.0  0.72730  0.18690  0.33400  1.0000 0.1389713296
H   H4        1.0  0.54900  0.20490  0.24970  1.0000 0.1198068938
H   H5        1.0  0.46650  0.27080  0.14230  1.0000 0.1097271765
H   H6        1.0  0.56840  0.33030  0.12230  1.0000 0.1198068938
H   H7        1.0  0.74100  0.30910  0.19380  1.0000 0.1297718488
H   H8        1.0  0.04070  0.08700  0.53070  1.0000 0.1389713296
H   H9        1.0  0.95190  0.14010  0.49040  1.0000 0.1297718488
H   H10       1.0  0.19900  0.10120  0.68050  1.0000 0.1389713296
H   H11       1.0  0.24150  0.17840  0.78520  1.0000 0.1198068938
H   H12       1.0  0.95190  0.42510  0.59010  1.0000 0.1297718488
H   H13       1.0  0.82040  0.49640  0.49680  1.0000 0.1097271765
H   H14       1.0  0.68040  0.45900  0.36950  1.0000 0.1198068938
H   H15       1.0  0.67000  0.35590  0.33800  1.0000 0.1198068938
H   H16       1.0  0.80010  0.28210  0.42800  1.0000 0.1198068938
H   H17       1.0  0.29420  0.41380  0.87750  1.0000 0.1297718488
H   H18       1.0  0.27690  0.49900  0.94780  1.0000 0.1297718488
H   H19       1.0  0.79860  0.42170  0.74780  1.0000 0.1297718488
H   H20       1.0  0.61990  0.40640  0.66900  1.0000 0.1097271765
H   H21       1.0  0.53310  0.34450  0.54930  1.0000 0.1097271765
H   H22       1.0  0.62690  0.30350  0.51470  1.0000 0.1198068938
H   H23       1.0  0.80010  0.31920  0.59000  1.0000 0.1198068938
H   H24       1.0  0.10330  0.51460  0.94880  1.0000 0.1389713296
H   H25       1.0  0.99770  0.51090  0.85850  1.0000 0.1297718488
H   H26       1.0  0.22470  0.61430  0.98840  1.0000 0.1389713296
H   H27       1.0  0.20810  0.71160  0.91700  1.0000 0.1198068938
H   H28       1.0  0.78410  0.66790  0.54050  1.0000 0.1297718488
H   H29       1.0  0.63110  0.62970  0.42170  1.0000 0.1198068938
H   H30       1.0  0.56000  0.53510  0.42270  1.0000 0.1198068938
H   H31       1.0  0.64430  0.47780  0.54000  1.0000 0.1198068938
H   H32       1.0  0.79680  0.51240  0.65680  1.0000 0.1198068938
H   H33       1.0  0.78030  0.69170  0.04970  1.0000 0.1198068938
H   H34       1.0  0.77890  0.63360  0.94810  1.0000 0.1389713296
H   H35       1.0  0.27270  0.68690  0.16600  1.0000 0.1389713296
H   H36       1.0  0.45100  0.70490  0.25030  1.0000 0.1198068938
H   H37       1.0  0.53350  0.77080  0.35770  1.0000 0.1097271765
H   H38       1.0  0.43160  0.83030  0.37770  1.0000 0.1198068938
H   H39       1.0  0.25900  0.80910  0.30620  1.0000 0.1297718488
H   H40       1.0  0.95930  0.58700  0.96930  1.0000 0.1389713296
H   H41       1.0  0.04810  0.64010  0.00960  1.0000 0.1297718488
H   H42       1.0  0.80100  0.60120  0.81950  1.0000 0.1389713296
H   H43       1.0  0.75850  0.67840  0.71480  1.0000 0.1198068938
H   H44       1.0  0.04810  0.92510  0.90990  1.0000 0.1297718488
H   H45       1.0  0.17960  0.99640  0.00320  1.0000 0.1097271765
H   H46       1.0  0.31960  0.95900  0.13050  1.0000 0.1198068938
H   H47       1.0  0.33000  0.85590  0.16200  1.0000 0.1198068938
H   H48       1.0  0.19990  0.78210  0.07200  1.0000 0.1198068938
H   H49       1.0  0.70580  0.91380  0.62250  1.0000 0.1297718488
H   H50       1.0  0.72310  0.99900  0.55220  1.0000 0.1297718488
H   H51       1.0  0.20140  0.92170  0.75220  1.0000 0.1297718488
H   H52       1.0  0.38010  0.90640  0.83100  1.0000 0.1097271765
H   H53       1.0  0.46690  0.84450  0.95070  1.0000 0.1097271765
H   H54       1.0  0.37310  0.80350  0.98530  1.0000 0.1198068938
H   H55       1.0  0.19990  0.81920  0.91000  1.0000 0.1198068938
H   H56       1.0  0.89670  0.01460  0.55120  1.0000 0.1389713296
H   H57       1.0  0.00230  0.01090  0.64150  1.0000 0.1297718488
H   H58       1.0  0.77530  0.11430  0.51160  1.0000 0.1389713296
H   H59       1.0  0.79190  0.21160  0.58300  1.0000 0.1198068938
H   H60       1.0  0.21590  0.16790  0.95950  1.0000 0.1297718488
H   H61       1.0  0.36890  0.12970  0.07830  1.0000 0.1198068938
H   H62       1.0  0.44000  0.03510  0.07730  1.0000 0.1198068938
H   H63       1.0  0.35570  0.97780  0.96000  1.0000 0.1198068938
H   H64       1.0  0.20320  0.01240  0.84320  1.0000 0.1198068938
H   H65       1.0  0.78030  0.80830  0.54970  1.0000 0.1198068938
H   H66       1.0  0.77890  0.86640  0.44810  1.0000 0.1389713296
H   H67       1.0  0.27270  0.81310  0.66600  1.0000 0.1389713296
H   H68       1.0  0.45100  0.79510  0.75030  1.0000 0.1198068938
H   H69       1.0  0.53350  0.72920  0.85770  1.0000 0.1097271765
H   H70       1.0  0.43160  0.66970  0.87770  1.0000 0.1198068938
H   H71       1.0  0.25900  0.69090  0.80620  1.0000 0.1297718488
H   H72       1.0  0.95930  0.91300  0.46930  1.0000 0.1389713296
H   H73       1.0  0.04810  0.85990  0.50960  1.0000 0.1297718488
H   H74       1.0  0.80100  0.89880  0.31950  1.0000 0.1389713296
H   H75       1.0  0.75850  0.82160  0.21480  1.0000 0.1198068938
H   H76       1.0  0.04810  0.57490  0.40990  1.0000 0.1297718488
H   H77       1.0  0.17960  0.50360  0.50320  1.0000 0.1097271765
H   H78       1.0  0.31960  0.54100  0.63050  1.0000 0.1198068938
H   H79       1.0  0.33000  0.64410  0.66200  1.0000 0.1198068938
H   H80       1.0  0.19990  0.71790  0.57200  1.0000 0.1198068938
H   H81       1.0  0.70580  0.58620  0.12250  1.0000 0.1297718488
H   H82       1.0  0.72310  0.50100  0.05220  1.0000 0.1297718488
H   H83       1.0  0.20140  0.57830  0.25220  1.0000 0.1297718488
H   H84       1.0  0.38010  0.59360  0.33100  1.0000 0.1097271765
H   H85       1.0  0.46690  0.65550  0.45070  1.0000 0.1097271765
H   H86       1.0  0.37310  0.69650  0.48530  1.0000 0.1198068938
H   H87       1.0  0.19990  0.68080  0.41000  1.0000 0.1198068938
H   H88       1.0  0.89670  0.48540  0.05120  1.0000 0.1389713296
H   H89       1.0  0.00230  0.48910  0.14150  1.0000 0.1297718488
H   H90       1.0  0.77530  0.38570  0.01160  1.0000 0.1389713296
H   H91       1.0  0.79190  0.28840  0.08300  1.0000 0.1198068938
H   H92       1.0  0.21590  0.33210  0.45950  1.0000 0.1297718488
H   H93       1.0  0.36890  0.37030  0.57830  1.0000 0.1198068938
H   H94       1.0  0.44000  0.46490  0.57730  1.0000 0.1198068938
H   H95       1.0  0.35570  0.52220  0.46000  1.0000 0.1198068938
H   H96       1.0  0.20320  0.48760  0.34320  1.0000 0.1198068938
H   H97       1.0  0.21970  0.30830  0.95030  1.0000 0.1198068938
H   H98       1.0  0.22110  0.36640  0.05190  1.0000 0.1389713296
H   H99       1.0  0.72730  0.31310  0.83400  1.0000 0.1389713296
H   H100      1.0  0.54900  0.29510  0.74970  1.0000 0.1198068938
H   H101      1.0  0.46650  0.22920  0.64230  1.0000 0.1097271765
H   H102      1.0  0.56840  0.16970  0.62230  1.0000 0.1198068938
H   H103      1.0  0.74100  0.19090  0.69380  1.0000 0.1297718488
H   H104      1.0  0.04070  0.41300  0.03070  1.0000 0.1389713296
H   H105      1.0  0.95190  0.35990  0.99040  1.0000 0.1297718488
H   H106      1.0  0.19900  0.39880  0.18050  1.0000 0.1389713296
H   H107      1.0  0.24150  0.32160  0.28520  1.0000 0.1198068938
H   H108      1.0  0.95190  0.07490  0.09010  1.0000 0.1297718488
H   H109      1.0  0.82040  0.00360  0.99680  1.0000 0.1097271765
H   H110      1.0  0.68040  0.04100  0.86950  1.0000 0.1198068938
H   H111      1.0  0.67000  0.14410  0.83800  1.0000 0.1198068938
H   H112      1.0  0.80010  0.21790  0.92800  1.0000 0.1198068938
H   H113      1.0  0.29420  0.08620  0.37750  1.0000 0.1297718488
H   H114      1.0  0.27690  0.00100  0.44780  1.0000 0.1297718488
H   H115      1.0  0.79860  0.07830  0.24780  1.0000 0.1297718488
H   H116      1.0  0.61990  0.09360  0.16900  1.0000 0.1097271765
H   H117      1.0  0.53310  0.15550  0.04930  1.0000 0.1097271765
H   H118      1.0  0.62690  0.19650  0.01470  1.0000 0.1198068938
H   H119      1.0  0.80010  0.18080  0.09000  1.0000 0.1198068938
H   H120      1.0  0.10330  0.98540  0.44880  1.0000 0.1389713296
H   H121      1.0  0.99770  0.98910  0.35850  1.0000 0.1297718488
H   H122      1.0  0.22470  0.88570  0.48840  1.0000 0.1389713296
H   H123      1.0  0.20810  0.78840  0.41700  1.0000 0.1198068938
H   H124      1.0  0.78410  0.83210  0.04050  1.0000 0.1297718488
H   H125      1.0  0.63110  0.87030  0.92170  1.0000 0.1198068938
H   H126      1.0  0.56000  0.96490  0.92270  1.0000 0.1198068938
H   H127      1.0  0.64430  0.02220  0.04000  1.0000 0.1198068938
H   H128      1.0  0.79680  0.98760  0.15680  1.0000 0.1198068938
C   C1        1.0  0.16230  0.18710  0.44990  1.0000 -0.0325621132
C   C2        1.0  0.16370  0.15500  0.50620  1.0000 -0.0717945773
C   C3        1.0  0.00840  0.19410  0.41400  1.0000 0.3219114818
C   C4        1.0  0.75310  0.24610  0.27140  1.0000 0.1666867848
C   C5        1.0  0.69550  0.21460  0.28960  1.0000 -0.1445479117
C   C6        1.0  0.58950  0.22640  0.23910  1.0000 -0.100523081
C   C7        1.0  0.53970  0.26580  0.17620  1.0000 -0.1180468926
C   C8        1.0  0.60010  0.29910  0.16310  1.0000 -0.0717945773
C   C9        1.0  0.70270  0.28820  0.20680  1.0000 -0.1445479117
C   C10       1.0  0.02770  0.13320  0.52370  1.0000 -0.007582627
C   C11       1.0  0.16350  0.13960  0.67190  1.0000 -0.0717945773
C   C12       1.0  0.18710  0.18280  0.72950  1.0000 -0.0221706472
C   C13       1.0  0.05650  0.21910  0.61710  1.0000 0.3060386234
C   C14       1.0  0.88830  0.34720  0.51800  1.0000 0.1587946393
C   C15       1.0  0.89460  0.41070  0.53850  1.0000 -0.1720282085
C   C16       1.0  0.81680  0.45310  0.48330  1.0000 -0.0790902806
C   C17       1.0  0.73360  0.43070  0.40790  1.0000 -0.1180468926
C   C18       1.0  0.72820  0.36980  0.38950  1.0000 -0.0790902806
C   C19       1.0  0.80500  0.32510  0.44280  1.0000 -0.1601726062
C   C20       1.0  0.23160  0.42620  0.86700  1.0000 -0.0402105584
C   C21       1.0  0.22260  0.47330  0.90580  1.0000 -0.0641224686
C   C22       1.0  0.06910  0.43010  0.81450  1.0000 0.3219114818
C   C23       1.0  0.81910  0.37290  0.67650  1.0000 0.1666867848
C   C24       1.0  0.76330  0.39800  0.69980  1.0000 -0.1469253141
C   C25       1.0  0.65770  0.38870  0.65360  1.0000 -0.0790902806
C   C26       1.0  0.60570  0.35180  0.58190  1.0000 -0.1111262951
C   C27       1.0  0.66120  0.32790  0.56200  1.0000 -0.0641224686
C   C28       1.0  0.76400  0.33730  0.60660  1.0000 -0.1601726062
C   C29       1.0  0.07300  0.51980  0.89220  1.0000 -0.0046994544
C   C30       1.0  0.17160  0.62330  0.93350  1.0000 -0.0790902806
C   C31       1.0  0.16180  0.67660  0.89400  1.0000 -0.0221706472
C   C32       1.0  0.03220  0.61600  0.80810  1.0000 0.3219114818
C   C33       1.0  0.80640  0.59360  0.61040  1.0000 0.1666867848
C   C34       1.0  0.75580  0.62870  0.54020  1.0000 -0.1601726062
C   C35       1.0  0.66460  0.60640  0.46980  1.0000 -0.090910686
C   C36       1.0  0.62310  0.55040  0.47030  1.0000 -0.1111262951
C   C37       1.0  0.67360  0.51660  0.54030  1.0000 -0.0790902806
C   C38       1.0  0.76350  0.53680  0.60950  1.0000 -0.131329235
C   C39       1.0  0.83770  0.68710  0.05010  1.0000 -0.0325621132
C   C40       1.0  0.83630  0.65500  0.99380  1.0000 -0.0717945773
C   C41       1.0  0.99160  0.69410  0.08600  1.0000 0.3219114818
C   C42       1.0  0.24690  0.74610  0.22860  1.0000 0.1666867848
C   C43       1.0  0.30450  0.71460  0.21040  1.0000 -0.1469253141
C   C44       1.0  0.41050  0.72640  0.26090  1.0000 -0.100523081
C   C45       1.0  0.46030  0.76580  0.32380  1.0000 -0.1180468926
C   C46       1.0  0.39990  0.79910  0.33690  1.0000 -0.0717945773
C   C47       1.0  0.29730  0.78820  0.29320  1.0000 -0.1445479117
C   C48       1.0  0.97230  0.63320  0.97630  1.0000 -0.007582627
C   C49       1.0  0.83650  0.63960  0.82810  1.0000 -0.0717945773
C   C50       1.0  0.81290  0.68280  0.77050  1.0000 -0.0221706472
C   C51       1.0  0.94350  0.71910  0.88290  1.0000 0.3060386234
C   C52       1.0  0.11170  0.84720  0.98200  1.0000 0.1587946393
C   C53       1.0  0.10540  0.91070  0.96150  1.0000 -0.1720282085
C   C54       1.0  0.18320  0.95310  0.01670  1.0000 -0.0790902806
C   C55       1.0  0.26640  0.93070  0.09210  1.0000 -0.1180468926
C   C56       1.0  0.27180  0.86980  0.11050  1.0000 -0.0790902806
C   C57       1.0  0.19500  0.82510  0.05720  1.0000 -0.1601726062
C   C58       1.0  0.76840  0.92620  0.63300  1.0000 -0.0402105584
C   C59       1.0  0.77740  0.97330  0.59420  1.0000 -0.0641224686
C   C60       1.0  0.93090  0.93010  0.68550  1.0000 0.3219114818
C   C61       1.0  0.18090  0.87290  0.82350  1.0000 0.1666867848
C   C62       1.0  0.23670  0.89800  0.80020  1.0000 -0.1469253141
C   C63       1.0  0.34230  0.88870  0.84640  1.0000 -0.0790902806
C   C64       1.0  0.39430  0.85180  0.91810  1.0000 -0.1111262951
C   C65       1.0  0.33880  0.82790  0.93800  1.0000 -0.0641224686
C   C66       1.0  0.23600  0.83730  0.89340  1.0000 -0.1601726062
C   C67       1.0  0.92700  0.01980  0.60780  1.0000 -0.0046994544
C   C68       1.0  0.82840  0.12330  0.56650  1.0000 -0.0790902806
C   C69       1.0  0.83820  0.17660  0.60600  1.0000 -0.0221706472
C   C70       1.0  0.96780  0.11600  0.69190  1.0000 0.3219114818
C   C71       1.0  0.19360  0.09360  0.88960  1.0000 0.1666867848
C   C72       1.0  0.24420  0.12870  0.95980  1.0000 -0.1601726062
C   C73       1.0  0.33540  0.10640  0.03020  1.0000 -0.090910686
C   C74       1.0  0.37690  0.05040  0.02970  1.0000 -0.1111262951
C   C75       1.0  0.32640  0.01660  0.95970  1.0000 -0.0790902806
C   C76       1.0  0.23650  0.03680  0.89050  1.0000 -0.131329235
C   C77       1.0  0.83770  0.81290  0.55010  1.0000 -0.0325621132
C   C78       1.0  0.83630  0.84500  0.49380  1.0000 -0.0717945773
C   C79       1.0  0.99160  0.80590  0.58600  1.0000 0.3219114818
C   C80       1.0  0.24690  0.75390  0.72860  1.0000 0.1666867848
C   C81       1.0  0.30450  0.78540  0.71040  1.0000 -0.1469253141
C   C82       1.0  0.41050  0.77360  0.76090  1.0000 -0.100523081
C   C83       1.0  0.46030  0.73420  0.82380  1.0000 -0.1180468926
C   C84       1.0  0.39990  0.70090  0.83690  1.0000 -0.0717945773
C   C85       1.0  0.29730  0.71180  0.79320  1.0000 -0.1445479117
C   C86       1.0  0.97230  0.86680  0.47630  1.0000 -0.007582627
C   C87       1.0  0.83650  0.86040  0.32810  1.0000 -0.0717945773
C   C88       1.0  0.81290  0.81720  0.27050  1.0000 -0.0221706472
C   C89       1.0  0.94350  0.78090  0.38290  1.0000 0.3060386234
C   C90       1.0  0.11170  0.65280  0.48200  1.0000 0.1587946393
C   C91       1.0  0.10540  0.58930  0.46150  1.0000 -0.1720282085
C   C92       1.0  0.18320  0.54690  0.51670  1.0000 -0.0790902806
C   C93       1.0  0.26640  0.56930  0.59210  1.0000 -0.1180468926
C   C94       1.0  0.27180  0.63020  0.61050  1.0000 -0.0790902806
C   C95       1.0  0.19500  0.67490  0.55720  1.0000 -0.1601726062
C   C96       1.0  0.76840  0.57380  0.13300  1.0000 -0.0402105584
C   C97       1.0  0.77740  0.52670  0.09420  1.0000 -0.0641224686
C   C98       1.0  0.93090  0.56990  0.18550  1.0000 0.3219114818
C   C99       1.0  0.18090  0.62710  0.32350  1.0000 0.1666867848
C   C100      1.0  0.23670  0.60200  0.30020  1.0000 -0.1469253141
C   C101      1.0  0.34230  0.61130  0.34640  1.0000 -0.0790902806
C   C102      1.0  0.39430  0.64820  0.41810  1.0000 -0.1111262951
C   C103      1.0  0.33880  0.67210  0.43800  1.0000 -0.0641224686
C   C104      1.0  0.23600  0.66270  0.39340  1.0000 -0.1601726062
C   C105      1.0  0.92700  0.48020  0.10780  1.0000 -0.0046994544
C   C106      1.0  0.82840  0.37670  0.06650  1.0000 -0.0790902806
C   C107      1.0  0.83820  0.32340  0.10600  1.0000 -0.0221706472
C   C108      1.0  0.96780  0.38400  0.19190  1.0000 0.3219114818
C   C109      1.0  0.19360  0.40640  0.38960  1.0000 0.1666867848
C   C110      1.0  0.24420  0.37130  0.45980  1.0000 -0.1601726062
C   C111      1.0  0.33540  0.39360  0.53020  1.0000 -0.090910686
C   C112      1.0  0.37690  0.44960  0.52970  1.0000 -0.1111262951
C   C113      1.0  0.32640  0.48340  0.45970  1.0000 -0.0790902806
C   C114      1.0  0.23650  0.46320  0.39050  1.0000 -0.131329235
C   C115      1.0  0.16230  0.31290  0.94990  1.0000 -0.0325621132
C   C116      1.0  0.16370  0.34500  0.00620  1.0000 -0.0717945773
C   C117      1.0  0.00840  0.30590  0.91400  1.0000 0.3219114818
C   C118      1.0  0.75310  0.25390  0.77140  1.0000 0.1666867848
C   C119      1.0  0.69550  0.28540  0.78960  1.0000 -0.1445479117
C   C120      1.0  0.58950  0.27360  0.73910  1.0000 -0.100523081
C   C121      1.0  0.53970  0.23420  0.67620  1.0000 -0.1180468926
C   C122      1.0  0.60010  0.20090  0.66310  1.0000 -0.0717945773
C   C123      1.0  0.70270  0.21180  0.70680  1.0000 -0.1445479117
C   C124      1.0  0.02770  0.36680  0.02370  1.0000 -0.007582627
C   C125      1.0  0.16350  0.36040  0.17190  1.0000 -0.0717945773
C   C126      1.0  0.18710  0.31720  0.22950  1.0000 -0.0221706472
C   C127      1.0  0.05650  0.28090  0.11710  1.0000 0.3060386234
C   C128      1.0  0.88830  0.15280  0.01800  1.0000 0.1587946393
C   C129      1.0  0.89460  0.08930  0.03850  1.0000 -0.1720282085
C   C130      1.0  0.81680  0.04690  0.98330  1.0000 -0.0790902806
C   C131      1.0  0.73360  0.06930  0.90790  1.0000 -0.1111262951
C   C132      1.0  0.72820  0.13020  0.88950  1.0000 -0.0790902806
C   C133      1.0  0.80500  0.17490  0.94280  1.0000 -0.1601726062
C   C134      1.0  0.23160  0.07380  0.36700  1.0000 -0.0402105584
C   C135      1.0  0.22260  0.02670  0.40580  1.0000 -0.0641224686
C   C136      1.0  0.06910  0.06990  0.31450  1.0000 0.3219114818
C   C137      1.0  0.81910  0.12710  0.17650  1.0000 0.1666867848
C   C138      1.0  0.76330  0.10200  0.19980  1.0000 -0.1469253141
C   C139      1.0  0.65770  0.11130  0.15360  1.0000 -0.0790902806
C   C140      1.0  0.60570  0.14820  0.08190  1.0000 -0.1111262951
C   C141      1.0  0.66120  0.17210  0.06200  1.0000 -0.0641224686
C   C142      1.0  0.76400  0.16270  0.10660  1.0000 -0.1601726062
C   C143      1.0  0.07300  0.98020  0.39220  1.0000 -0.007582627
C   C144      1.0  0.17160  0.87670  0.43350  1.0000 -0.0790902806
C   C145      1.0  0.16180  0.82340  0.39400  1.0000 -0.0221706472
C   C146      1.0  0.03220  0.88400  0.30810  1.0000 0.3219114818
C   C147      1.0  0.80640  0.90640  0.11040  1.0000 0.1666867848
C   C148      1.0  0.75580  0.87130  0.04020  1.0000 -0.1601726062
C   C149      1.0  0.66460  0.89360  0.96980  1.0000 -0.090910686
C   C150      1.0  0.62310  0.94960  0.97030  1.0000 -0.1111262951
C   C151      1.0  0.67360  0.98340  0.04030  1.0000 -0.0790902806
C   C152      1.0  0.76350  0.96320  0.10950  1.0000 -0.131329235
N   N1        1.0  0.06540  0.21120  0.39330  1.0000 -0.3200027182
N   N2        1.0  0.06610  0.16010  0.48320  1.0000 -0.0221706472
N   N3        1.0  0.90370  0.20410  0.37470  1.0000 -0.1720282085
N   N4        1.0  0.86120  0.23920  0.31450  1.0000 -0.0717945773
N   N5        1.0  0.07950  0.16270  0.60040  1.0000 -0.0402105584
N   N6        1.0  0.12070  0.23210  0.69400  1.0000 -0.3200027182
N   N7        1.0  0.97640  0.25540  0.55460  1.0000 -0.1847913585
N   N8        1.0  0.97150  0.30780  0.57840  1.0000 -0.0402105584
N   N9        1.0  0.13510  0.39940  0.81000  1.0000 -0.3200027182
N   N10       1.0  0.12190  0.47600  0.87270  1.0000 -0.0221706472
N   N11       1.0  0.96290  0.42340  0.77030  1.0000 -0.1863052892
N   N12       1.0  0.92460  0.38060  0.71860  1.0000 -0.131329235
N   N13       1.0  0.08950  0.58510  0.87830  1.0000 -0.0402105584
N   N14       1.0  0.07430  0.67190  0.81560  1.0000 -0.3200027182
N   N15       1.0  0.94330  0.58800  0.74190  1.0000 -0.2165865821
N   N16       1.0  0.89910  0.62070  0.67820  1.0000 -0.090910686
N   N17       1.0  0.93460  0.71120  0.10670  1.0000 -0.3200027182
N   N18       1.0  0.93390  0.66010  0.01680  1.0000 -0.0221706472
N   N19       1.0  0.09630  0.70410  0.12530  1.0000 -0.1720282085
N   N20       1.0  0.13880  0.73920  0.18550  1.0000 -0.0717945773
N   N21       1.0  0.92050  0.66270  0.89960  1.0000 -0.0402105584
N   N22       1.0  0.87930  0.73210  0.80600  1.0000 -0.3200027182
N   N23       1.0  0.02360  0.75540  0.94540  1.0000 -0.1863052892
N   N24       1.0  0.02850  0.80780  0.92160  1.0000 -0.0402105584
N   N25       1.0  0.86490  0.89940  0.69000  1.0000 -0.3200027182
N   N26       1.0  0.87810  0.97600  0.62730  1.0000 -0.0221706472
N   N27       1.0  0.03710  0.92340  0.72970  1.0000 -0.1863052892
N   N28       1.0  0.07540  0.88060  0.78140  1.0000 -0.131329235
N   N29       1.0  0.91050  0.08510  0.62170  1.0000 -0.0402105584
N   N30       1.0  0.92570  0.17190  0.68440  1.0000 -0.3200027182
N   N31       1.0  0.05670  0.08800  0.75810  1.0000 -0.2165865821
N   N32       1.0  0.10090  0.12070  0.82180  1.0000 -0.090910686
N   N33       1.0  0.93460  0.78880  0.60670  1.0000 -0.3200027182
N   N34       1.0  0.93390  0.83990  0.51680  1.0000 -0.0221706472
N   N35       1.0  0.09630  0.79590  0.62530  1.0000 -0.1720282085
N   N36       1.0  0.13880  0.76080  0.68550  1.0000 -0.0717945773
N   N37       1.0  0.92050  0.83730  0.39960  1.0000 -0.0402105584
N   N38       1.0  0.87930  0.76790  0.30600  1.0000 -0.3200027182
N   N39       1.0  0.02360  0.74460  0.44540  1.0000 -0.1863052892
N   N40       1.0  0.02850  0.69220  0.42160  1.0000 -0.0402105584
N   N41       1.0  0.86490  0.60060  0.19000  1.0000 -0.3200027182
N   N42       1.0  0.87810  0.52400  0.12730  1.0000 -0.0221706472
N   N43       1.0  0.03710  0.57660  0.22970  1.0000 -0.1863052892
N   N44       1.0  0.07540  0.61940  0.28140  1.0000 -0.131329235
N   N45       1.0  0.91050  0.41490  0.12170  1.0000 -0.0402105584
N   N46       1.0  0.92570  0.32810  0.18440  1.0000 -0.3200027182
N   N47       1.0  0.05670  0.41200  0.25810  1.0000 -0.2165865821
N   N48       1.0  0.10090  0.37930  0.32180  1.0000 -0.090910686
N   N49       1.0  0.06540  0.28880  0.89330  1.0000 -0.3200027182
N   N50       1.0  0.06610  0.33990  0.98320  1.0000 -0.0221706472
N   N51       1.0  0.90370  0.29590  0.87470  1.0000 -0.1720282085
N   N52       1.0  0.86120  0.26080  0.81450  1.0000 -0.0717945773
N   N53       1.0  0.07950  0.33730  0.10040  1.0000 -0.0402105584
N   N54       1.0  0.12070  0.26790  0.19400  1.0000 -0.3200027182
N   N55       1.0  0.97640  0.24460  0.05460  1.0000 -0.1847913585
N   N56       1.0  0.97150  0.19220  0.07840  1.0000 -0.0402105584
N   N57       1.0  0.13510  0.10060  0.31000  1.0000 -0.3200027182
N   N58       1.0  0.12190  0.02400  0.37270  1.0000 -0.0221706472
N   N59       1.0  0.96290  0.07660  0.27030  1.0000 -0.1863052892
N   N60       1.0  0.92460  0.11940  0.21860  1.0000 -0.131329235
N   N61       1.0  0.08950  0.91490  0.37830  1.0000 -0.0402105584
N   N62       1.0  0.07430  0.82810  0.31560  1.0000 -0.3200027182
N   N63       1.0  0.94330  0.91200  0.24190  1.0000 -0.2149907521
N   N64       1.0  0.89910  0.87930  0.17820  1.0000 -0.0790902806
F   F1        1.0  0.79250  0.41960  0.91170  1.0000 -0.4607811554
F   F2        1.0  0.79660  0.52510  0.92190  1.0000 -0.4607811554
F   F3        1.0  0.72320  0.48330  0.80370  1.0000 -0.4524830005
F   F4        1.0  0.89620  0.47510  0.89840  1.0000 -0.4847916089
F   F5        1.0  0.20750  0.91960  0.58830  1.0000 -0.4607811554
F   F6        1.0  0.20340  0.02510  0.57810  1.0000 -0.4607811554
F   F7        1.0  0.27680  0.98330  0.69630  1.0000 -0.4524830005
F   F8        1.0  0.10380  0.97510  0.60160  1.0000 -0.4847916089
F   F9        1.0  0.20750  0.58040  0.08830  1.0000 -0.4607811554
F   F10       1.0  0.20340  0.47490  0.07810  1.0000 -0.4607811554
F   F11       1.0  0.27680  0.51670  0.19630  1.0000 -0.4524830005
F   F12       1.0  0.10380  0.52490  0.10160  1.0000 -0.4847916089
F   F13       1.0  0.79250  0.08040  0.41170  1.0000 -0.4607811554
F   F14       1.0  0.79660  0.97490  0.42190  1.0000 -0.4607811554
F   F15       1.0  0.72320  0.01670  0.30370  1.0000 -0.4524830005
F   F16       1.0  0.89620  0.02490  0.39840  1.0000 -0.4847916089
F   F17       1.0  0.41450  0.57610  0.01570  1.0000 -0.1445479117
F   F18       1.0  0.44000  0.68750  0.01600  1.0000 -0.2561408601
F   F19       1.0  0.58550  0.07610  0.48430  1.0000 -0.1469253141
F   F20       1.0  0.56000  0.18750  0.48400  1.0000 -0.2516365967
F   F21       1.0  0.58550  0.42390  0.98430  1.0000 -0.1469253141
F   F22       1.0  0.56000  0.31250  0.98400  1.0000 -0.2516365967
F   F23       1.0  0.41450  0.92390  0.51570  1.0000 -0.1469253141
F   F24       1.0  0.44000  0.81250  0.51600  1.0000 -0.2516365967
