# DDEC6 charges by PACMAN v1.1 (https://github.com/mtap-research/PACMAN-charge/)
data_2018[Pr][nan]2[ION]1
_chemical_formula_sum              "Pr4 H56 C20 Cl4 O32"
_cell_length_a       9.62577
_cell_length_b       9.62577
_cell_length_c       19.3513
_cell_angle_alpha    90
_cell_angle_beta     90
_cell_angle_gamma    125.832

_symmetry_space_group_name_H-M    "P 1"
_symmetry_Int_Tables_number       1

loop_
  _symmetry_equiv_pos_as_xyz
  'x, y, z'

loop_
  _atom_site_type_symbol
  _atom_site_label
  _atom_site_symmetry_multiplicity
  _atom_site_fract_x
  _atom_site_fract_y
  _atom_site_fract_z
  _atom_site_occupancy
  _atom_site_charge
Pr  Pr1       1.0  0.73246  0.26754  0.50000  1.0000 2.0757003483
Pr  Pr2       1.0  0.26754  0.73246  0.00000  1.0000 2.0757003483
Pr  Pr3       1.0  0.26754  0.73246  0.50000  1.0000 2.0757003483
Pr  Pr4       1.0  0.73246  0.26754  0.00000  1.0000 2.0757003483
H   H1        1.0  0.00620  0.29280  0.31520  1.0000 0.1466403734
H   H2        1.0  0.89590  0.36810  0.31390  1.0000 0.1466403734
H   H3        1.0  0.76800  0.60800  0.49880  1.0000 0.3439438102
H   H4        1.0  0.68620  0.52980  0.43870  1.0000 0.3528424893
H   H5        1.0  0.01670  0.28130  0.56730  1.0000 0.3267087322
H   H6        1.0  0.89170  0.11630  0.56980  1.0000 0.313443767
H   H7        1.0  0.99380  0.70720  0.81520  1.0000 0.1466403734
H   H8        1.0  0.10410  0.63190  0.81390  1.0000 0.1466403734
H   H9        1.0  0.23200  0.39200  0.99880  1.0000 0.3439438102
H   H10       1.0  0.31380  0.47020  0.93870  1.0000 0.3528424893
H   H11       1.0  0.98330  0.71870  0.06730  1.0000 0.3267087322
H   H12       1.0  0.10830  0.88370  0.06980  1.0000 0.313443767
H   H13       1.0  0.29280  0.00620  0.18480  1.0000 0.1466403734
H   H14       1.0  0.36810  0.89590  0.18610  1.0000 0.1466403734
H   H15       1.0  0.60800  0.76800  0.00120  1.0000 0.3439438102
H   H16       1.0  0.52980  0.68620  0.06130  1.0000 0.3528424893
H   H17       1.0  0.28130  0.01670  0.93270  1.0000 0.3267087322
H   H18       1.0  0.11630  0.89170  0.93020  1.0000 0.313443767
H   H19       1.0  0.70720  0.99380  0.68480  1.0000 0.1466403734
H   H20       1.0  0.63190  0.10410  0.68610  1.0000 0.1466403734
H   H21       1.0  0.39200  0.23200  0.50120  1.0000 0.3439438102
H   H22       1.0  0.47020  0.31380  0.56130  1.0000 0.3528424893
H   H23       1.0  0.71870  0.98330  0.43270  1.0000 0.3267087322
H   H24       1.0  0.88370  0.10830  0.43020  1.0000 0.313443767
H   H25       1.0  0.99380  0.70720  0.68480  1.0000 0.1466403734
H   H26       1.0  0.10410  0.63190  0.68610  1.0000 0.1466403734
H   H27       1.0  0.23200  0.39200  0.50120  1.0000 0.3439438102
H   H28       1.0  0.31380  0.47020  0.56130  1.0000 0.3528424893
H   H29       1.0  0.98330  0.71870  0.43270  1.0000 0.3267087322
H   H30       1.0  0.10830  0.88370  0.43020  1.0000 0.313443767
H   H31       1.0  0.00620  0.29280  0.18480  1.0000 0.1466403734
H   H32       1.0  0.89590  0.36810  0.18610  1.0000 0.1466403734
H   H33       1.0  0.76800  0.60800  0.00120  1.0000 0.3439438102
H   H34       1.0  0.68620  0.52980  0.06130  1.0000 0.3528424893
H   H35       1.0  0.01670  0.28130  0.93270  1.0000 0.3267087322
H   H36       1.0  0.89170  0.11630  0.93020  1.0000 0.313443767
H   H37       1.0  0.70720  0.99380  0.81520  1.0000 0.1466403734
H   H38       1.0  0.63190  0.10410  0.81390  1.0000 0.1466403734
H   H39       1.0  0.39200  0.23200  0.99880  1.0000 0.3439438102
H   H40       1.0  0.47020  0.31380  0.93870  1.0000 0.3528424893
H   H41       1.0  0.71870  0.98330  0.06730  1.0000 0.3267087322
H   H42       1.0  0.88370  0.10830  0.06980  1.0000 0.313443767
H   H43       1.0  0.29280  0.00620  0.31520  1.0000 0.1466403734
H   H44       1.0  0.36810  0.89590  0.31390  1.0000 0.1466403734
H   H45       1.0  0.60800  0.76800  0.49880  1.0000 0.3439438102
H   H46       1.0  0.52980  0.68620  0.43870  1.0000 0.3528424893
H   H47       1.0  0.28130  0.01670  0.56730  1.0000 0.3267087322
H   H48       1.0  0.11630  0.89170  0.56980  1.0000 0.313443767
H   H49       1.0  0.22470  0.52970  0.25000  1.0000 0.1075004023
H   H50       1.0  0.11830  0.60970  0.25000  1.0000 0.1075004023
H   H51       1.0  0.77530  0.47030  0.75000  1.0000 0.1075004023
H   H52       1.0  0.88170  0.39030  0.75000  1.0000 0.1075004023
H   H53       1.0  0.52970  0.22470  0.25000  1.0000 0.1075004023
H   H54       1.0  0.60970  0.11830  0.25000  1.0000 0.1075004023
H   H55       1.0  0.47030  0.77530  0.75000  1.0000 0.1075004023
H   H56       1.0  0.39030  0.88170  0.75000  1.0000 0.1075004023
C   C1        1.0  0.09963  0.49715  0.38098  1.0000 0.6772382912
C   C2        1.0  0.01403  0.40007  0.31503  1.0000 -0.3275341633
C   C3        1.0  0.90037  0.50285  0.88098  1.0000 0.6772382912
C   C4        1.0  0.98597  0.59993  0.81503  1.0000 -0.3275341633
C   C5        1.0  0.49715  0.09963  0.11902  1.0000 0.6772382912
C   C6        1.0  0.40007  0.01403  0.18497  1.0000 -0.3275341633
C   C7        1.0  0.50285  0.90037  0.61902  1.0000 0.6772382912
C   C8        1.0  0.59993  0.98597  0.68497  1.0000 -0.3275341633
C   C9        1.0  0.90037  0.50285  0.61902  1.0000 0.6772382912
C   C10       1.0  0.98597  0.59993  0.68497  1.0000 -0.3275341633
C   C11       1.0  0.09963  0.49715  0.11902  1.0000 0.6772382912
C   C12       1.0  0.01403  0.40007  0.18497  1.0000 -0.3275341633
C   C13       1.0  0.50285  0.90037  0.88098  1.0000 0.6772382912
C   C14       1.0  0.59993  0.98597  0.81503  1.0000 -0.3275341633
C   C15       1.0  0.49715  0.09963  0.38098  1.0000 0.6772382912
C   C16       1.0  0.40007  0.01403  0.31503  1.0000 -0.3275341633
C   C17       1.0  0.10767  0.50093  0.25000  1.0000 -0.0713715497
C   C18       1.0  0.89233  0.49907  0.75000  1.0000 -0.0713715497
C   C19       1.0  0.50093  0.10767  0.25000  1.0000 -0.0713715497
C   C20       1.0  0.49907  0.89233  0.75000  1.0000 -0.0713715497
Cl  Cl1       1.0  0.16927  0.16927  0.42682  1.0000 -0.607185075
Cl  Cl2       1.0  0.83073  0.83073  0.92682  1.0000 -0.607185075
Cl  Cl3       1.0  0.16927  0.16927  0.07318  1.0000 -0.607185075
Cl  Cl4       1.0  0.83073  0.83073  0.57318  1.0000 -0.607185075
O   O1        1.0  0.01024  0.45536  0.43641  1.0000 -0.7318789158
O   O2        1.0  0.25648  0.61800  0.38200  1.0000 -0.6200453582
O   O3        1.0  0.75779  0.54413  0.46730  1.0000 -0.7170358318
O   O4        1.0  0.91310  0.21000  0.57296  1.0000 -0.7170358318
O   O5        1.0  0.98976  0.54464  0.93641  1.0000 -0.7318789158
O   O6        1.0  0.74352  0.38200  0.88200  1.0000 -0.6200453582
O   O7        1.0  0.24221  0.45587  0.96730  1.0000 -0.7170358318
O   O8        1.0  0.08690  0.79000  0.07296  1.0000 -0.7170358318
O   O9        1.0  0.45536  0.01024  0.06359  1.0000 -0.7318789158
O   O10       1.0  0.61800  0.25648  0.11800  1.0000 -0.6200453582
O   O11       1.0  0.54413  0.75779  0.03270  1.0000 -0.7170358318
O   O12       1.0  0.21000  0.91310  0.92704  1.0000 -0.7170358318
O   O13       1.0  0.54464  0.98976  0.56359  1.0000 -0.7318789158
O   O14       1.0  0.38200  0.74352  0.61800  1.0000 -0.6200453582
O   O15       1.0  0.45587  0.24221  0.53270  1.0000 -0.7170358318
O   O16       1.0  0.79000  0.08690  0.42704  1.0000 -0.7170358318
O   O17       1.0  0.98976  0.54464  0.56359  1.0000 -0.7318789158
O   O18       1.0  0.74352  0.38200  0.61800  1.0000 -0.6200453582
O   O19       1.0  0.24221  0.45587  0.53270  1.0000 -0.7170358318
O   O20       1.0  0.08690  0.79000  0.42704  1.0000 -0.7170358318
O   O21       1.0  0.01024  0.45536  0.06359  1.0000 -0.7318789158
O   O22       1.0  0.25648  0.61800  0.11800  1.0000 -0.6200453582
O   O23       1.0  0.75779  0.54413  0.03270  1.0000 -0.7170358318
O   O24       1.0  0.91310  0.21000  0.92704  1.0000 -0.7170358318
O   O25       1.0  0.54464  0.98976  0.93641  1.0000 -0.7318789158
O   O26       1.0  0.38200  0.74352  0.88200  1.0000 -0.6200453582
O   O27       1.0  0.45587  0.24221  0.96730  1.0000 -0.7170358318
O   O28       1.0  0.79000  0.08690  0.07296  1.0000 -0.7170358318
O   O29       1.0  0.45536  0.01024  0.43641  1.0000 -0.7318789158
O   O30       1.0  0.61800  0.25648  0.38200  1.0000 -0.6200453582
O   O31       1.0  0.54413  0.75779  0.46730  1.0000 -0.7170358318
O   O32       1.0  0.21000  0.91310  0.57296  1.0000 -0.7170358318
