# DDEC6 charges by PACMAN v1.1 (https://github.com/mtap-research/PACMAN-charge/)
data_2018[Nd][nan]2[ION]1
_chemical_formula_sum              "Nd4 H56 C20 Cl4 O32"
_cell_length_a       9.60053
_cell_length_b       9.60053
_cell_length_c       19.286
_cell_angle_alpha    90
_cell_angle_beta     90
_cell_angle_gamma    125.886

_symmetry_space_group_name_H-M    "P 1"
_symmetry_Int_Tables_number       1

loop_
  _symmetry_equiv_pos_as_xyz
  'x, y, z'

loop_
  _atom_site_type_symbol
  _atom_site_label
  _atom_site_symmetry_multiplicity
  _atom_site_fract_x
  _atom_site_fract_y
  _atom_site_fract_z
  _atom_site_occupancy
  _atom_site_charge
Nd  Nd1       1.0  0.73234  0.26766  0.50000  1.0000 2.0618208599
Nd  Nd2       1.0  0.26766  0.73234  0.00000  1.0000 2.0618208599
Nd  Nd3       1.0  0.26766  0.73234  0.50000  1.0000 2.0618208599
Nd  Nd4       1.0  0.73234  0.26766  0.00000  1.0000 2.0618208599
H   H1        1.0  0.00620  0.29240  0.31550  1.0000 0.1464097713
H   H2        1.0  0.89550  0.36790  0.31390  1.0000 0.1464097713
H   H3        1.0  0.76470  0.60530  0.49930  1.0000 0.348150785
H   H4        1.0  0.68450  0.52350  0.43880  1.0000 0.348150785
H   H5        1.0  0.01640  0.28560  0.56790  1.0000 0.3220926178
H   H6        1.0  0.89630  0.11970  0.57100  1.0000 0.3126771998
H   H7        1.0  0.99380  0.70760  0.81550  1.0000 0.1464097713
H   H8        1.0  0.10450  0.63210  0.81390  1.0000 0.1464097713
H   H9        1.0  0.23530  0.39470  0.99930  1.0000 0.348150785
H   H10       1.0  0.31550  0.47650  0.93880  1.0000 0.348150785
H   H11       1.0  0.98360  0.71440  0.06790  1.0000 0.3220926178
H   H12       1.0  0.10370  0.88030  0.07100  1.0000 0.3126771998
H   H13       1.0  0.29240  0.00620  0.18450  1.0000 0.1464097713
H   H14       1.0  0.36790  0.89550  0.18610  1.0000 0.1464097713
H   H15       1.0  0.60530  0.76470  0.00070  1.0000 0.348150785
H   H16       1.0  0.52350  0.68450  0.06120  1.0000 0.348150785
H   H17       1.0  0.28560  0.01640  0.93210  1.0000 0.3220926178
H   H18       1.0  0.11970  0.89630  0.92900  1.0000 0.3126771998
H   H19       1.0  0.70760  0.99380  0.68450  1.0000 0.1464097713
H   H20       1.0  0.63210  0.10450  0.68610  1.0000 0.1464097713
H   H21       1.0  0.39470  0.23530  0.50070  1.0000 0.348150785
H   H22       1.0  0.47650  0.31550  0.56120  1.0000 0.348150785
H   H23       1.0  0.71440  0.98360  0.43210  1.0000 0.3220926178
H   H24       1.0  0.88030  0.10370  0.42900  1.0000 0.3126771998
H   H25       1.0  0.99380  0.70760  0.68450  1.0000 0.1464097713
H   H26       1.0  0.10450  0.63210  0.68610  1.0000 0.1464097713
H   H27       1.0  0.23530  0.39470  0.50070  1.0000 0.348150785
H   H28       1.0  0.31550  0.47650  0.56120  1.0000 0.348150785
H   H29       1.0  0.98360  0.71440  0.43210  1.0000 0.3220926178
H   H30       1.0  0.10370  0.88030  0.42900  1.0000 0.3126771998
H   H31       1.0  0.00620  0.29240  0.18450  1.0000 0.1464097713
H   H32       1.0  0.89550  0.36790  0.18610  1.0000 0.1464097713
H   H33       1.0  0.76470  0.60530  0.00070  1.0000 0.348150785
H   H34       1.0  0.68450  0.52350  0.06120  1.0000 0.348150785
H   H35       1.0  0.01640  0.28560  0.93210  1.0000 0.3220926178
H   H36       1.0  0.89630  0.11970  0.92900  1.0000 0.3126771998
H   H37       1.0  0.70760  0.99380  0.81550  1.0000 0.1464097713
H   H38       1.0  0.63210  0.10450  0.81390  1.0000 0.1464097713
H   H39       1.0  0.39470  0.23530  0.99930  1.0000 0.348150785
H   H40       1.0  0.47650  0.31550  0.93880  1.0000 0.348150785
H   H41       1.0  0.71440  0.98360  0.06790  1.0000 0.3220926178
H   H42       1.0  0.88030  0.10370  0.07100  1.0000 0.3126771998
H   H43       1.0  0.29240  0.00620  0.31550  1.0000 0.1464097713
H   H44       1.0  0.36790  0.89550  0.31390  1.0000 0.1464097713
H   H45       1.0  0.60530  0.76470  0.49930  1.0000 0.348150785
H   H46       1.0  0.52350  0.68450  0.43880  1.0000 0.348150785
H   H47       1.0  0.28560  0.01640  0.56790  1.0000 0.3220926178
H   H48       1.0  0.11970  0.89630  0.57100  1.0000 0.3126771998
H   H49       1.0  0.22520  0.52900  0.25000  1.0000 0.1088245911
H   H50       1.0  0.11940  0.61000  0.25000  1.0000 0.1040081185
H   H51       1.0  0.77480  0.47100  0.75000  1.0000 0.1088245911
H   H52       1.0  0.88060  0.39000  0.75000  1.0000 0.1040081185
H   H53       1.0  0.52900  0.22520  0.25000  1.0000 0.1088245911
H   H54       1.0  0.61000  0.11940  0.25000  1.0000 0.1040081185
H   H55       1.0  0.47100  0.77480  0.75000  1.0000 0.1088245911
H   H56       1.0  0.39000  0.88060  0.75000  1.0000 0.1040081185
C   C1        1.0  0.09957  0.49723  0.38116  1.0000 0.6730445278
C   C2        1.0  0.01419  0.40001  0.31518  1.0000 -0.3252951253
C   C3        1.0  0.90043  0.50277  0.88116  1.0000 0.6730445278
C   C4        1.0  0.98581  0.59999  0.81518  1.0000 -0.3252951253
C   C5        1.0  0.49723  0.09957  0.11884  1.0000 0.6730445278
C   C6        1.0  0.40001  0.01419  0.18482  1.0000 -0.3252951253
C   C7        1.0  0.50277  0.90043  0.61884  1.0000 0.6730445278
C   C8        1.0  0.59999  0.98581  0.68482  1.0000 -0.3252951253
C   C9        1.0  0.90043  0.50277  0.61884  1.0000 0.6730445278
C   C10       1.0  0.98581  0.59999  0.68482  1.0000 -0.3252951253
C   C11       1.0  0.09957  0.49723  0.11884  1.0000 0.6730445278
C   C12       1.0  0.01419  0.40001  0.18482  1.0000 -0.3252951253
C   C13       1.0  0.50277  0.90043  0.88116  1.0000 0.6730445278
C   C14       1.0  0.59999  0.98581  0.81518  1.0000 -0.3252951253
C   C15       1.0  0.49723  0.09957  0.38116  1.0000 0.6730445278
C   C16       1.0  0.40001  0.01419  0.31518  1.0000 -0.3252951253
C   C17       1.0  0.10813  0.50067  0.25000  1.0000 -0.0730034719
C   C18       1.0  0.89187  0.49933  0.75000  1.0000 -0.0730034719
C   C19       1.0  0.50067  0.10813  0.25000  1.0000 -0.0730034719
C   C20       1.0  0.49933  0.89187  0.75000  1.0000 -0.0730034719
Cl  Cl1       1.0  0.16852  0.16852  0.42680  1.0000 -0.6038651514
Cl  Cl2       1.0  0.83148  0.83148  0.92680  1.0000 -0.6038651514
Cl  Cl3       1.0  0.16852  0.16852  0.07320  1.0000 -0.6038651514
Cl  Cl4       1.0  0.83148  0.83148  0.57320  1.0000 -0.6038651514
O   O1        1.0  0.01000  0.45494  0.43672  1.0000 -0.7267590809
O   O2        1.0  0.25678  0.61848  0.38235  1.0000 -0.6198142517
O   O3        1.0  0.75776  0.54302  0.46770  1.0000 -0.7119797366
O   O4        1.0  0.91275  0.21089  0.57248  1.0000 -0.7119797366
O   O5        1.0  0.99000  0.54506  0.93672  1.0000 -0.7267590809
O   O6        1.0  0.74322  0.38152  0.88235  1.0000 -0.6198142517
O   O7        1.0  0.24224  0.45698  0.96770  1.0000 -0.7119797366
O   O8        1.0  0.08725  0.78911  0.07248  1.0000 -0.7119797366
O   O9        1.0  0.45494  0.01000  0.06328  1.0000 -0.7267590809
O   O10       1.0  0.61848  0.25678  0.11765  1.0000 -0.6198142517
O   O11       1.0  0.54302  0.75776  0.03230  1.0000 -0.7119797366
O   O12       1.0  0.21089  0.91275  0.92752  1.0000 -0.7119797366
O   O13       1.0  0.54506  0.99000  0.56328  1.0000 -0.7267590809
O   O14       1.0  0.38152  0.74322  0.61765  1.0000 -0.6198142517
O   O15       1.0  0.45698  0.24224  0.53230  1.0000 -0.7119797366
O   O16       1.0  0.78911  0.08725  0.42752  1.0000 -0.7119797366
O   O17       1.0  0.99000  0.54506  0.56328  1.0000 -0.7267590809
O   O18       1.0  0.74322  0.38152  0.61765  1.0000 -0.6198142517
O   O19       1.0  0.24224  0.45698  0.53230  1.0000 -0.7119797366
O   O20       1.0  0.08725  0.78911  0.42752  1.0000 -0.7119797366
O   O21       1.0  0.01000  0.45494  0.06328  1.0000 -0.7267590809
O   O22       1.0  0.25678  0.61848  0.11765  1.0000 -0.6198142517
O   O23       1.0  0.75776  0.54302  0.03230  1.0000 -0.7119797366
O   O24       1.0  0.91275  0.21089  0.92752  1.0000 -0.7119797366
O   O25       1.0  0.54506  0.99000  0.93672  1.0000 -0.7267590809
O   O26       1.0  0.38152  0.74322  0.88235  1.0000 -0.6198142517
O   O27       1.0  0.45698  0.24224  0.96770  1.0000 -0.7119797366
O   O28       1.0  0.78911  0.08725  0.07248  1.0000 -0.7119797366
O   O29       1.0  0.45494  0.01000  0.43672  1.0000 -0.7267590809
O   O30       1.0  0.61848  0.25678  0.38235  1.0000 -0.6198142517
O   O31       1.0  0.54302  0.75776  0.46770  1.0000 -0.7119797366
O   O32       1.0  0.21089  0.91275  0.57248  1.0000 -0.7119797366
