# DDEC6 charges by PACMAN v1.1 (https://github.com/mtap-research/PACMAN-charge/)
data_2018[Cd][nan]3[ION]1
_chemical_formula_sum              "Cd8 H116 C160 N40 O46"
_cell_length_a       15.6021
_cell_length_b       19.0255
_cell_length_c       20.8531
_cell_angle_alpha    105.104
_cell_angle_beta     109.343
_cell_angle_gamma    85.229

_symmetry_space_group_name_H-M    "P 1"
_symmetry_Int_Tables_number       1

loop_
  _symmetry_equiv_pos_as_xyz
  'x, y, z'

loop_
  _atom_site_type_symbol
  _atom_site_label
  _atom_site_symmetry_multiplicity
  _atom_site_fract_x
  _atom_site_fract_y
  _atom_site_fract_z
  _atom_site_occupancy
  _atom_site_charge
Cd  Cd1       1.0  0.65513  0.27473  0.57789  1.0000 0.8720549599
Cd  Cd2       1.0  0.34666  0.78761  0.24455  1.0000 0.8444020108
Cd  Cd3       1.0  0.65966  0.22475  0.25269  1.0000 0.8773699954
Cd  Cd4       1.0  0.34106  0.71062  0.93119  1.0000 0.8887336508
Cd  Cd5       1.0  0.34487  0.72527  0.42211  1.0000 0.8720549599
Cd  Cd6       1.0  0.65334  0.21239  0.75545  1.0000 0.8444020108
Cd  Cd7       1.0  0.34034  0.77525  0.74731  1.0000 0.8773699954
Cd  Cd8       1.0  0.65894  0.28938  0.06881  1.0000 0.8887336508
H   H1        1.0  0.54348  0.32855  0.29738  1.0000 0.3141970591
H   H2        1.0  0.62769  0.35720  0.33468  1.0000 0.2804348127
H   H3        1.0  0.30160  0.61998  0.00751  1.0000 0.3299218074
H   H4        1.0  0.37246  0.66364  0.05676  1.0000 0.3394755379
H   H5        1.0  0.58787  0.19437  0.43855  1.0000 0.3490104333
H   H6        1.0  0.53507  0.17316  0.47189  1.0000 0.3193481818
H   H7        1.0  0.50754  0.33946  0.66157  1.0000 0.1084370013
H   H8        1.0  0.46958  0.28249  0.46045  1.0000 0.1009246357
H   H9        1.0  0.15686  0.24370  0.65747  1.0000 0.1391851743
H   H10       1.0  0.50638  0.15056  0.59757  1.0000 0.1084370013
H   H11       1.0  0.51193  0.16510  0.09701  1.0000 0.1084370013
H   H12       1.0  0.16423  0.25784  0.15553  1.0000 0.1515805342
H   H13       1.0  0.91260  0.13848  0.98040  1.0000 0.1391851743
H   H14       1.0  0.47300  0.21982  0.27897  1.0000 0.1084370013
H   H15       1.0  0.35379  0.35372  0.64227  1.0000 0.1319230791
H   H16       1.0  0.90353  0.14595  0.46960  1.0000 0.1391851743
H   H17       1.0  0.27942  0.47649  0.05263  1.0000 0.1319230791
H   H18       1.0  0.35379  0.13787  0.53789  1.0000 0.1319230791
H   H19       1.0  0.16113  0.24894  0.42673  1.0000 0.1515805342
H   H20       1.0  0.35808  0.14991  0.03916  1.0000 0.1319230791
H   H21       1.0  0.35742  0.36086  0.13151  1.0000 0.1391851743
H   H22       1.0  0.77050  0.17346  0.98366  1.0000 0.1009246357
H   H23       1.0  0.51048  0.34758  0.15044  1.0000 0.1084370013
H   H24       1.0  0.31533  0.28382  0.92567  1.0000 0.1391851743
H   H25       1.0  0.31520  0.29530  0.43461  1.0000 0.1391851743
H   H26       1.0  0.76580  0.32696  0.40309  1.0000 0.1009246357
H   H27       1.0  0.76094  0.17975  0.47486  1.0000 0.1009246357
H   H28       1.0  0.33773  0.58043  0.14014  1.0000 0.119704032
H   H29       1.0  0.76616  0.31846  0.90698  1.0000 0.0887273621
H   H30       1.0  0.27930  0.02793  0.08300  1.0000 0.1391851743
H   H31       1.0  0.31910  0.58361  0.67055  1.0000 0.1084370013
H   H32       1.0  0.27353  0.48183  0.57419  1.0000 0.1391851743
H   H33       1.0  0.90837  0.35602  0.97794  1.0000 0.1319230791
H   H34       1.0  0.30789  0.20890  0.72243  1.0000 0.1319230791
H   H35       1.0  0.01313  0.31202  0.14050  1.0000 0.1319230791
H   H36       1.0  0.31987  0.20900  0.22720  1.0000 0.1391851743
H   H37       1.0  0.15943  0.24792  0.91940  1.0000 0.1391851743
H   H38       1.0  0.86277  0.30289  0.66322  1.0000 0.119704032
H   H39       1.0  0.46123  0.22200  0.77628  1.0000 0.1084370013
H   H40       1.0  0.90748  0.36010  0.47843  1.0000 0.1319230791
H   H41       1.0  0.00743  0.27333  0.66363  1.0000 0.1319230791
H   H42       1.0  0.26997  0.01199  0.56012  1.0000 0.1391851743
H   H43       1.0  0.86764  0.34005  0.13998  1.0000 0.1084370013
H   H44       1.0  0.31755  0.91338  0.48509  1.0000 0.119704032
H   H45       1.0  0.46936  0.27194  0.94991  1.0000 0.1084370013
H   H46       1.0  0.18290  0.50785  0.77046  1.0000 0.1319230791
H   H47       1.0  0.13551  0.40797  0.67606  1.0000 0.1319230791
H   H48       1.0  0.14848  0.07786  0.89810  1.0000 0.1319230791
H   H49       1.0  0.14586  0.42435  0.16957  1.0000 0.1391851743
H   H50       1.0  0.19948  0.53226  0.25464  1.0000 0.1319230791
H   H51       1.0  0.33259  0.92145  0.02506  1.0000 0.119704032
H   H52       1.0  0.86263  0.18846  0.76964  1.0000 0.1084370013
H   H53       1.0  0.19788  0.96713  0.84046  1.0000 0.1319230791
H   H54       1.0  0.86419  0.17510  0.28256  1.0000 0.119704032
H   H55       1.0  0.13537  0.09131  0.39307  1.0000 0.1319230791
H   H56       1.0  0.00967  0.20139  0.35618  1.0000 0.1319230791
H   H57       1.0  0.18520  0.99354  0.32071  1.0000 0.1319230791
H   H58       1.0  0.00944  0.21996  0.84021  1.0000 0.1319230791
H   H59       1.0  0.45652  0.67145  0.70262  1.0000 0.3141970591
H   H60       1.0  0.37231  0.64280  0.66532  1.0000 0.2804348127
H   H61       1.0  0.69840  0.38002  0.99249  1.0000 0.3299218074
H   H62       1.0  0.62754  0.33636  0.94324  1.0000 0.3394755379
H   H63       1.0  0.41213  0.80563  0.56145  1.0000 0.3490104333
H   H64       1.0  0.46493  0.82684  0.52811  1.0000 0.3193481818
H   H65       1.0  0.49246  0.66054  0.33843  1.0000 0.1084370013
H   H66       1.0  0.53042  0.71751  0.53955  1.0000 0.1009246357
H   H67       1.0  0.84314  0.75630  0.34253  1.0000 0.1391851743
H   H68       1.0  0.49362  0.84944  0.40243  1.0000 0.1084370013
H   H69       1.0  0.48807  0.83490  0.90299  1.0000 0.1084370013
H   H70       1.0  0.83577  0.74216  0.84447  1.0000 0.1515805342
H   H71       1.0  0.08740  0.86152  0.01960  1.0000 0.1391851743
H   H72       1.0  0.52700  0.78018  0.72103  1.0000 0.1084370013
H   H73       1.0  0.64621  0.64628  0.35773  1.0000 0.1319230791
H   H74       1.0  0.09647  0.85405  0.53040  1.0000 0.1391851743
H   H75       1.0  0.72058  0.52351  0.94737  1.0000 0.1319230791
H   H76       1.0  0.64621  0.86213  0.46211  1.0000 0.1319230791
H   H77       1.0  0.83887  0.75106  0.57327  1.0000 0.1515805342
H   H78       1.0  0.64192  0.85009  0.96084  1.0000 0.1319230791
H   H79       1.0  0.64258  0.63914  0.86849  1.0000 0.1391851743
H   H80       1.0  0.22950  0.82654  0.01634  1.0000 0.1009246357
H   H81       1.0  0.48952  0.65242  0.84956  1.0000 0.1084370013
H   H82       1.0  0.68467  0.71618  0.07433  1.0000 0.1391851743
H   H83       1.0  0.68480  0.70470  0.56539  1.0000 0.1391851743
H   H84       1.0  0.23420  0.67304  0.59691  1.0000 0.1009246357
H   H85       1.0  0.23906  0.82025  0.52514  1.0000 0.1009246357
H   H86       1.0  0.66227  0.41957  0.85986  1.0000 0.119704032
H   H87       1.0  0.23384  0.68154  0.09302  1.0000 0.0887273621
H   H88       1.0  0.72070  0.97207  0.91700  1.0000 0.1391851743
H   H89       1.0  0.68090  0.41639  0.32945  1.0000 0.1084370013
H   H90       1.0  0.72647  0.51817  0.42581  1.0000 0.1391851743
H   H91       1.0  0.09163  0.64398  0.02206  1.0000 0.1319230791
H   H92       1.0  0.69211  0.79110  0.27757  1.0000 0.1319230791
H   H93       1.0  0.98687  0.68798  0.85950  1.0000 0.1319230791
H   H94       1.0  0.68013  0.79100  0.77280  1.0000 0.1391851743
H   H95       1.0  0.84057  0.75208  0.08060  1.0000 0.1391851743
H   H96       1.0  0.13723  0.69711  0.33678  1.0000 0.119704032
H   H97       1.0  0.53877  0.77800  0.22372  1.0000 0.1084370013
H   H98       1.0  0.09252  0.63990  0.52157  1.0000 0.1391851743
H   H99       1.0  0.99257  0.72667  0.33637  1.0000 0.1319230791
H   H100      1.0  0.73003  0.98801  0.43988  1.0000 0.1391851743
H   H101      1.0  0.13236  0.65995  0.86002  1.0000 0.1084370013
H   H102      1.0  0.68245  0.08662  0.51491  1.0000 0.119704032
H   H103      1.0  0.53064  0.72806  0.05009  1.0000 0.1084370013
H   H104      1.0  0.81710  0.49215  0.22954  1.0000 0.1319230791
H   H105      1.0  0.86449  0.59203  0.32394  1.0000 0.1319230791
H   H106      1.0  0.85152  0.92214  0.10190  1.0000 0.1319230791
H   H107      1.0  0.85414  0.57565  0.83043  1.0000 0.1391851743
H   H108      1.0  0.80052  0.46774  0.74536  1.0000 0.1319230791
H   H109      1.0  0.66741  0.07855  0.97494  1.0000 0.119704032
H   H110      1.0  0.13737  0.81154  0.23036  1.0000 0.1084370013
H   H111      1.0  0.80212  0.03287  0.15954  1.0000 0.1319230791
H   H112      1.0  0.13581  0.82490  0.71744  1.0000 0.119704032
H   H113      1.0  0.86463  0.90869  0.60693  1.0000 0.1319230791
H   H114      1.0  0.99033  0.79861  0.64382  1.0000 0.1319230791
H   H115      1.0  0.81480  0.00646  0.67929  1.0000 0.1319230791
H   H116      1.0  0.99056  0.78004  0.15979  1.0000 0.1319230791
C   C1        1.0  0.46830  0.32960  0.61560  1.0000 0.1009246357
C   C2        1.0  0.31530  0.32550  0.53640  1.0000 0.1084370013
C   C3        1.0  0.21590  0.32900  0.51910  1.0000 0.0887273621
C   C4        1.0  0.31260  0.17140  0.62330  1.0000 0.1084370013
C   C5        1.0  0.31710  0.32360  0.02670  1.0000 0.1009246357
C   C6        1.0  0.21320  0.16690  0.59100  1.0000 0.0819483368
C   C7        1.0  0.44560  0.29620  0.49720  1.0000 0.0617025283
C   C8        1.0  0.32020  0.17920  0.12630  1.0000 0.1009246357
C   C9        1.0  0.22100  0.17580  0.09350  1.0000 0.0887273621
C   C10       1.0  0.14750  0.20790  0.61580  1.0000 -0.3107532506
C   C11       1.0  0.46600  0.16320  0.62290  1.0000 0.0887273621
C   C12       1.0  0.47260  0.17450  0.12340  1.0000 0.1084370013
C   C13       1.0  0.15540  0.22000  0.11540  1.0000 -0.2992473587
C   C14       1.0  0.90520  0.17910  0.01430  1.0000 -0.1798408858
C   C15       1.0  0.20110  0.43520  0.61690  1.0000 0.1391851743
C   C16       1.0  0.44950  0.20700  0.23030  1.0000 0.0617025283
C   C17       1.0  0.37550  0.33880  0.60430  1.0000 -0.1920722948
C   C18       1.0  0.89690  0.17820  0.50970  1.0000 -0.171309086
C   C19       1.0  0.26460  0.48740  0.09380  1.0000 -0.1920722948
C   C20       1.0  0.29090  0.88140  0.34690  1.0000 0.5459410206
C   C21       1.0  0.20830  0.44080  0.10370  1.0000 0.1391851743
C   C22       1.0  0.97340  0.20610  0.56640  1.0000 0.1009246357
C   C23       1.0  0.37410  0.15470  0.58650  1.0000 -0.1969862376
C   C24       1.0  0.15120  0.28560  0.46290  1.0000 -0.2992473587
C   C25       1.0  0.37970  0.16520  0.08780  1.0000 -0.1969862376
C   C26       1.0  0.37840  0.34250  0.09350  1.0000 -0.1920722948
C   C27       1.0  0.82000  0.20070  0.01640  1.0000 0.071243915
C   C28       1.0  0.47070  0.33450  0.10480  1.0000 0.0887273621
C   C29       1.0  0.35360  0.29690  0.97190  1.0000 -0.1920722948
C   C30       1.0  0.35260  0.30400  0.48110  1.0000 -0.1637369438
C   C31       1.0  0.25590  0.55420  0.72990  1.0000 -0.0225242807
C   C32       1.0  0.81560  0.30250  0.39270  1.0000 0.0617025283
C   C33       1.0  0.81110  0.19860  0.51330  1.0000 0.0887273621
C   C34       1.0  0.29840  0.54990  0.14550  1.0000 -0.0976914919
C   C35       1.0  0.81560  0.29780  0.89340  1.0000 0.0617025283
C   C36       1.0  0.29000  0.61720  0.79540  1.0000 0.5615924652
C   C37       1.0  0.06470  0.18370  0.56490  1.0000 0.1515805342
C   C38       1.0  0.26380  0.01600  0.03440  1.0000 -0.1798408858
C   C39       1.0  0.21810  0.32920  0.01020  1.0000 0.0887273621
C   C40       1.0  0.28290  0.54770  0.67150  1.0000 -0.0976914919
C   C41       1.0  0.20870  0.06250  0.99560  1.0000 0.1391851743
C   C42       1.0  0.25550  0.48690  0.61340  1.0000 -0.171309086
C   C43       1.0  0.90130  0.31990  0.93670  1.0000 -0.1798408858
C   C44       1.0  0.07270  0.19490  0.06350  1.0000 0.1615137041
C   C45       1.0  0.34690  0.19710  0.69580  1.0000 -0.1920722948
C   C46       1.0  0.96520  0.28180  0.10950  1.0000 -0.171309086
C   C47       1.0  0.35760  0.20000  0.19960  1.0000 -0.171309086
C   C48       1.0  0.15110  0.28630  0.95490  1.0000 -0.3153153404
C   C49       1.0  0.87110  0.27080  0.62370  1.0000 0.0887273621
C   C50       1.0  0.43940  0.20470  0.72780  1.0000 0.0819483368
C   C51       1.0  0.98050  0.21820  0.06330  1.0000 0.1009246357
C   C52       1.0  0.30340  0.86100  0.89090  1.0000 0.5615924652
C   C53       1.0  0.30830  0.63700  0.25990  1.0000 0.5615924652
C   C54       1.0  0.25750  0.94510  0.39670  1.0000 -0.0225242807
C   C55       1.0  0.90070  0.32200  0.43870  1.0000 -0.1798408858
C   C56       1.0  0.27300  0.56600  0.20470  1.0000 -0.0287846412
C   C57       1.0  0.19880  0.06160  0.48380  1.0000 0.1319230791
C   C58       1.0  0.95860  0.25350  0.62450  1.0000 -0.1920722948
C   C59       1.0  0.25290  0.00880  0.51230  1.0000 -0.171309086
C   C60       1.0  0.87710  0.29860  0.10780  1.0000 0.0819483368
C   C61       1.0  0.28170  0.94960  0.46690  1.0000 -0.0804891004
C   C62       1.0  0.44640  0.29010  0.98680  1.0000 0.0887273621
C   C63       1.0  0.27070  0.93380  0.92760  1.0000 -0.0287846412
C   C64       1.0  0.20130  0.50270  0.73140  1.0000 -0.0804891004
C   C65       1.0  0.06820  0.30870  0.47250  1.0000 0.1615137041
C   C66       1.0  0.97670  0.28600  0.42680  1.0000 0.1009246357
C   C67       1.0  0.06910  0.31320  0.96420  1.0000 0.1515805342
C   C68       1.0  0.17310  0.44290  0.67500  1.0000 -0.1798408858
C   C69       1.0  0.18420  0.04620  0.92330  1.0000 -0.1920722948
C   C70       1.0  0.18320  0.45590  0.16340  1.0000 -0.1798408858
C   C71       1.0  0.21600  0.52010  0.21410  1.0000 -0.0717534973
C   C72       1.0  0.29500  0.95210  0.99960  1.0000 -0.0859916627
C   C73       1.0  0.97670  0.28970  0.92070  1.0000 0.1009246357
C   C74       1.0  0.87190  0.22120  0.81310  1.0000 0.1009246357
C   C75       1.0  0.21490  0.98020  0.88920  1.0000 -0.0804891004
C   C76       1.0  0.87320  0.21330  0.32240  1.0000 0.1009246357
C   C77       1.0  0.17260  0.05610  0.41200  1.0000 -0.171309086
C   C78       1.0  0.96140  0.22860  0.36650  1.0000 -0.171309086
C   C79       1.0  0.20250  0.99740  0.36870  1.0000 -0.0717534973
C   C80       1.0  0.96100  0.24010  0.85530  1.0000 -0.1969862376
C   C81       1.0  0.53170  0.67040  0.38440  1.0000 0.1009246357
C   C82       1.0  0.68470  0.67450  0.46360  1.0000 0.1084370013
C   C83       1.0  0.78410  0.67100  0.48090  1.0000 0.0887273621
C   C84       1.0  0.68740  0.82860  0.37670  1.0000 0.1084370013
C   C85       1.0  0.68290  0.67640  0.97330  1.0000 0.1009246357
C   C86       1.0  0.78680  0.83310  0.40900  1.0000 0.0819483368
C   C87       1.0  0.55440  0.70380  0.50280  1.0000 0.0617025283
C   C88       1.0  0.67980  0.82080  0.87370  1.0000 0.1009246357
C   C89       1.0  0.77900  0.82420  0.90650  1.0000 0.0887273621
C   C90       1.0  0.85250  0.79210  0.38420  1.0000 -0.3107532506
C   C91       1.0  0.53400  0.83680  0.37710  1.0000 0.0887273621
C   C92       1.0  0.52740  0.82550  0.87660  1.0000 0.1084370013
C   C93       1.0  0.84460  0.78000  0.88460  1.0000 -0.2992473587
C   C94       1.0  0.09480  0.82090  0.98570  1.0000 -0.1798408858
C   C95       1.0  0.79890  0.56480  0.38310  1.0000 0.1391851743
C   C96       1.0  0.55050  0.79300  0.76970  1.0000 0.0617025283
C   C97       1.0  0.62450  0.66120  0.39570  1.0000 -0.1920722948
C   C98       1.0  0.10310  0.82180  0.49030  1.0000 -0.171309086
C   C99       1.0  0.73540  0.51260  0.90620  1.0000 -0.1920722948
C   C100      1.0  0.70910  0.11860  0.65310  1.0000 0.5459410206
C   C101      1.0  0.79170  0.55920  0.89630  1.0000 0.1391851743
C   C102      1.0  0.02660  0.79390  0.43360  1.0000 0.1009246357
C   C103      1.0  0.62590  0.84530  0.41350  1.0000 -0.1969862376
C   C104      1.0  0.84880  0.71440  0.53710  1.0000 -0.2992473587
C   C105      1.0  0.62030  0.83480  0.91220  1.0000 -0.1969862376
C   C106      1.0  0.62160  0.65750  0.90650  1.0000 -0.1920722948
C   C107      1.0  0.18000  0.79930  0.98360  1.0000 0.071243915
C   C108      1.0  0.52930  0.66550  0.89520  1.0000 0.0887273621
C   C109      1.0  0.64640  0.70310  0.02810  1.0000 -0.1920722948
C   C110      1.0  0.64740  0.69600  0.51890  1.0000 -0.1637369438
C   C111      1.0  0.74410  0.44580  0.27010  1.0000 -0.0225242807
C   C112      1.0  0.18440  0.69750  0.60730  1.0000 0.0617025283
C   C113      1.0  0.18890  0.80140  0.48670  1.0000 0.0887273621
C   C114      1.0  0.70160  0.45010  0.85450  1.0000 -0.0976914919
C   C115      1.0  0.18440  0.70220  0.10660  1.0000 0.0617025283
C   C116      1.0  0.71000  0.38280  0.20460  1.0000 0.5615924652
C   C117      1.0  0.93530  0.81630  0.43510  1.0000 0.1515805342
C   C118      1.0  0.73620  0.98400  0.96560  1.0000 -0.1798408858
C   C119      1.0  0.78190  0.67080  0.98980  1.0000 0.0887273621
C   C120      1.0  0.71710  0.45230  0.32850  1.0000 -0.0976914919
C   C121      1.0  0.79130  0.93750  0.00440  1.0000 0.1391851743
C   C122      1.0  0.74450  0.51310  0.38660  1.0000 -0.171309086
C   C123      1.0  0.09870  0.68010  0.06330  1.0000 -0.1798408858
C   C124      1.0  0.92730  0.80510  0.93650  1.0000 0.1615137041
C   C125      1.0  0.65310  0.80290  0.30420  1.0000 -0.1920722948
C   C126      1.0  0.03480  0.71820  0.89050  1.0000 -0.171309086
C   C127      1.0  0.64240  0.80000  0.80040  1.0000 -0.171309086
C   C128      1.0  0.84890  0.71370  0.04510  1.0000 -0.3107532506
C   C129      1.0  0.12890  0.72920  0.37630  1.0000 0.0887273621
C   C130      1.0  0.56060  0.79530  0.27220  1.0000 0.0819483368
C   C131      1.0  0.01950  0.78180  0.93670  1.0000 0.1009246357
C   C132      1.0  0.69660  0.13900  0.10910  1.0000 0.5615924652
C   C133      1.0  0.69170  0.36300  0.74010  1.0000 0.5615924652
C   C134      1.0  0.74250  0.05490  0.60330  1.0000 -0.0225242807
C   C135      1.0  0.09930  0.67800  0.56130  1.0000 -0.1798408858
C   C136      1.0  0.72700  0.43400  0.79530  1.0000 -0.0287846412
C   C137      1.0  0.80120  0.93840  0.51620  1.0000 0.1319230791
C   C138      1.0  0.04140  0.74650  0.37550  1.0000 -0.1920722948
C   C139      1.0  0.74710  0.99120  0.48770  1.0000 -0.171309086
C   C140      1.0  0.12290  0.70140  0.89220  1.0000 0.0819483368
C   C141      1.0  0.71830  0.05040  0.53310  1.0000 -0.0804891004
C   C142      1.0  0.55360  0.70990  0.01320  1.0000 0.0887273621
C   C143      1.0  0.72930  0.06620  0.07240  1.0000 -0.0287846412
C   C144      1.0  0.79870  0.49730  0.26860  1.0000 -0.0804891004
C   C145      1.0  0.93180  0.69130  0.52750  1.0000 0.1615137041
C   C146      1.0  0.02330  0.71400  0.57320  1.0000 0.1009246357
C   C147      1.0  0.93090  0.68680  0.03580  1.0000 0.1515805342
C   C148      1.0  0.82690  0.55710  0.32500  1.0000 -0.1798408858
C   C149      1.0  0.81580  0.95380  0.07670  1.0000 -0.1920722948
C   C150      1.0  0.81680  0.54410  0.83660  1.0000 -0.1798408858
C   C151      1.0  0.78400  0.47990  0.78590  1.0000 -0.0717534973
C   C152      1.0  0.70500  0.04790  0.00040  1.0000 -0.0859916627
C   C153      1.0  0.02330  0.71030  0.07930  1.0000 0.1009246357
C   C154      1.0  0.12810  0.77880  0.18690  1.0000 0.1009246357
C   C155      1.0  0.78510  0.01980  0.11080  1.0000 -0.0717534973
C   C156      1.0  0.12680  0.78670  0.67760  1.0000 0.1009246357
C   C157      1.0  0.82740  0.94390  0.58800  1.0000 -0.171309086
C   C158      1.0  0.03860  0.77140  0.63350  1.0000 -0.171309086
C   C159      1.0  0.79750  0.00260  0.63130  1.0000 -0.0717534973
C   C160      1.0  0.03900  0.75990  0.14470  1.0000 -0.1969862376
N   N1        1.0  0.50340  0.30730  0.56330  1.0000 -0.26082087
N   N2        1.0  0.50020  0.18860  0.69270  1.0000 -0.2298746824
N   N3        1.0  0.50820  0.19590  0.19280  1.0000 -0.26082087
N   N4        1.0  0.17010  0.37350  0.55870  1.0000 0.1009246357
N   N5        1.0  0.07580  0.13120  0.51130  1.0000 -0.2482943479
N   N6        1.0  0.07910  0.36250  0.53100  1.0000 -0.2693879102
N   N7        1.0  0.79710  0.24450  0.56970  1.0000 -0.2482943479
N   N8        1.0  0.80440  0.25970  0.06360  1.0000 -0.2693879102
N   N9        1.0  0.50470  0.30850  0.05210  1.0000 -0.2298746824
N   N10       1.0  0.17380  0.37720  0.04880  1.0000 0.0887273621
N   N11       1.0  0.17550  0.12760  0.03250  1.0000 0.0887273621
N   N12       1.0  0.08430  0.13860  0.01370  1.0000 -0.2693879102
N   N13       1.0  0.16650  0.12140  0.52800  1.0000 0.1084370013
N   N14       1.0  0.80070  0.24910  0.33300  1.0000 -0.2482943479
N   N15       1.0  0.79990  0.24740  0.83160  1.0000 -0.2398063137
N   N16       1.0  0.08200  0.36810  0.02150  1.0000 -0.26082087
N   N17       1.0  0.66010  0.11820  0.33210  1.0000 0.6998786882
N   N18       1.0  0.66500  0.38120  0.49960  1.0000 0.6939058558
N   N19       1.0  0.38280  0.80070  0.12190  1.0000 0.6998786882
N   N20       1.0  0.49660  0.69270  0.43670  1.0000 -0.26082087
N   N21       1.0  0.49980  0.81140  0.30730  1.0000 -0.2298746824
N   N22       1.0  0.49180  0.80410  0.80720  1.0000 -0.26082087
N   N23       1.0  0.82990  0.62650  0.44130  1.0000 0.1009246357
N   N24       1.0  0.92420  0.86880  0.48870  1.0000 -0.2482943479
N   N25       1.0  0.92090  0.63750  0.46900  1.0000 -0.2693879102
N   N26       1.0  0.20290  0.75550  0.43030  1.0000 -0.2482943479
N   N27       1.0  0.19560  0.74030  0.93640  1.0000 -0.2693879102
N   N28       1.0  0.49530  0.69150  0.94790  1.0000 -0.2298746824
N   N29       1.0  0.82620  0.62280  0.95120  1.0000 0.0887273621
N   N30       1.0  0.82450  0.87240  0.96750  1.0000 0.0887273621
N   N31       1.0  0.91570  0.86140  0.98630  1.0000 -0.2693879102
N   N32       1.0  0.83350  0.87860  0.47200  1.0000 0.1084370013
N   N33       1.0  0.19930  0.75090  0.66700  1.0000 -0.2482943479
N   N34       1.0  0.20010  0.75260  0.16840  1.0000 -0.2398063137
N   N35       1.0  0.91800  0.63190  0.97850  1.0000 -0.26082087
N   N36       1.0  0.33990  0.88180  0.66790  1.0000 0.6998786882
N   N37       1.0  0.33500  0.61880  0.50040  1.0000 0.6939058558
N   N38       1.0  0.61720  0.19930  0.87810  1.0000 0.6998786882
N   N39       1.0  0.16600  0.23530  0.29200  1.0000 0.6740507142
N   N40       1.0  0.83400  0.76470  0.70800  1.0000 0.6740507142
O   O1        1.0  0.28170  0.65230  0.31140  1.0000 -0.5308720811
O   O2        1.0  0.28400  0.89260  0.28880  1.0000 -0.5140937313
O   O3        1.0  0.62690  0.32480  0.46180  1.0000 -0.398580712
O   O4        1.0  0.32550  0.67170  0.79150  1.0000 -0.5980180844
O   O5        1.0  0.27790  0.84680  0.82670  1.0000 -0.5212959393
O   O6        1.0  0.28230  0.60820  0.85120  1.0000 -0.5450899347
O   O7        1.0  0.32610  0.82870  0.36820  1.0000 -0.5584239705
O   O8        1.0  0.35570  0.82490  0.93000  1.0000 -0.5584239705
O   O9        1.0  0.36410  0.67300  0.24880  1.0000 -0.5584239705
O   O10       1.0  0.59680  0.31740  0.32210  1.0000 -0.6537658914
O   O11       1.0  0.35530  0.63720  0.01270  1.0000 -0.6689332172
O   O12       1.0  0.59220  0.18130  0.47710  1.0000 -0.6689332172
O   O13       1.0  0.68910  0.38970  0.56530  1.0000 -0.4297929152
O   O14       1.0  0.62730  0.17580  0.35360  1.0000 -0.4119412844
O   O15       1.0  0.36070  0.85590  0.16260  1.0000 -0.4397089774
O   O16       1.0  0.67310  0.06700  0.36300  1.0000 -0.4162727936
O   O17       1.0  0.68070  0.42990  0.47440  1.0000 -0.4119412844
O   O18       1.0  0.68530  0.10610  0.27800  1.0000 -0.4397089774
O   O19       1.0  0.39190  0.79360  0.06200  1.0000 -0.4397089774
O   O20       1.0  0.39600  0.73140  0.13780  1.0000 -0.569203709
O   O21       1.0  0.71830  0.34770  0.68860  1.0000 -0.5308720811
O   O22       1.0  0.71600  0.10740  0.71120  1.0000 -0.5140937313
O   O23       1.0  0.37310  0.67520  0.53820  1.0000 -0.398580712
O   O24       1.0  0.67450  0.32830  0.20850  1.0000 -0.5980180844
O   O25       1.0  0.72210  0.15320  0.17330  1.0000 -0.5212959393
O   O26       1.0  0.71770  0.39180  0.14880  1.0000 -0.5450899347
O   O27       1.0  0.67390  0.17130  0.63180  1.0000 -0.5584239705
O   O28       1.0  0.64430  0.17510  0.07000  1.0000 -0.5584239705
O   O29       1.0  0.63590  0.32700  0.75120  1.0000 -0.5584239705
O   O30       1.0  0.40320  0.68260  0.67790  1.0000 -0.6537658914
O   O31       1.0  0.64470  0.36280  0.98730  1.0000 -0.6689332172
O   O32       1.0  0.40780  0.81870  0.52290  1.0000 -0.6689332172
O   O33       1.0  0.31090  0.61030  0.43470  1.0000 -0.4297929152
O   O34       1.0  0.37270  0.82420  0.64640  1.0000 -0.4119412844
O   O35       1.0  0.63930  0.14410  0.83740  1.0000 -0.4397089774
O   O36       1.0  0.32690  0.93300  0.63700  1.0000 -0.4162727936
O   O37       1.0  0.31930  0.57010  0.52560  1.0000 -0.4119412844
O   O38       1.0  0.31470  0.89390  0.72200  1.0000 -0.4397089774
O   O39       1.0  0.60810  0.20640  0.93800  1.0000 -0.4397089774
O   O40       1.0  0.60400  0.26860  0.86220  1.0000 -0.569203709
O   O41       1.0  0.24130  0.25590  0.30690  1.0000 -0.398580712
O   O42       1.0  0.15980  0.17780  0.31470  1.0000 -0.4671480402
O   O43       1.0  0.09190  0.25480  0.25790  1.0000 -0.4119412844
O   O44       1.0  0.75870  0.74410  0.69310  1.0000 -0.398580712
O   O45       1.0  0.84020  0.82220  0.68530  1.0000 -0.4671480402
O   O46       1.0  0.90810  0.74520  0.74210  1.0000 -0.4119412844
