# DDEC6 charges by PACMAN v1.1 (https://github.com/mtap-research/PACMAN-charge/)
data_2018[Cu][ths]3[ION]3
_chemical_formula_sum              "Cu8 H64 C48 N4 O48"
_cell_length_a       8.6081
_cell_length_b       34.1408
_cell_length_c       8.6987
_cell_angle_alpha    90
_cell_angle_beta     107.578
_cell_angle_gamma    90

_symmetry_space_group_name_H-M    "P 1"
_symmetry_Int_Tables_number       1

loop_
  _symmetry_equiv_pos_as_xyz
  'x, y, z'

loop_
  _atom_site_type_symbol
  _atom_site_label
  _atom_site_symmetry_multiplicity
  _atom_site_fract_x
  _atom_site_fract_y
  _atom_site_fract_z
  _atom_site_occupancy
  _atom_site_charge
Cu  Cu1       1.0  0.51921  0.79653  0.25136  1.0000 0.9067755714
Cu  Cu2       1.0  0.98079  0.29653  0.74864  1.0000 0.9067755714
Cu  Cu3       1.0  0.48079  0.20347  0.74864  1.0000 0.9067755714
Cu  Cu4       1.0  0.01921  0.70347  0.25136  1.0000 0.9067755714
Cu  Cu5       1.0  0.50169  0.95447  0.26214  1.0000 0.8707334176
Cu  Cu6       1.0  0.99831  0.45447  0.73786  1.0000 0.8707334176
Cu  Cu7       1.0  0.49831  0.04553  0.73786  1.0000 0.8707334176
Cu  Cu8       1.0  0.00169  0.54553  0.26214  1.0000 0.8707334176
H   H1        1.0  0.29540  0.56610  0.08640  1.0000 0.2653966918
H   H2        1.0  0.27410  0.62880  0.99890  1.0000 0.1097721892
H   H3        1.0  0.32530  0.62960  0.19140  1.0000 0.1097721892
H   H4        1.0  0.47280  0.67680  0.09910  1.0000 0.16238131
H   H5        1.0  0.54420  0.64370  0.00900  1.0000 0.1478227166
H   H6        1.0  0.59550  0.64450  0.20180  1.0000 0.1478227166
H   H7        1.0  0.57520  0.57830  0.98610  1.0000 0.1169593341
H   H8        1.0  0.47930  0.53780  0.97600  1.0000 0.1097721892
H   H9        1.0  0.40650  0.56800  0.72300  1.0000 0.1478227166
H   H10       1.0  0.34640  0.60600  0.79640  1.0000 0.1379703935
H   H11       1.0  0.25040  0.56550  0.78630  1.0000 0.1478227166
H   H12       1.0  0.46820  0.58110  0.34970  1.0000 0.1169593341
H   H13       1.0  0.62050  0.57790  0.28100  1.0000 0.1169593341
H   H14       1.0  0.58470  0.51910  0.40190  1.0000 0.1478227166
H   H15       1.0  0.55550  0.51220  0.21330  1.0000 0.1379703935
H   H16       1.0  0.40320  0.51540  0.28200  1.0000 0.1478227166
H   H17       1.0  0.20460  0.06610  0.91360  1.0000 0.2653966918
H   H18       1.0  0.22590  0.12880  0.00110  1.0000 0.1097721892
H   H19       1.0  0.17470  0.12960  0.80860  1.0000 0.1097721892
H   H20       1.0  0.02720  0.17680  0.90090  1.0000 0.16238131
H   H21       1.0  0.95580  0.14370  0.99100  1.0000 0.1478227166
H   H22       1.0  0.90450  0.14450  0.79820  1.0000 0.1478227166
H   H23       1.0  0.92480  0.07830  0.01390  1.0000 0.1169593341
H   H24       1.0  0.02070  0.03780  0.02400  1.0000 0.1097721892
H   H25       1.0  0.09350  0.06800  0.27700  1.0000 0.1478227166
H   H26       1.0  0.15360  0.10600  0.20360  1.0000 0.1379703935
H   H27       1.0  0.24960  0.06550  0.21370  1.0000 0.1478227166
H   H28       1.0  0.03180  0.08110  0.65030  1.0000 0.1169593341
H   H29       1.0  0.87950  0.07790  0.71900  1.0000 0.1169593341
H   H30       1.0  0.91530  0.01910  0.59810  1.0000 0.1478227166
H   H31       1.0  0.94450  0.01220  0.78670  1.0000 0.1379703935
H   H32       1.0  0.09680  0.01540  0.71800  1.0000 0.1478227166
H   H33       1.0  0.70460  0.43390  0.91360  1.0000 0.2653966918
H   H34       1.0  0.72590  0.37120  0.00110  1.0000 0.1097721892
H   H35       1.0  0.67470  0.37040  0.80860  1.0000 0.1097721892
H   H36       1.0  0.52720  0.32320  0.90090  1.0000 0.16238131
H   H37       1.0  0.45580  0.35630  0.99100  1.0000 0.1478227166
H   H38       1.0  0.40450  0.35550  0.79820  1.0000 0.1478227166
H   H39       1.0  0.42480  0.42170  0.01390  1.0000 0.1169593341
H   H40       1.0  0.52070  0.46220  0.02400  1.0000 0.1097721892
H   H41       1.0  0.59350  0.43200  0.27700  1.0000 0.1478227166
H   H42       1.0  0.65360  0.39400  0.20360  1.0000 0.1379703935
H   H43       1.0  0.74960  0.43450  0.21370  1.0000 0.1478227166
H   H44       1.0  0.53180  0.41890  0.65030  1.0000 0.1169593341
H   H45       1.0  0.37950  0.42210  0.71900  1.0000 0.1169593341
H   H46       1.0  0.41530  0.48090  0.59810  1.0000 0.1478227166
H   H47       1.0  0.44450  0.48780  0.78670  1.0000 0.1379703935
H   H48       1.0  0.59680  0.48460  0.71800  1.0000 0.1478227166
H   H49       1.0  0.79540  0.93390  0.08640  1.0000 0.2653966918
H   H50       1.0  0.77410  0.87120  0.99890  1.0000 0.1097721892
H   H51       1.0  0.82530  0.87040  0.19140  1.0000 0.1097721892
H   H52       1.0  0.97280  0.82320  0.09910  1.0000 0.16238131
H   H53       1.0  0.04420  0.85630  0.00900  1.0000 0.1478227166
H   H54       1.0  0.09550  0.85550  0.20180  1.0000 0.1478227166
H   H55       1.0  0.07520  0.92170  0.98610  1.0000 0.1169593341
H   H56       1.0  0.97930  0.96220  0.97600  1.0000 0.1097721892
H   H57       1.0  0.90650  0.93200  0.72300  1.0000 0.1478227166
H   H58       1.0  0.84640  0.89400  0.79640  1.0000 0.1379703935
H   H59       1.0  0.75040  0.93450  0.78630  1.0000 0.1478227166
H   H60       1.0  0.96820  0.91890  0.34970  1.0000 0.1169593341
H   H61       1.0  0.12050  0.92210  0.28100  1.0000 0.1169593341
H   H62       1.0  0.08470  0.98090  0.40190  1.0000 0.1478227166
H   H63       1.0  0.05550  0.98780  0.21330  1.0000 0.1379703935
H   H64       1.0  0.90320  0.98460  0.28200  1.0000 0.1478227166
C   C1        1.0  0.43780  0.87677  0.18220  1.0000 0.4599649906
C   C2        1.0  0.06220  0.37677  0.81780  1.0000 0.4599649906
C   C3        1.0  0.56220  0.12323  0.81780  1.0000 0.4599649906
C   C4        1.0  0.93780  0.62323  0.18220  1.0000 0.4599649906
C   C5        1.0  0.59470  0.87405  0.33050  1.0000 0.4599649906
C   C6        1.0  0.90530  0.37405  0.66950  1.0000 0.4599649906
C   C7        1.0  0.40530  0.12595  0.66950  1.0000 0.4599649906
C   C8        1.0  0.09470  0.62595  0.33050  1.0000 0.4599649906
C   C9        1.0  0.28070  0.74137  0.18960  1.0000 0.4705628641
C   C10       1.0  0.21930  0.24137  0.81040  1.0000 0.4705628641
C   C11       1.0  0.71930  0.25863  0.81040  1.0000 0.4705628641
C   C12       1.0  0.78070  0.75863  0.18960  1.0000 0.4705628641
C   C13       1.0  0.26770  0.76385  0.34010  1.0000 0.4705628641
C   C14       1.0  0.23230  0.26385  0.65990  1.0000 0.4705628641
C   C15       1.0  0.73230  0.23615  0.65990  1.0000 0.4705628641
C   C16       1.0  0.76770  0.73615  0.34010  1.0000 0.4705628641
C   C17       1.0  0.57880  0.98864  0.00010  1.0000 0.4599649906
C   C18       1.0  0.92120  0.48864  0.99990  1.0000 0.4599649906
C   C19       1.0  0.42120  0.01136  0.99990  1.0000 0.4599649906
C   C20       1.0  0.07880  0.51136  0.00010  1.0000 0.4599649906
C   C21       1.0  0.43050  0.98774  0.51500  1.0000 0.4529118463
C   C22       1.0  0.06950  0.48774  0.48500  1.0000 0.4529118463
C   C23       1.0  0.56950  0.01226  0.48500  1.0000 0.4529118463
C   C24       1.0  0.93050  0.51226  0.51500  1.0000 0.4529118463
C   C25       1.0  0.36400  0.62312  0.09830  1.0000 -0.0278653023
C   C26       1.0  0.50670  0.64930  0.10240  1.0000 -0.3913224165
C   C27       1.0  0.46620  0.56662  0.96980  1.0000 -0.0241476915
C   C28       1.0  0.35790  0.57747  0.80450  1.0000 -0.3913224165
C   C29       1.0  0.50840  0.56830  0.26690  1.0000 -0.0278653023
C   C30       1.0  0.51340  0.52501  0.29330  1.0000 -0.4011566565
C   C31       1.0  0.13600  0.12312  0.90170  1.0000 -0.0278653023
C   C32       1.0  0.99330  0.14930  0.89760  1.0000 -0.3913224165
C   C33       1.0  0.03380  0.06662  0.03020  1.0000 -0.0241476915
C   C34       1.0  0.14210  0.07747  0.19550  1.0000 -0.4011566565
C   C35       1.0  0.99160  0.06830  0.73310  1.0000 -0.0278653023
C   C36       1.0  0.98660  0.02501  0.70670  1.0000 -0.4011566565
C   C37       1.0  0.63600  0.37688  0.90170  1.0000 -0.0278653023
C   C38       1.0  0.49330  0.35070  0.89760  1.0000 -0.3913224165
C   C39       1.0  0.53380  0.43338  0.03020  1.0000 -0.0241476915
C   C40       1.0  0.64210  0.42253  0.19550  1.0000 -0.4011566565
C   C41       1.0  0.49160  0.43170  0.73310  1.0000 -0.0278653023
C   C42       1.0  0.48660  0.47499  0.70670  1.0000 -0.4011566565
C   C43       1.0  0.86400  0.87688  0.09830  1.0000 -0.0278653023
C   C44       1.0  0.00670  0.85070  0.10240  1.0000 -0.3913224165
C   C45       1.0  0.96620  0.93338  0.96980  1.0000 -0.0241476915
C   C46       1.0  0.85790  0.92253  0.80450  1.0000 -0.3913224165
C   C47       1.0  0.00840  0.93170  0.26690  1.0000 -0.0278653023
C   C48       1.0  0.01340  0.97499  0.29330  1.0000 -0.4011566565
N   N1        1.0  0.40150  0.58000  0.10280  1.0000 -0.0241476915
N   N2        1.0  0.09850  0.08000  0.89720  1.0000 -0.0241476915
N   N3        1.0  0.59850  0.42000  0.89720  1.0000 -0.0241476915
N   N4        1.0  0.90150  0.92000  0.10280  1.0000 -0.0241476915
O   O1        1.0  0.38942  0.84650  0.10431  1.0000 -0.4606310303
O   O2        1.0  0.11058  0.34650  0.89569  1.0000 -0.4606310303
O   O3        1.0  0.61058  0.15350  0.89569  1.0000 -0.4606310303
O   O4        1.0  0.88942  0.65350  0.10431  1.0000 -0.4606310303
O   O5        1.0  0.37176  0.91006  0.15181  1.0000 -0.4660313353
O   O6        1.0  0.12824  0.41006  0.84819  1.0000 -0.4660313353
O   O7        1.0  0.62824  0.08994  0.84819  1.0000 -0.4660313353
O   O8        1.0  0.87176  0.58994  0.15181  1.0000 -0.4660313353
O   O9        1.0  0.64116  0.83990  0.37925  1.0000 -0.4488276281
O   O10       1.0  0.85884  0.33990  0.62075  1.0000 -0.4488276281
O   O11       1.0  0.35884  0.16010  0.62075  1.0000 -0.4488276281
O   O12       1.0  0.14116  0.66010  0.37925  1.0000 -0.4488276281
O   O13       1.0  0.66251  0.90485  0.38854  1.0000 -0.4932404608
O   O14       1.0  0.83749  0.40485  0.61146  1.0000 -0.4932404608
O   O15       1.0  0.33749  0.09515  0.61146  1.0000 -0.4932404608
O   O16       1.0  0.16251  0.59515  0.38854  1.0000 -0.4932404608
O   O17       1.0  0.35813  0.79418  0.37641  1.0000 -0.4606310303
O   O18       1.0  0.14187  0.29418  0.62359  1.0000 -0.4606310303
O   O19       1.0  0.64187  0.20582  0.62359  1.0000 -0.4606310303
O   O20       1.0  0.85813  0.70582  0.37641  1.0000 -0.4606310303
O   O21       1.0  0.17564  0.75189  0.41332  1.0000 -0.4310517162
O   O22       1.0  0.32436  0.25189  0.58668  1.0000 -0.4310517162
O   O23       1.0  0.82436  0.24811  0.58668  1.0000 -0.4310517162
O   O24       1.0  0.67564  0.74811  0.41332  1.0000 -0.4310517162
O   O25       1.0  0.38475  0.75375  0.12589  1.0000 -0.4374305979
O   O26       1.0  0.11525  0.25375  0.87411  1.0000 -0.4374305979
O   O27       1.0  0.61525  0.24625  0.87411  1.0000 -0.4374305979
O   O28       1.0  0.88475  0.74625  0.12589  1.0000 -0.4374305979
O   O29       1.0  0.19024  0.71248  0.14208  1.0000 -0.4310517162
O   O30       1.0  0.30976  0.21248  0.85792  1.0000 -0.4310517162
O   O31       1.0  0.80976  0.28752  0.85792  1.0000 -0.4310517162
O   O32       1.0  0.69024  0.78752  0.14208  1.0000 -0.4310517162
O   O33       1.0  0.61496  0.95920  0.09414  1.0000 -0.497951962
O   O34       1.0  0.88504  0.45920  0.90586  1.0000 -0.497951962
O   O35       1.0  0.38504  0.04080  0.90586  1.0000 -0.497951962
O   O36       1.0  0.11496  0.54080  0.09414  1.0000 -0.497951962
O   O37       1.0  0.65737  0.99984  0.91150  1.0000 -0.4932404608
O   O38       1.0  0.84263  0.49984  0.08850  1.0000 -0.4932404608
O   O39       1.0  0.34263  0.00016  0.08850  1.0000 -0.4932404608
O   O40       1.0  0.15737  0.50016  0.91150  1.0000 -0.4932404608
O   O41       1.0  0.38730  0.95778  0.43030  1.0000 -0.4488276281
O   O42       1.0  0.11270  0.45778  0.56970  1.0000 -0.4488276281
O   O43       1.0  0.61270  0.04222  0.56970  1.0000 -0.4488276281
O   O44       1.0  0.88730  0.54222  0.43030  1.0000 -0.4488276281
O   O45       1.0  0.37220  0.99997  0.62152  1.0000 -0.4606310303
O   O46       1.0  0.12780  0.49997  0.37848  1.0000 -0.4606310303
O   O47       1.0  0.62780  0.00003  0.37848  1.0000 -0.4606310303
O   O48       1.0  0.87220  0.50003  0.62152  1.0000 -0.4606310303
