# DDEC6 charges by PACMAN v1.1 (https://github.com/mtap-research/PACMAN-charge/)
data_2019[Zn][nan]3[ION]1
_chemical_formula_sum              "Zn8 H136 C144 N40 O32"
_cell_length_a       10.058
_cell_length_b       18.9
_cell_length_c       24.784
_cell_angle_alpha    90
_cell_angle_beta     90
_cell_angle_gamma    90

_symmetry_space_group_name_H-M    "P 1"
_symmetry_Int_Tables_number       1

loop_
  _symmetry_equiv_pos_as_xyz
  'x, y, z'

loop_
  _atom_site_type_symbol
  _atom_site_label
  _atom_site_symmetry_multiplicity
  _atom_site_fract_x
  _atom_site_fract_y
  _atom_site_fract_z
  _atom_site_occupancy
  _atom_site_charge
Zn  Zn1       1.0  0.26537  0.16319  0.90850  1.0000 0.7636110564
Zn  Zn2       1.0  0.26537  0.33681  0.59150  1.0000 0.7636110564
Zn  Zn3       1.0  0.23463  0.83681  0.40850  1.0000 0.7636110564
Zn  Zn4       1.0  0.23463  0.66319  0.09150  1.0000 0.7636110564
Zn  Zn5       1.0  0.73463  0.83681  0.09150  1.0000 0.7636110564
Zn  Zn6       1.0  0.73463  0.66319  0.40850  1.0000 0.7636110564
Zn  Zn7       1.0  0.76537  0.16319  0.59150  1.0000 0.7636110564
Zn  Zn8       1.0  0.76537  0.33681  0.90850  1.0000 0.7636110564
H   H1        1.0  0.19160  0.72560  0.66400  1.0000 0.1113290792
H   H2        1.0  0.52050  0.82010  0.81710  1.0000 0.1113290792
H   H3        1.0  0.19870  0.89850  0.74240  1.0000 0.1208049935
H   H4        1.0  0.52420  0.91640  0.87430  1.0000 0.1113290792
H   H5        1.0  0.44900  0.90130  0.58670  1.0000 0.1208049935
H   H6        1.0  0.47030  0.87680  0.67720  1.0000 0.1208049935
H   H7        1.0  0.20040  0.99420  0.80020  1.0000 0.1208049935
H   H8        1.0  0.16810  0.75160  0.57340  1.0000 0.1208049935
H   H9        1.0  0.97500  0.22140  0.94670  1.0000 0.131650056
H   H10       1.0  0.19160  0.77440  0.83600  1.0000 0.1113290792
H   H11       1.0  0.52050  0.67990  0.68290  1.0000 0.1113290792
H   H12       1.0  0.19870  0.60150  0.75760  1.0000 0.1208049935
H   H13       1.0  0.52420  0.58360  0.62570  1.0000 0.1113290792
H   H14       1.0  0.44900  0.59870  0.91330  1.0000 0.1208049935
H   H15       1.0  0.47030  0.62320  0.82280  1.0000 0.1208049935
H   H16       1.0  0.20040  0.50580  0.69980  1.0000 0.1208049935
H   H17       1.0  0.16810  0.74840  0.92660  1.0000 0.1208049935
H   H18       1.0  0.97500  0.27860  0.55330  1.0000 0.131650056
H   H19       1.0  0.30840  0.27440  0.16400  1.0000 0.1113290792
H   H20       1.0  0.97950  0.17990  0.31710  1.0000 0.1113290792
H   H21       1.0  0.30130  0.10150  0.24240  1.0000 0.1208049935
H   H22       1.0  0.97580  0.08360  0.37430  1.0000 0.1113290792
H   H23       1.0  0.05100  0.09870  0.08670  1.0000 0.1208049935
H   H24       1.0  0.02970  0.12320  0.17720  1.0000 0.1208049935
H   H25       1.0  0.29960  0.00580  0.30020  1.0000 0.1208049935
H   H26       1.0  0.33190  0.24840  0.07340  1.0000 0.1208049935
H   H27       1.0  0.52500  0.77860  0.44670  1.0000 0.131650056
H   H28       1.0  0.30840  0.22560  0.33600  1.0000 0.1113290792
H   H29       1.0  0.97950  0.32010  0.18290  1.0000 0.1113290792
H   H30       1.0  0.30130  0.39850  0.25760  1.0000 0.1208049935
H   H31       1.0  0.97580  0.41640  0.12570  1.0000 0.1113290792
H   H32       1.0  0.05100  0.40130  0.41330  1.0000 0.1208049935
H   H33       1.0  0.02970  0.37680  0.32280  1.0000 0.1208049935
H   H34       1.0  0.29960  0.49420  0.19980  1.0000 0.1208049935
H   H35       1.0  0.33190  0.25160  0.42660  1.0000 0.1208049935
H   H36       1.0  0.52500  0.72140  0.05330  1.0000 0.131650056
H   H37       1.0  0.80840  0.27440  0.33600  1.0000 0.1113290792
H   H38       1.0  0.47950  0.17990  0.18290  1.0000 0.1113290792
H   H39       1.0  0.80130  0.10150  0.25760  1.0000 0.1208049935
H   H40       1.0  0.47580  0.08360  0.12570  1.0000 0.1113290792
H   H41       1.0  0.55100  0.09870  0.41330  1.0000 0.1208049935
H   H42       1.0  0.52970  0.12320  0.32280  1.0000 0.1208049935
H   H43       1.0  0.79960  0.00580  0.19980  1.0000 0.1208049935
H   H44       1.0  0.83190  0.24840  0.42660  1.0000 0.1208049935
H   H45       1.0  0.02500  0.77860  0.05330  1.0000 0.131650056
H   H46       1.0  0.80840  0.22560  0.16400  1.0000 0.1113290792
H   H47       1.0  0.47950  0.32010  0.31710  1.0000 0.1113290792
H   H48       1.0  0.80130  0.39850  0.24240  1.0000 0.1208049935
H   H49       1.0  0.47580  0.41640  0.37430  1.0000 0.1113290792
H   H50       1.0  0.55100  0.40130  0.08670  1.0000 0.1208049935
H   H51       1.0  0.52970  0.37680  0.17720  1.0000 0.1208049935
H   H52       1.0  0.79960  0.49420  0.30020  1.0000 0.1208049935
H   H53       1.0  0.83190  0.25160  0.07340  1.0000 0.1208049935
H   H54       1.0  0.02500  0.72140  0.44670  1.0000 0.131650056
H   H55       1.0  0.69160  0.72560  0.83600  1.0000 0.1113290792
H   H56       1.0  0.02050  0.82010  0.68290  1.0000 0.1113290792
H   H57       1.0  0.69870  0.89850  0.75760  1.0000 0.1208049935
H   H58       1.0  0.02420  0.91640  0.62570  1.0000 0.1113290792
H   H59       1.0  0.94900  0.90130  0.91330  1.0000 0.1208049935
H   H60       1.0  0.97030  0.87680  0.82280  1.0000 0.1208049935
H   H61       1.0  0.70040  0.99420  0.69980  1.0000 0.1208049935
H   H62       1.0  0.66810  0.75160  0.92660  1.0000 0.1208049935
H   H63       1.0  0.47500  0.22140  0.55330  1.0000 0.131650056
H   H64       1.0  0.69160  0.77440  0.66400  1.0000 0.1113290792
H   H65       1.0  0.02050  0.67990  0.81710  1.0000 0.1113290792
H   H66       1.0  0.69870  0.60150  0.74240  1.0000 0.1208049935
H   H67       1.0  0.02420  0.58360  0.87430  1.0000 0.1113290792
H   H68       1.0  0.94900  0.59870  0.58670  1.0000 0.1208049935
H   H69       1.0  0.97030  0.62320  0.67720  1.0000 0.1208049935
H   H70       1.0  0.70040  0.50580  0.80020  1.0000 0.1208049935
H   H71       1.0  0.66810  0.74840  0.57340  1.0000 0.1208049935
H   H72       1.0  0.47500  0.27860  0.94670  1.0000 0.131650056
H   H73       1.0  0.67760  0.57720  0.95000  1.0000 0.1208049935
H   H74       1.0  0.64350  0.51150  0.98610  1.0000 0.1413880983
H   H75       1.0  0.62260  0.58820  0.00860  1.0000 0.131650056
H   H76       1.0  0.82920  0.66230  0.02370  1.0000 0.1208049935
H   H77       1.0  0.96780  0.62570  0.01610  1.0000 0.1413880983
H   H78       1.0  0.87960  0.64280  0.96570  1.0000 0.131650056
H   H79       1.0  0.86600  0.52700  0.98700  1.0000 0.27138212
H   H80       1.0  0.80800  0.54700  0.04650  1.0000 0.253106684
H   H81       1.0  0.67760  0.92280  0.55000  1.0000 0.1208049935
H   H82       1.0  0.64350  0.98850  0.51390  1.0000 0.1413880983
H   H83       1.0  0.62260  0.91180  0.49140  1.0000 0.131650056
H   H84       1.0  0.82920  0.83770  0.47630  1.0000 0.1208049935
H   H85       1.0  0.96780  0.87430  0.48390  1.0000 0.1413880983
H   H86       1.0  0.87960  0.85720  0.53430  1.0000 0.131650056
H   H87       1.0  0.86600  0.97300  0.51300  1.0000 0.27138212
H   H88       1.0  0.80800  0.95300  0.45350  1.0000 0.253106684
H   H89       1.0  0.82240  0.42280  0.45000  1.0000 0.1208049935
H   H90       1.0  0.85650  0.48850  0.48610  1.0000 0.1413880983
H   H91       1.0  0.87740  0.41180  0.50860  1.0000 0.131650056
H   H92       1.0  0.67080  0.33770  0.52370  1.0000 0.1208049935
H   H93       1.0  0.53220  0.37430  0.51610  1.0000 0.1413880983
H   H94       1.0  0.62040  0.35720  0.46570  1.0000 0.131650056
H   H95       1.0  0.63400  0.47300  0.48700  1.0000 0.27138212
H   H96       1.0  0.69200  0.45300  0.54650  1.0000 0.253106684
H   H97       1.0  0.82240  0.07720  0.05000  1.0000 0.1208049935
H   H98       1.0  0.85650  0.01150  0.01390  1.0000 0.1413880983
H   H99       1.0  0.87740  0.08820  0.99140  1.0000 0.131650056
H   H100      1.0  0.67080  0.16230  0.97630  1.0000 0.1208049935
H   H101      1.0  0.53220  0.12570  0.98390  1.0000 0.1413880983
H   H102      1.0  0.62040  0.14280  0.03430  1.0000 0.131650056
H   H103      1.0  0.63400  0.02700  0.01300  1.0000 0.27138212
H   H104      1.0  0.69200  0.04700  0.95350  1.0000 0.253106684
H   H105      1.0  0.32240  0.42280  0.05000  1.0000 0.1208049935
H   H106      1.0  0.35650  0.48850  0.01390  1.0000 0.1413880983
H   H107      1.0  0.37740  0.41180  0.99140  1.0000 0.131650056
H   H108      1.0  0.17080  0.33770  0.97630  1.0000 0.1208049935
H   H109      1.0  0.03220  0.37430  0.98390  1.0000 0.1413880983
H   H110      1.0  0.12040  0.35720  0.03430  1.0000 0.131650056
H   H111      1.0  0.13400  0.47300  0.01300  1.0000 0.27138212
H   H112      1.0  0.19200  0.45300  0.95350  1.0000 0.253106684
H   H113      1.0  0.32240  0.07720  0.45000  1.0000 0.1208049935
H   H114      1.0  0.35650  0.01150  0.48610  1.0000 0.1413880983
H   H115      1.0  0.37740  0.08820  0.50860  1.0000 0.131650056
H   H116      1.0  0.17080  0.16230  0.52370  1.0000 0.1208049935
H   H117      1.0  0.03220  0.12570  0.51610  1.0000 0.1413880983
H   H118      1.0  0.12040  0.14280  0.46570  1.0000 0.131650056
H   H119      1.0  0.13400  0.02700  0.48700  1.0000 0.27138212
H   H120      1.0  0.19200  0.04700  0.54650  1.0000 0.253106684
H   H121      1.0  0.17760  0.57720  0.55000  1.0000 0.1208049935
H   H122      1.0  0.14350  0.51150  0.51390  1.0000 0.1413880983
H   H123      1.0  0.12260  0.58820  0.49140  1.0000 0.131650056
H   H124      1.0  0.32920  0.66230  0.47630  1.0000 0.1208049935
H   H125      1.0  0.46780  0.62570  0.48390  1.0000 0.1413880983
H   H126      1.0  0.37960  0.64280  0.53430  1.0000 0.131650056
H   H127      1.0  0.36600  0.52700  0.51300  1.0000 0.27138212
H   H128      1.0  0.30800  0.54700  0.45350  1.0000 0.253106684
H   H129      1.0  0.17760  0.92280  0.95000  1.0000 0.1208049935
H   H130      1.0  0.14350  0.98850  0.98610  1.0000 0.1413880983
H   H131      1.0  0.12260  0.91180  0.00860  1.0000 0.131650056
H   H132      1.0  0.32920  0.83770  0.02370  1.0000 0.1208049935
H   H133      1.0  0.46780  0.87430  0.01610  1.0000 0.1413880983
H   H134      1.0  0.37960  0.85720  0.96570  1.0000 0.131650056
H   H135      1.0  0.36600  0.97300  0.98700  1.0000 0.27138212
H   H136      1.0  0.30800  0.95300  0.04650  1.0000 0.253106684
C   C1        1.0  0.24380  0.76082  0.64852  1.0000 -0.1520931101
C   C2        1.0  0.45510  0.85465  0.81403  1.0000 -0.1520931101
C   C3        1.0  0.26260  0.90126  0.76945  1.0000 -0.1520931101
C   C4        1.0  0.45750  0.91245  0.84846  1.0000 -0.1021502034
C   C5        1.0  0.35630  0.84728  0.77488  1.0000 0.0736423047
C   C6        1.0  0.34870  0.78310  0.73952  1.0000 -0.0209203459
C   C7        1.0  0.36070  0.96445  0.84451  1.0000 -0.0294860229
C   C8        1.0  0.39720  0.86595  0.60218  1.0000 -0.1021502034
C   C9        1.0  0.41060  0.85097  0.65642  1.0000 -0.1520931101
C   C10       1.0  0.26410  0.95884  0.80397  1.0000 -0.1021502034
C   C11       1.0  0.30720  0.82873  0.57034  1.0000 -0.0294860229
C   C12       1.0  0.33560  0.79749  0.68042  1.0000 0.0753340205
C   C13       1.0  0.22970  0.77632  0.59413  1.0000 -0.1021502034
C   C14       1.0  0.35730  0.02626  0.88315  1.0000 0.5600271826
C   C15       1.0  0.29620  0.84414  0.51108  1.0000 0.5375180547
C   C16       1.0  0.99540  0.23441  0.91130  1.0000 0.1208049935
C   C17       1.0  0.24380  0.73918  0.85148  1.0000 -0.1520931101
C   C18       1.0  0.45510  0.64535  0.68597  1.0000 -0.1520931101
C   C19       1.0  0.26260  0.59874  0.73055  1.0000 -0.1520931101
C   C20       1.0  0.45750  0.58755  0.65154  1.0000 -0.1021502034
C   C21       1.0  0.35630  0.65272  0.72512  1.0000 0.0736423047
C   C22       1.0  0.34870  0.71690  0.76048  1.0000 -0.0209203459
C   C23       1.0  0.36070  0.53555  0.65549  1.0000 -0.0294860229
C   C24       1.0  0.39720  0.63405  0.89782  1.0000 -0.1021502034
C   C25       1.0  0.41060  0.64903  0.84358  1.0000 -0.1520931101
C   C26       1.0  0.26410  0.54116  0.69603  1.0000 -0.1021502034
C   C27       1.0  0.30720  0.67127  0.92966  1.0000 -0.0294860229
C   C28       1.0  0.33560  0.70251  0.81958  1.0000 0.0753340205
C   C29       1.0  0.22970  0.72368  0.90587  1.0000 -0.1021502034
C   C30       1.0  0.35730  0.47374  0.61685  1.0000 0.5600271826
C   C31       1.0  0.29620  0.65586  0.98892  1.0000 0.5375180547
C   C32       1.0  0.99540  0.26559  0.58870  1.0000 0.1208049935
C   C33       1.0  0.25620  0.23918  0.14852  1.0000 -0.1520931101
C   C34       1.0  0.04490  0.14535  0.31403  1.0000 -0.1520931101
C   C35       1.0  0.23740  0.09874  0.26945  1.0000 -0.1520931101
C   C36       1.0  0.04250  0.08755  0.34846  1.0000 -0.1021502034
C   C37       1.0  0.14370  0.15272  0.27488  1.0000 0.0736423047
C   C38       1.0  0.15130  0.21690  0.23952  1.0000 -0.0209203459
C   C39       1.0  0.13930  0.03555  0.34451  1.0000 -0.0294860229
C   C40       1.0  0.10280  0.13405  0.10218  1.0000 -0.1021502034
C   C41       1.0  0.08940  0.14903  0.15642  1.0000 -0.1520931101
C   C42       1.0  0.23590  0.04116  0.30397  1.0000 -0.1021502034
C   C43       1.0  0.19280  0.17127  0.07034  1.0000 -0.0294860229
C   C44       1.0  0.16440  0.20251  0.18042  1.0000 0.0753340205
C   C45       1.0  0.27030  0.22368  0.09413  1.0000 -0.1021502034
C   C46       1.0  0.14270  0.97374  0.38315  1.0000 0.5600271826
C   C47       1.0  0.20380  0.15586  0.01108  1.0000 0.5375180547
C   C48       1.0  0.50460  0.76559  0.41130  1.0000 0.1208049935
C   C49       1.0  0.25620  0.26082  0.35148  1.0000 -0.1520931101
C   C50       1.0  0.04490  0.35465  0.18597  1.0000 -0.1520931101
C   C51       1.0  0.23740  0.40126  0.23055  1.0000 -0.1520931101
C   C52       1.0  0.04250  0.41245  0.15154  1.0000 -0.1021502034
C   C53       1.0  0.14370  0.34728  0.22512  1.0000 0.0736423047
C   C54       1.0  0.15130  0.28310  0.26048  1.0000 -0.0209203459
C   C55       1.0  0.13930  0.46445  0.15549  1.0000 -0.0294860229
C   C56       1.0  0.10280  0.36595  0.39782  1.0000 -0.1021502034
C   C57       1.0  0.08940  0.35097  0.34358  1.0000 -0.1520931101
C   C58       1.0  0.23590  0.45884  0.19603  1.0000 -0.1021502034
C   C59       1.0  0.19280  0.32873  0.42966  1.0000 -0.0294860229
C   C60       1.0  0.16440  0.29749  0.31958  1.0000 0.0753340205
C   C61       1.0  0.27030  0.27632  0.40587  1.0000 -0.1021502034
C   C62       1.0  0.14270  0.52626  0.11685  1.0000 0.5600271826
C   C63       1.0  0.20380  0.34414  0.48892  1.0000 0.5375180547
C   C64       1.0  0.50460  0.73441  0.08870  1.0000 0.1208049935
C   C65       1.0  0.75620  0.23918  0.35148  1.0000 -0.1520931101
C   C66       1.0  0.54490  0.14535  0.18597  1.0000 -0.1520931101
C   C67       1.0  0.73740  0.09874  0.23055  1.0000 -0.1520931101
C   C68       1.0  0.54250  0.08755  0.15154  1.0000 -0.1021502034
C   C69       1.0  0.64370  0.15272  0.22512  1.0000 0.0736423047
C   C70       1.0  0.65130  0.21690  0.26048  1.0000 -0.0209203459
C   C71       1.0  0.63930  0.03555  0.15549  1.0000 -0.0294860229
C   C72       1.0  0.60280  0.13405  0.39782  1.0000 -0.1021502034
C   C73       1.0  0.58940  0.14903  0.34358  1.0000 -0.1520931101
C   C74       1.0  0.73590  0.04116  0.19603  1.0000 -0.1021502034
C   C75       1.0  0.69280  0.17127  0.42966  1.0000 -0.0294860229
C   C76       1.0  0.66440  0.20251  0.31958  1.0000 0.0753340205
C   C77       1.0  0.77030  0.22368  0.40587  1.0000 -0.1021502034
C   C78       1.0  0.64270  0.97374  0.11685  1.0000 0.5600271826
C   C79       1.0  0.70380  0.15586  0.48892  1.0000 0.5375180547
C   C80       1.0  0.00460  0.76559  0.08870  1.0000 0.1208049935
C   C81       1.0  0.75620  0.26082  0.14852  1.0000 -0.1520931101
C   C82       1.0  0.54490  0.35465  0.31403  1.0000 -0.1520931101
C   C83       1.0  0.73740  0.40126  0.26945  1.0000 -0.1520931101
C   C84       1.0  0.54250  0.41245  0.34846  1.0000 -0.1021502034
C   C85       1.0  0.64370  0.34728  0.27488  1.0000 0.0736423047
C   C86       1.0  0.65130  0.28310  0.23952  1.0000 -0.0209203459
C   C87       1.0  0.63930  0.46445  0.34451  1.0000 -0.0294860229
C   C88       1.0  0.60280  0.36595  0.10218  1.0000 -0.1021502034
C   C89       1.0  0.58940  0.35097  0.15642  1.0000 -0.1520931101
C   C90       1.0  0.73590  0.45884  0.30397  1.0000 -0.1021502034
C   C91       1.0  0.69280  0.32873  0.07034  1.0000 -0.0294860229
C   C92       1.0  0.66440  0.29749  0.18042  1.0000 0.0753340205
C   C93       1.0  0.77030  0.27632  0.09413  1.0000 -0.1021502034
C   C94       1.0  0.64270  0.52626  0.38315  1.0000 0.5600271826
C   C95       1.0  0.70380  0.34414  0.01108  1.0000 0.5375180547
C   C96       1.0  0.00460  0.73441  0.41130  1.0000 0.1208049935
C   C97       1.0  0.74380  0.76082  0.85148  1.0000 -0.1520931101
C   C98       1.0  0.95510  0.85465  0.68597  1.0000 -0.1520931101
C   C99       1.0  0.76260  0.90126  0.73055  1.0000 -0.1520931101
C   C100      1.0  0.95750  0.91245  0.65154  1.0000 -0.1021502034
C   C101      1.0  0.85630  0.84728  0.72512  1.0000 0.0736423047
C   C102      1.0  0.84870  0.78310  0.76048  1.0000 -0.0209203459
C   C103      1.0  0.86070  0.96445  0.65549  1.0000 -0.0294860229
C   C104      1.0  0.89720  0.86595  0.89782  1.0000 -0.1021502034
C   C105      1.0  0.91060  0.85097  0.84358  1.0000 -0.1520931101
C   C106      1.0  0.76410  0.95884  0.69603  1.0000 -0.1021502034
C   C107      1.0  0.80720  0.82873  0.92966  1.0000 -0.0294860229
C   C108      1.0  0.83560  0.79749  0.81958  1.0000 0.0753340205
C   C109      1.0  0.72970  0.77632  0.90587  1.0000 -0.1021502034
C   C110      1.0  0.85730  0.02626  0.61685  1.0000 0.5600271826
C   C111      1.0  0.79620  0.84414  0.98892  1.0000 0.5375180547
C   C112      1.0  0.49540  0.23441  0.58870  1.0000 0.1208049935
C   C113      1.0  0.74380  0.73918  0.64852  1.0000 -0.1520931101
C   C114      1.0  0.95510  0.64535  0.81403  1.0000 -0.1520931101
C   C115      1.0  0.76260  0.59874  0.76945  1.0000 -0.1520931101
C   C116      1.0  0.95750  0.58755  0.84846  1.0000 -0.1021502034
C   C117      1.0  0.85630  0.65272  0.77488  1.0000 0.0736423047
C   C118      1.0  0.84870  0.71690  0.73952  1.0000 -0.0209203459
C   C119      1.0  0.86070  0.53555  0.84451  1.0000 -0.0294860229
C   C120      1.0  0.89720  0.63405  0.60218  1.0000 -0.1021502034
C   C121      1.0  0.91060  0.64903  0.65642  1.0000 -0.1520931101
C   C122      1.0  0.76410  0.54116  0.80397  1.0000 -0.1021502034
C   C123      1.0  0.80720  0.67127  0.57034  1.0000 -0.0294860229
C   C124      1.0  0.83560  0.70251  0.68042  1.0000 0.0753340205
C   C125      1.0  0.72970  0.72368  0.59413  1.0000 -0.1021502034
C   C126      1.0  0.85730  0.47374  0.88315  1.0000 0.5600271826
C   C127      1.0  0.79620  0.65586  0.51108  1.0000 0.5375180547
C   C128      1.0  0.49540  0.26559  0.91130  1.0000 0.1208049935
C   C129      1.0  0.67760  0.55897  0.98616  1.0000 -0.2933441731
C   C130      1.0  0.87840  0.62842  0.00283  1.0000 -0.2933441731
C   C131      1.0  0.67760  0.94103  0.51384  1.0000 -0.2933441731
C   C132      1.0  0.87840  0.87158  0.49717  1.0000 -0.2933441731
C   C133      1.0  0.82240  0.44103  0.48616  1.0000 -0.2933441731
C   C134      1.0  0.62160  0.37158  0.50283  1.0000 -0.2933441731
C   C135      1.0  0.82240  0.05897  0.01384  1.0000 -0.2933441731
C   C136      1.0  0.62160  0.12842  0.99717  1.0000 -0.2933441731
C   C137      1.0  0.32240  0.44103  0.01384  1.0000 -0.2933441731
C   C138      1.0  0.12160  0.37158  0.99717  1.0000 -0.2933441731
C   C139      1.0  0.32240  0.05897  0.48616  1.0000 -0.2933441731
C   C140      1.0  0.12160  0.12842  0.50283  1.0000 -0.2933441731
C   C141      1.0  0.17760  0.55897  0.51384  1.0000 -0.2933441731
C   C142      1.0  0.37840  0.62842  0.49717  1.0000 -0.2933441731
C   C143      1.0  0.17760  0.94103  0.98616  1.0000 -0.2933441731
C   C144      1.0  0.37840  0.87158  0.00283  1.0000 -0.2933441731
N   N1        1.0  0.09970  0.21279  0.88373  1.0000 -0.21866247
N   N2        1.0  0.92090  0.27740  0.88225  1.0000 -0.21866247
N   N3        1.0  0.98130  0.28103  0.83376  1.0000 -0.0385383344
N   N4        1.0  0.08780  0.24250  0.83484  1.0000 -0.0294860229
N   N5        1.0  0.09970  0.28721  0.61627  1.0000 -0.21866247
N   N6        1.0  0.92090  0.22260  0.61775  1.0000 -0.21866247
N   N7        1.0  0.98130  0.21897  0.66624  1.0000 -0.0385383344
N   N8        1.0  0.08780  0.25750  0.66516  1.0000 -0.0294860229
N   N9        1.0  0.40030  0.78721  0.38373  1.0000 -0.21866247
N   N10       1.0  0.57910  0.72260  0.38225  1.0000 -0.21866247
N   N11       1.0  0.51870  0.71897  0.33376  1.0000 -0.0385383344
N   N12       1.0  0.41220  0.75750  0.33484  1.0000 -0.0294860229
N   N13       1.0  0.40030  0.71279  0.11627  1.0000 -0.21866247
N   N14       1.0  0.57910  0.77740  0.11775  1.0000 -0.21866247
N   N15       1.0  0.51870  0.78103  0.16624  1.0000 -0.0385383344
N   N16       1.0  0.41220  0.74250  0.16516  1.0000 -0.0294860229
N   N17       1.0  0.90030  0.78721  0.11627  1.0000 -0.21866247
N   N18       1.0  0.07910  0.72260  0.11775  1.0000 -0.21866247
N   N19       1.0  0.01870  0.71897  0.16624  1.0000 -0.0385383344
N   N20       1.0  0.91220  0.75750  0.16516  1.0000 -0.0294860229
N   N21       1.0  0.90030  0.71279  0.38373  1.0000 -0.21866247
N   N22       1.0  0.07910  0.77740  0.38225  1.0000 -0.21866247
N   N23       1.0  0.01870  0.78103  0.33376  1.0000 -0.0385383344
N   N24       1.0  0.91220  0.74250  0.33484  1.0000 -0.0294860229
N   N25       1.0  0.59970  0.21279  0.61627  1.0000 -0.21866247
N   N26       1.0  0.42090  0.27740  0.61775  1.0000 -0.21866247
N   N27       1.0  0.48130  0.28103  0.66624  1.0000 -0.0385383344
N   N28       1.0  0.58780  0.24250  0.66516  1.0000 -0.0294860229
N   N29       1.0  0.59970  0.28721  0.88373  1.0000 -0.21866247
N   N30       1.0  0.42090  0.22260  0.88225  1.0000 -0.21866247
N   N31       1.0  0.48130  0.21897  0.83376  1.0000 -0.0385383344
N   N32       1.0  0.58780  0.25750  0.83484  1.0000 -0.0294860229
N   N33       1.0  0.81490  0.55884  0.00740  1.0000 -0.117016449
N   N34       1.0  0.81490  0.94116  0.49260  1.0000 -0.117016449
N   N35       1.0  0.68510  0.44116  0.50740  1.0000 -0.117016449
N   N36       1.0  0.68510  0.05884  0.99260  1.0000 -0.117016449
N   N37       1.0  0.18510  0.44116  0.99260  1.0000 -0.117016449
N   N38       1.0  0.18510  0.05884  0.50740  1.0000 -0.117016449
N   N39       1.0  0.31490  0.55884  0.49260  1.0000 -0.117016449
N   N40       1.0  0.31490  0.94116  0.00740  1.0000 -0.117016449
O   O1        1.0  0.27701  0.07526  0.86977  1.0000 -0.5332569475
O   O2        1.0  0.42708  0.02548  0.92463  1.0000 -0.57576549
O   O3        1.0  0.37430  0.88576  0.48914  1.0000 -0.5489163989
O   O4        1.0  0.20658  0.81061  0.48509  1.0000 -0.5489163989
O   O5        1.0  0.27701  0.42474  0.63023  1.0000 -0.5332569475
O   O6        1.0  0.42708  0.47452  0.57537  1.0000 -0.57576549
O   O7        1.0  0.37430  0.61424  0.01086  1.0000 -0.5489163989
O   O8        1.0  0.20658  0.68939  0.01491  1.0000 -0.5489163989
O   O9        1.0  0.22299  0.92474  0.36977  1.0000 -0.5332569475
O   O10       1.0  0.07292  0.97452  0.42463  1.0000 -0.57576549
O   O11       1.0  0.12570  0.11424  0.98914  1.0000 -0.5489163989
O   O12       1.0  0.29342  0.18939  0.98509  1.0000 -0.5489163989
O   O13       1.0  0.22299  0.57526  0.13023  1.0000 -0.5332569475
O   O14       1.0  0.07292  0.52548  0.07537  1.0000 -0.57576549
O   O15       1.0  0.12570  0.38576  0.51086  1.0000 -0.5489163989
O   O16       1.0  0.29342  0.31061  0.51491  1.0000 -0.5489163989
O   O17       1.0  0.72299  0.92474  0.13023  1.0000 -0.5332569475
O   O18       1.0  0.57292  0.97452  0.07537  1.0000 -0.57576549
O   O19       1.0  0.62570  0.11424  0.51086  1.0000 -0.5489163989
O   O20       1.0  0.79342  0.18939  0.51491  1.0000 -0.5489163989
O   O21       1.0  0.72299  0.57526  0.36977  1.0000 -0.5332569475
O   O22       1.0  0.57292  0.52548  0.42463  1.0000 -0.57576549
O   O23       1.0  0.62570  0.38576  0.98914  1.0000 -0.5489163989
O   O24       1.0  0.79342  0.31061  0.98509  1.0000 -0.5489163989
O   O25       1.0  0.77701  0.07526  0.63023  1.0000 -0.5332569475
O   O26       1.0  0.92708  0.02548  0.57537  1.0000 -0.57576549
O   O27       1.0  0.87430  0.88576  0.01086  1.0000 -0.5489163989
O   O28       1.0  0.70658  0.81061  0.01491  1.0000 -0.5489163989
O   O29       1.0  0.77701  0.42474  0.86977  1.0000 -0.5332569475
O   O30       1.0  0.92708  0.47452  0.92463  1.0000 -0.57576549
O   O31       1.0  0.87430  0.61424  0.48914  1.0000 -0.5489163989
O   O32       1.0  0.70658  0.68939  0.48509  1.0000 -0.5489163989
