# DDEC6 charges by PACMAN v1.1 (https://github.com/mtap-research/PACMAN-charge/)
data_2019[Ag][sra]3[ION]2
_chemical_formula_sum              "Ag4 H48 C68 N24 Cl4 O16"
_cell_length_a       9.0456
_cell_length_b       24.9317
_cell_length_c       14.3151
_cell_angle_alpha    90
_cell_angle_beta     122.647
_cell_angle_gamma    90

_symmetry_space_group_name_H-M    "P 1"
_symmetry_Int_Tables_number       1

loop_
  _symmetry_equiv_pos_as_xyz
  'x, y, z'

loop_
  _atom_site_type_symbol
  _atom_site_label
  _atom_site_symmetry_multiplicity
  _atom_site_fract_x
  _atom_site_fract_y
  _atom_site_fract_z
  _atom_site_occupancy
  _atom_site_charge
Ag  Ag1       1.0  0.63670  0.11420  0.91545  1.0000 0.2493691482
Ag  Ag2       1.0  0.36330  0.61420  0.58455  1.0000 0.2493691482
Ag  Ag3       1.0  0.36330  0.88580  0.08455  1.0000 0.2493691482
Ag  Ag4       1.0  0.63670  0.38580  0.41545  1.0000 0.2493691482
H   H1        1.0  0.01970  0.35460  0.61970  1.0000 0.1100439016
H   H2        1.0  0.18990  0.28330  0.72820  1.0000 0.143126498
H   H3        1.0  0.77540  0.18510  0.53930  1.0000 0.1322894898
H   H4        1.0  0.61470  0.25970  0.44050  1.0000 0.1172528221
H   H5        1.0  0.30220  0.01080  0.77600  1.0000 0.143126498
H   H6        1.0  0.34390  0.93250  0.87520  1.0000 0.1100439016
H   H7        1.0  0.21320  0.00450  0.06510  1.0000 0.1100439016
H   H8        1.0  0.17230  0.08550  0.97410  1.0000 0.1322894898
H   H9        1.0  0.91830  0.15100  0.85300  1.0000 0.1172528221
H   H10       1.0  0.82200  0.07850  0.57270  1.0000 0.143126498
H   H11       1.0  0.55630  0.04720  0.54460  1.0000 0.143126498
H   H12       1.0  0.48800  0.06500  0.67530  1.0000 0.1100439016
H   H13       1.0  0.98030  0.85460  0.88030  1.0000 0.1100439016
H   H14       1.0  0.81010  0.78330  0.77180  1.0000 0.143126498
H   H15       1.0  0.22460  0.68510  0.96070  1.0000 0.1322894898
H   H16       1.0  0.38530  0.75970  0.05950  1.0000 0.1172528221
H   H17       1.0  0.69780  0.51080  0.72400  1.0000 0.143126498
H   H18       1.0  0.65610  0.43250  0.62480  1.0000 0.1100439016
H   H19       1.0  0.78680  0.50450  0.43490  1.0000 0.1100439016
H   H20       1.0  0.82770  0.58550  0.52590  1.0000 0.1322894898
H   H21       1.0  0.08170  0.65100  0.64700  1.0000 0.1172528221
H   H22       1.0  0.17800  0.57850  0.92730  1.0000 0.143126498
H   H23       1.0  0.44370  0.54720  0.95540  1.0000 0.143126498
H   H24       1.0  0.51200  0.56500  0.82470  1.0000 0.1100439016
H   H25       1.0  0.98030  0.64540  0.38030  1.0000 0.1100439016
H   H26       1.0  0.81010  0.71670  0.27180  1.0000 0.143126498
H   H27       1.0  0.22460  0.81490  0.46070  1.0000 0.1322894898
H   H28       1.0  0.38530  0.74030  0.55950  1.0000 0.1172528221
H   H29       1.0  0.69780  0.98920  0.22400  1.0000 0.143126498
H   H30       1.0  0.65610  0.06750  0.12480  1.0000 0.1100439016
H   H31       1.0  0.78680  0.99550  0.93490  1.0000 0.1100439016
H   H32       1.0  0.82770  0.91450  0.02590  1.0000 0.1322894898
H   H33       1.0  0.08170  0.84900  0.14700  1.0000 0.1172528221
H   H34       1.0  0.17800  0.92150  0.42730  1.0000 0.143126498
H   H35       1.0  0.44370  0.95280  0.45540  1.0000 0.143126498
H   H36       1.0  0.51200  0.93500  0.32470  1.0000 0.1100439016
H   H37       1.0  0.01970  0.14540  0.11970  1.0000 0.1100439016
H   H38       1.0  0.18990  0.21670  0.22820  1.0000 0.143126498
H   H39       1.0  0.77540  0.31490  0.03930  1.0000 0.1322894898
H   H40       1.0  0.61470  0.24030  0.94050  1.0000 0.1172528221
H   H41       1.0  0.30220  0.48920  0.27600  1.0000 0.143126498
H   H42       1.0  0.34390  0.56750  0.37520  1.0000 0.1100439016
H   H43       1.0  0.21320  0.49550  0.56510  1.0000 0.1100439016
H   H44       1.0  0.17230  0.41450  0.47410  1.0000 0.1322894898
H   H45       1.0  0.91830  0.34900  0.35300  1.0000 0.1172528221
H   H46       1.0  0.82200  0.42150  0.07270  1.0000 0.143126498
H   H47       1.0  0.55630  0.45280  0.04460  1.0000 0.143126498
H   H48       1.0  0.48800  0.43500  0.17530  1.0000 0.1100439016
C   C1        1.0  0.11460  0.18175  0.71400  1.0000 0.2268969156
C   C2        1.0  0.21720  0.10806  0.80910  1.0000 0.2192934305
C   C3        1.0  0.96920  0.31976  0.60450  1.0000 0.0596483728
C   C4        1.0  0.07200  0.27743  0.66900  1.0000 -0.1518889777
C   C5        1.0  0.00080  0.22632  0.64620  1.0000 0.0596483728
C   C6        1.0  0.82760  0.21965  0.55830  1.0000 -0.1797233038
C   C7        1.0  0.73360  0.26439  0.49950  1.0000 0.074848216
C   C8        1.0  0.23330  0.05680  0.86510  1.0000 0.0492751356
C   C9        1.0  0.28400  0.01055  0.83540  1.0000 -0.1797233038
C   C10       1.0  0.30760  0.96403  0.89480  1.0000 0.0817622636
C   C11       1.0  0.23210  0.00603  0.00600  1.0000 0.0817622636
C   C12       1.0  0.20700  0.05445  0.95210  1.0000 -0.1797233038
C   C13       1.0  0.84510  0.12894  0.79060  1.0000 -0.0267079714
C   C14       1.0  0.89500  0.11785  0.71710  1.0000 0.1100439016
C   C15       1.0  0.78890  0.08659  0.62380  1.0000 -0.122344017
C   C16       1.0  0.63440  0.06784  0.60840  1.0000 -0.0821882896
C   C17       1.0  0.59370  0.07919  0.68610  1.0000 0.0492751356
C   C18       1.0  0.88540  0.68175  0.78600  1.0000 0.2268969156
C   C19       1.0  0.78280  0.60806  0.69090  1.0000 0.2192934305
C   C20       1.0  0.03080  0.81976  0.89550  1.0000 0.0596483728
C   C21       1.0  0.92800  0.77743  0.83100  1.0000 -0.1518889777
C   C22       1.0  0.99920  0.72632  0.85380  1.0000 0.0596483728
C   C23       1.0  0.17240  0.71965  0.94170  1.0000 -0.1797233038
C   C24       1.0  0.26640  0.76439  0.00050  1.0000 0.074848216
C   C25       1.0  0.76670  0.55680  0.63490  1.0000 0.0492751356
C   C26       1.0  0.71600  0.51055  0.66460  1.0000 -0.1797233038
C   C27       1.0  0.69240  0.46403  0.60520  1.0000 0.0817622636
C   C28       1.0  0.76790  0.50603  0.49400  1.0000 0.0817622636
C   C29       1.0  0.79300  0.55445  0.54790  1.0000 -0.1797233038
C   C30       1.0  0.15490  0.62894  0.70940  1.0000 -0.0267079714
C   C31       1.0  0.10500  0.61785  0.78290  1.0000 0.1100439016
C   C32       1.0  0.21110  0.58659  0.87620  1.0000 -0.122344017
C   C33       1.0  0.36560  0.56784  0.89160  1.0000 -0.0821882896
C   C34       1.0  0.40630  0.57919  0.81390  1.0000 0.0492751356
C   C35       1.0  0.88540  0.81825  0.28600  1.0000 0.2268969156
C   C36       1.0  0.78280  0.89194  0.19090  1.0000 0.2192934305
C   C37       1.0  0.03080  0.68024  0.39550  1.0000 0.0596483728
C   C38       1.0  0.92800  0.72257  0.33100  1.0000 -0.1518889777
C   C39       1.0  0.99920  0.77368  0.35380  1.0000 0.0596483728
C   C40       1.0  0.17240  0.78035  0.44170  1.0000 -0.1797233038
C   C41       1.0  0.26640  0.73561  0.50050  1.0000 0.074848216
C   C42       1.0  0.76670  0.94320  0.13490  1.0000 0.0492751356
C   C43       1.0  0.71600  0.98945  0.16460  1.0000 -0.1797233038
C   C44       1.0  0.69240  0.03597  0.10520  1.0000 0.0817622636
C   C45       1.0  0.76790  0.99397  0.99400  1.0000 0.0817622636
C   C46       1.0  0.79300  0.94555  0.04790  1.0000 -0.1797233038
C   C47       1.0  0.15490  0.87106  0.20940  1.0000 -0.0267079714
C   C48       1.0  0.10500  0.88215  0.28290  1.0000 0.1100439016
C   C49       1.0  0.21110  0.91341  0.37620  1.0000 -0.122344017
C   C50       1.0  0.36560  0.93216  0.39160  1.0000 -0.0821882896
C   C51       1.0  0.40630  0.92081  0.31390  1.0000 0.0492751356
C   C52       1.0  0.11460  0.31825  0.21400  1.0000 0.2268969156
C   C53       1.0  0.21720  0.39194  0.30910  1.0000 0.2192934305
C   C54       1.0  0.96920  0.18024  0.10450  1.0000 0.0596483728
C   C55       1.0  0.07200  0.22257  0.16900  1.0000 -0.1518889777
C   C56       1.0  0.00080  0.27368  0.14620  1.0000 0.0596483728
C   C57       1.0  0.82760  0.28035  0.05830  1.0000 -0.1797233038
C   C58       1.0  0.73360  0.23561  0.99950  1.0000 0.074848216
C   C59       1.0  0.23330  0.44320  0.36510  1.0000 0.0492751356
C   C60       1.0  0.28400  0.48945  0.33540  1.0000 -0.1797233038
C   C61       1.0  0.30760  0.53597  0.39480  1.0000 0.0817622636
C   C62       1.0  0.23210  0.49397  0.50600  1.0000 0.0817622636
C   C63       1.0  0.20700  0.44555  0.45210  1.0000 -0.1797233038
C   C64       1.0  0.84510  0.37106  0.29060  1.0000 -0.0267079714
C   C65       1.0  0.89500  0.38215  0.21710  1.0000 0.1100439016
C   C66       1.0  0.78890  0.41341  0.12380  1.0000 -0.122344017
C   C67       1.0  0.63440  0.43216  0.10840  1.0000 -0.0821882896
C   C68       1.0  0.59370  0.42081  0.18610  1.0000 0.0492751356
N   N1        1.0  0.34880  0.13481  0.81790  1.0000 -0.1925613135
N   N2        1.0  0.28510  0.18185  0.75810  1.0000 -0.239034947
N   N3        1.0  0.06434  0.13567  0.74314  1.0000 -0.0904971249
N   N4        1.0  0.80080  0.31392  0.52110  1.0000 -0.2063748128
N   N5        1.0  0.28179  0.96118  0.97879  1.0000 -0.2063748128
N   N6        1.0  0.69640  0.10947  0.77650  1.0000 -0.1711519695
N   N7        1.0  0.65120  0.63481  0.68210  1.0000 -0.1925613135
N   N8        1.0  0.71490  0.68185  0.74190  1.0000 -0.239034947
N   N9        1.0  0.93566  0.63567  0.75686  1.0000 -0.0904971249
N   N10       1.0  0.19920  0.81392  0.97890  1.0000 -0.2063748128
N   N11       1.0  0.71821  0.46118  0.52121  1.0000 -0.2063748128
N   N12       1.0  0.30360  0.60947  0.72350  1.0000 -0.1711519695
N   N13       1.0  0.65120  0.86519  0.18210  1.0000 -0.1925613135
N   N14       1.0  0.71490  0.81815  0.24190  1.0000 -0.239034947
N   N15       1.0  0.93566  0.86433  0.25686  1.0000 -0.0904971249
N   N16       1.0  0.19920  0.68608  0.47890  1.0000 -0.2063748128
N   N17       1.0  0.71821  0.03882  0.02121  1.0000 -0.2063748128
N   N18       1.0  0.30360  0.89053  0.22350  1.0000 -0.1711519695
N   N19       1.0  0.34880  0.36519  0.31790  1.0000 -0.1925613135
N   N20       1.0  0.28510  0.31815  0.25810  1.0000 -0.239034947
N   N21       1.0  0.06434  0.36433  0.24314  1.0000 -0.0904971249
N   N22       1.0  0.80080  0.18608  0.02110  1.0000 -0.2063748128
N   N23       1.0  0.28179  0.53882  0.47879  1.0000 -0.2063748128
N   N24       1.0  0.69640  0.39053  0.27650  1.0000 -0.1711519695
Cl  Cl1       1.0  0.47358  0.40837  0.79309  1.0000 1.2527365722
Cl  Cl2       1.0  0.52642  0.90837  0.70691  1.0000 1.2527365722
Cl  Cl3       1.0  0.52642  0.59163  0.20691  1.0000 1.2527365722
Cl  Cl4       1.0  0.47358  0.09163  0.29309  1.0000 1.2527365722
O   O1        1.0  0.56430  0.39957  0.73870  1.0000 -0.4870302267
O   O2        1.0  0.29520  0.41474  0.71030  1.0000 -0.5008669398
O   O3        1.0  0.49760  0.36282  0.86130  1.0000 -0.5008669398
O   O4        1.0  0.54450  0.45485  0.85930  1.0000 -0.5056673719
O   O5        1.0  0.43570  0.89957  0.76130  1.0000 -0.4870302267
O   O6        1.0  0.70480  0.91474  0.78970  1.0000 -0.5008669398
O   O7        1.0  0.50240  0.86282  0.63870  1.0000 -0.5056673719
O   O8        1.0  0.45550  0.95485  0.64070  1.0000 -0.5056673719
O   O9        1.0  0.43570  0.60043  0.26130  1.0000 -0.4870302267
O   O10       1.0  0.70480  0.58526  0.28970  1.0000 -0.5008669398
O   O11       1.0  0.50240  0.63718  0.13870  1.0000 -0.5056673719
O   O12       1.0  0.45550  0.54515  0.14070  1.0000 -0.5056673719
O   O13       1.0  0.56430  0.10043  0.23870  1.0000 -0.4870302267
O   O14       1.0  0.29520  0.08526  0.21030  1.0000 -0.5008669398
O   O15       1.0  0.49760  0.13718  0.36130  1.0000 -0.5056673719
O   O16       1.0  0.54450  0.04515  0.35930  1.0000 -0.5056673719
