# DDEC6 charges by PACMAN v1.1 (https://github.com/mtap-research/PACMAN-charge/)
data_2019[Zn][sql]2[ION]1
_chemical_formula_sum              "Zn2 H58 C42 S2 N8 O10"
_cell_length_a       9.1265
_cell_length_b       9.4682
_cell_length_c       18.781
_cell_angle_alpha    90
_cell_angle_beta     96.6
_cell_angle_gamma    90

_symmetry_space_group_name_H-M    "P 1"
_symmetry_Int_Tables_number       1

loop_
  _symmetry_equiv_pos_as_xyz
  'x, y, z'

loop_
  _atom_site_type_symbol
  _atom_site_label
  _atom_site_symmetry_multiplicity
  _atom_site_fract_x
  _atom_site_fract_y
  _atom_site_fract_z
  _atom_site_occupancy
  _atom_site_charge
Zn  Zn1       1.0  0.28792  0.45445  0.18465  1.0000 0.661254493
Zn  Zn2       1.0  0.28792  0.54555  0.68465  1.0000 0.661254493
H   H1        1.0  0.58600  0.47500  0.23300  1.0000 0.2959469533
H   H2        1.0  0.57000  0.36700  0.18300  1.0000 0.3569155908
H   H3        1.0  0.99300  0.40000  0.16800  1.0000 0.3483664667
H   H4        1.0  0.00700  0.51700  0.12400  1.0000 0.2937815762
H   H5        1.0  0.40280  0.54000  0.56400  1.0000 0.2380979708
H   H6        1.0  0.17350  0.79300  0.67000  1.0000 0.2380979708
H   H7        1.0  0.05750  0.38020  0.29410  1.0000 0.1177623105
H   H8        1.0  0.04180  0.37700  0.41490  1.0000 0.1482679
H   H9        1.0  0.45120  0.52200  0.44700  1.0000 0.1378254271
H   H10       1.0  0.45750  0.52200  0.32630  1.0000 0.0990013288
H   H11       1.0  0.27950  0.34870  0.54250  1.0000 0.1177623105
H   H12       1.0  0.13380  0.43700  0.53380  1.0000 0.1096606072
H   H13       1.0  0.29010  0.71170  0.49950  1.0000 0.1096606072
H   H14       1.0  0.15000  0.68950  0.53940  1.0000 0.0990013288
H   H15       1.0  0.26980  0.89450  0.58110  1.0000 0.1096606072
H   H16       1.0  0.41670  0.81030  0.60160  1.0000 0.1096606072
H   H17       1.0  0.30920  0.84600  0.77060  1.0000 0.1096606072
H   H18       1.0  0.44890  0.84280  0.72950  1.0000 0.1177623105
H   H19       1.0  0.12140  0.04870  0.73450  1.0000 0.1482679
H   H20       1.0  0.10710  0.28620  0.72000  1.0000 0.0990013288
H   H21       1.0  0.50780  0.29880  0.66790  1.0000 0.0990013288
H   H22       1.0  0.53150  0.05990  0.68180  1.0000 0.1550758159
H   H23       1.0  0.58600  0.52500  0.73300  1.0000 0.2959469533
H   H24       1.0  0.57000  0.63300  0.68300  1.0000 0.3569155908
H   H25       1.0  0.99300  0.60000  0.66800  1.0000 0.3483664667
H   H26       1.0  0.00700  0.48300  0.62400  1.0000 0.2937815762
H   H27       1.0  0.40280  0.46000  0.06400  1.0000 0.2380979708
H   H28       1.0  0.17350  0.20700  0.17000  1.0000 0.2380979708
H   H29       1.0  0.05750  0.61980  0.79410  1.0000 0.1177623105
H   H30       1.0  0.04180  0.62300  0.91490  1.0000 0.1482679
H   H31       1.0  0.45120  0.47800  0.94700  1.0000 0.1378254271
H   H32       1.0  0.45750  0.47800  0.82630  1.0000 0.0990013288
H   H33       1.0  0.27950  0.65130  0.04250  1.0000 0.1177623105
H   H34       1.0  0.13380  0.56300  0.03380  1.0000 0.1096606072
H   H35       1.0  0.29010  0.28830  0.99950  1.0000 0.1096606072
H   H36       1.0  0.15000  0.31050  0.03940  1.0000 0.0990013288
H   H37       1.0  0.26980  0.10550  0.08110  1.0000 0.1096606072
H   H38       1.0  0.41670  0.18970  0.10160  1.0000 0.1096606072
H   H39       1.0  0.30920  0.15400  0.27060  1.0000 0.1096606072
H   H40       1.0  0.44890  0.15720  0.22950  1.0000 0.1177623105
H   H41       1.0  0.12140  0.95130  0.23450  1.0000 0.1482679
H   H42       1.0  0.10710  0.71380  0.22000  1.0000 0.0990013288
H   H43       1.0  0.50780  0.70120  0.16790  1.0000 0.0990013288
H   H44       1.0  0.53150  0.94010  0.18180  1.0000 0.1550758159
H   H45       1.0  0.80990  0.71740  0.53660  1.0000 0.1096606072
H   H46       1.0  0.90190  0.75550  0.43080  1.0000 0.1177623105
H   H47       1.0  0.06000  0.12910  0.49950  1.0000 0.1096606072
H   H48       1.0  0.96310  0.09640  0.60550  1.0000 0.1096606072
H   H49       1.0  0.11300  0.89060  0.37290  1.0000 0.1177623105
H   H50       1.0  0.10850  0.05440  0.38460  1.0000 0.1177623105
H   H51       1.0  0.97130  0.97660  0.34470  1.0000 0.1482679
H   H52       1.0  0.80990  0.28260  0.03660  1.0000 0.1096606072
H   H53       1.0  0.90190  0.24450  0.93080  1.0000 0.1177623105
H   H54       1.0  0.06000  0.87090  0.99950  1.0000 0.1096606072
H   H55       1.0  0.96310  0.90360  0.10550  1.0000 0.1096606072
H   H56       1.0  0.11300  0.10940  0.87290  1.0000 0.1177623105
H   H57       1.0  0.10850  0.94560  0.88460  1.0000 0.1177623105
H   H58       1.0  0.97130  0.02340  0.84470  1.0000 0.1482679
C   C1        1.0  0.13900  0.40840  0.32510  1.0000 0.0751283368
C   C2        1.0  0.12880  0.40670  0.39820  1.0000 -0.2092053541
C   C3        1.0  0.24450  0.44790  0.44550  1.0000 0.1280636466
C   C4        1.0  0.36910  0.49180  0.41690  1.0000 -0.2092053541
C   C5        1.0  0.37220  0.49110  0.34410  1.0000 0.0432941405
C   C6        1.0  0.23680  0.43820  0.52560  1.0000 -0.187261852
C   C7        1.0  0.25700  0.69080  0.54560  1.0000 -0.1192723108
C   C8        1.0  0.31000  0.80420  0.59820  1.0000 -0.1192723108
C   C9        1.0  0.34490  0.86700  0.72500  1.0000 -0.1590383673
C   C10       1.0  0.32980  0.02470  0.71150  1.0000 0.1482679
C   C11       1.0  0.20250  0.09770  0.72140  1.0000 -0.181538465
C   C12       1.0  0.19390  0.24030  0.71220  1.0000 0.0432941405
C   C13       1.0  0.42870  0.24780  0.68170  1.0000 0.0432941405
C   C14       1.0  0.44400  0.10380  0.69030  1.0000 -0.181538465
C   C15       1.0  0.13900  0.59160  0.82510  1.0000 0.0751283368
C   C16       1.0  0.12880  0.59330  0.89820  1.0000 -0.2092053541
C   C17       1.0  0.24450  0.55210  0.94550  1.0000 0.1280636466
C   C18       1.0  0.36910  0.50820  0.91690  1.0000 -0.2092053541
C   C19       1.0  0.37220  0.50890  0.84410  1.0000 0.0432941405
C   C20       1.0  0.23680  0.56180  0.02560  1.0000 -0.187261852
C   C21       1.0  0.25700  0.30920  0.04560  1.0000 -0.1192723108
C   C22       1.0  0.31000  0.19580  0.09820  1.0000 -0.1192723108
C   C23       1.0  0.34490  0.13300  0.22500  1.0000 -0.1590383673
C   C24       1.0  0.32980  0.97530  0.21150  1.0000 0.1482679
C   C25       1.0  0.20250  0.90230  0.22140  1.0000 -0.181538465
C   C26       1.0  0.19390  0.75970  0.21220  1.0000 0.0432941405
C   C27       1.0  0.42870  0.75220  0.18170  1.0000 0.0432941405
C   C28       1.0  0.44400  0.89620  0.19030  1.0000 -0.181538465
C   C29       1.0  0.88070  0.90140  0.58270  1.0000 -0.1192723108
C   C30       1.0  0.86050  0.80050  0.52937  1.0000 -0.1192723108
C   C31       1.0  0.91560  0.82420  0.46627  1.0000 -0.1692280793
C   C32       1.0  0.99140  0.94650  0.45235  1.0000 0.1741780317
C   C33       1.0  0.00890  0.04630  0.50660  1.0000 -0.181538465
C   C34       1.0  0.95280  0.02640  0.57052  1.0000 -0.1132871346
C   C35       1.0  0.05140  0.96900  0.38239  1.0000 -0.4743573093
C   C36       1.0  0.88070  0.09860  0.08270  1.0000 -0.1192723108
C   C37       1.0  0.86050  0.19950  0.02937  1.0000 -0.1192723108
C   C38       1.0  0.91560  0.17580  0.96627  1.0000 -0.1692280793
C   C39       1.0  0.99140  0.05350  0.95235  1.0000 0.1741780317
C   C40       1.0  0.00890  0.95370  0.00660  1.0000 -0.181538465
C   C41       1.0  0.95280  0.97360  0.07052  1.0000 -0.1132871346
C   C42       1.0  0.05140  0.03100  0.88239  1.0000 -0.4743573093
S   S1        1.0  0.82086  0.86603  0.66749  1.0000 1.1458132243
S   S2        1.0  0.82086  0.13397  0.16749  1.0000 1.1458132243
N   N1        1.0  0.25930  0.44840  0.29739  1.0000 -0.2314914191
N   N2        1.0  0.31170  0.55250  0.56970  1.0000 -0.3076788658
N   N3        1.0  0.26570  0.77570  0.66947  1.0000 -0.3286437863
N   N4        1.0  0.30620  0.31740  0.69210  1.0000 -0.26418257
N   N5        1.0  0.25930  0.55160  0.79739  1.0000 -0.2314914191
N   N6        1.0  0.31170  0.44750  0.06970  1.0000 -0.3076788658
N   N7        1.0  0.26570  0.22430  0.16947  1.0000 -0.3286437863
N   N8        1.0  0.30620  0.68260  0.19210  1.0000 -0.26418257
O   O1        1.0  0.52470  0.42730  0.20517  1.0000 -0.6822801256
O   O2        1.0  0.04940  0.46640  0.15791  1.0000 -0.6899275804
O   O3        1.0  0.52470  0.57270  0.70517  1.0000 -0.6822801256
O   O4        1.0  0.04940  0.53360  0.65791  1.0000 -0.6899275804
O   O5        1.0  0.81130  0.99880  0.70380  1.0000 -0.6301467741
O   O6        1.0  0.93560  0.77830  0.70361  1.0000 -0.6301467741
O   O7        1.0  0.68020  0.79590  0.65310  1.0000 -0.6435775781
O   O8        1.0  0.81130  0.00120  0.20380  1.0000 -0.6301467741
O   O9        1.0  0.93560  0.22170  0.20361  1.0000 -0.6301467741
O   O10       1.0  0.68020  0.20410  0.15310  1.0000 -0.6435775781
