# DDEC6 charges by PACMAN v1.1 (https://github.com/mtap-research/PACMAN-charge/)
data_2019[Ag][nan]2[ION]1
_chemical_formula_sum              "Ag2 P2 H30 C48 N6 O12 F12"
_cell_length_a       17.4403
_cell_length_b       17.4403
_cell_length_c       12.151
_cell_angle_alpha    78.3111
_cell_angle_beta     101.689
_cell_angle_gamma    150.459

_symmetry_space_group_name_H-M    "P 1"
_symmetry_Int_Tables_number       1

loop_
  _symmetry_equiv_pos_as_xyz
  'x, y, z'

loop_
  _atom_site_type_symbol
  _atom_site_label
  _atom_site_symmetry_multiplicity
  _atom_site_fract_x
  _atom_site_fract_y
  _atom_site_fract_z
  _atom_site_occupancy
  _atom_site_charge
Ag  Ag1       1.0  0.08092  0.87604  0.79465  1.0000 0.3018940041
Ag  Ag2       1.0  0.87604  0.08092  0.20535  1.0000 0.3018940041
P   P1        1.0  0.30375  0.47405  0.11865  1.0000 1.3755363176
P   P2        1.0  0.47405  0.30375  0.88135  1.0000 1.3732185314
H   H1        1.0  0.16543  0.11697  0.68446  1.0000 0.1070979244
H   H2        1.0  0.06025  0.14967  0.59990  1.0000 0.1399974088
H   H3        1.0  0.63266  0.68252  0.63171  1.0000 0.1461359809
H   H4        1.0  0.75356  0.66824  0.71574  1.0000 0.1070979244
H   H5        1.0  0.91617  0.25097  0.99886  1.0000 0.1070979244
H   H6        1.0  0.85891  0.23915  0.80532  1.0000 0.1399974088
H   H7        1.0  0.53782  0.79456  0.83615  1.0000 0.1399974088
H   H8        1.0  0.61939  0.82865  0.02559  1.0000 0.1070979244
H   H9        1.0  0.36393  0.12587  0.63589  1.0000 0.0974174269
H   H10       1.0  0.47904  0.15372  0.51929  1.0000 0.1299888392
H   H11       1.0  0.20957  0.73727  0.65623  1.0000 0.1399974088
H   H12       1.0  0.10066  0.72266  0.76266  1.0000 0.0974174269
H   H13       1.0  0.33515  0.80761  0.31541  1.0000 0.1299888392
H   H14       1.0  0.39124  0.75304  0.22321  1.0000 0.1299888392
H   H15       1.0  0.51998  0.75440  0.31914  1.0000 0.1399974088
H   H16       1.0  0.11697  0.16543  0.31554  1.0000 0.1070979244
H   H17       1.0  0.14967  0.06025  0.40010  1.0000 0.1399974088
H   H18       1.0  0.68252  0.63266  0.36829  1.0000 0.1461359809
H   H19       1.0  0.66824  0.75356  0.28426  1.0000 0.1070979244
H   H20       1.0  0.25097  0.91617  0.00114  1.0000 0.1070979244
H   H21       1.0  0.23915  0.85891  0.19468  1.0000 0.1399974088
H   H22       1.0  0.79456  0.53782  0.16385  1.0000 0.1399974088
H   H23       1.0  0.82865  0.61939  0.97441  1.0000 0.1070979244
H   H24       1.0  0.12587  0.36393  0.36411  1.0000 0.0974174269
H   H25       1.0  0.15372  0.47904  0.48071  1.0000 0.1299888392
H   H26       1.0  0.73727  0.20957  0.34377  1.0000 0.1399974088
H   H27       1.0  0.72266  0.10066  0.23734  1.0000 0.0974174269
H   H28       1.0  0.80761  0.33515  0.68459  1.0000 0.1299888392
H   H29       1.0  0.75304  0.39124  0.77679  1.0000 0.1299888392
H   H30       1.0  0.75440  0.51998  0.68086  1.0000 0.1399974088
C   C1        1.0  0.05560  0.02800  0.67380  1.0000 0.0649805913
C   C2        1.0  0.99420  0.04900  0.62350  1.0000 -0.1384055888
C   C3        1.0  0.83690  0.91950  0.61020  1.0000 0.0079814882
C   C4        1.0  0.74280  0.77420  0.64250  1.0000 -0.1574009334
C   C5        1.0  0.81720  0.76780  0.69200  1.0000 0.0974174269
C   C6        1.0  0.77320  0.94420  0.56070  1.0000 0.5140112589
C   C7        1.0  0.84320  0.15800  0.96370  1.0000 0.0823669682
C   C8        1.0  0.80720  0.15100  0.84840  1.0000 -0.1479940762
C   C9        1.0  0.69550  0.01410  0.79920  1.0000 0.0168647791
C   C10       1.0  0.62280  0.89440  0.86550  1.0000 -0.1295202946
C   C11       1.0  0.67190  0.91570  0.97950  1.0000 0.0941646496
C   C12       1.0  0.65740  0.00780  0.67530  1.0000 0.5343785832
C   C13       1.0  0.33070  0.04470  0.63800  1.0000 0.0974174269
C   C14       1.0  0.40120  0.06360  0.56830  1.0000 -0.1384055888
C   C15       1.0  0.35150  0.94270  0.57400  1.0000 0.0168647791
C   C16       1.0  0.24180  0.81820  0.64840  1.0000 -0.1295202946
C   C17       1.0  0.17820  0.81080  0.71240  1.0000 0.0716558533
C   C18       1.0  0.42100  0.95860  0.49620  1.0000 0.5188518414
C   C19       1.0  0.54790  0.81330  0.46720  1.0000 0.1628133232
C   C20       1.0  0.51460  0.84340  0.52410  1.0000 0.0716558533
C   C21       1.0  0.43470  0.83930  0.46790  1.0000 0.1736226777
C   C22       1.0  0.38820  0.80780  0.35470  1.0000 -0.1925772404
C   C23       1.0  0.42250  0.77610  0.30040  1.0000 -0.0481108849
C   C24       1.0  0.49950  0.77790  0.35680  1.0000 -0.2012310003
C   C25       1.0  0.02800  0.05560  0.32620  1.0000 0.0649805913
C   C26       1.0  0.04900  0.99420  0.37650  1.0000 -0.1384055888
C   C27       1.0  0.91950  0.83690  0.38980  1.0000 0.0079814882
C   C28       1.0  0.77420  0.74280  0.35750  1.0000 -0.1574009334
C   C29       1.0  0.76780  0.81720  0.30800  1.0000 0.0974174269
C   C30       1.0  0.94420  0.77320  0.43930  1.0000 0.5140112589
C   C31       1.0  0.15800  0.84320  0.03630  1.0000 0.0823669682
C   C32       1.0  0.15100  0.80720  0.15160  1.0000 -0.1479940762
C   C33       1.0  0.01410  0.69550  0.20080  1.0000 0.0168647791
C   C34       1.0  0.89440  0.62280  0.13450  1.0000 -0.1295202946
C   C35       1.0  0.91570  0.67190  0.02050  1.0000 0.0941646496
C   C36       1.0  0.00780  0.65740  0.32470  1.0000 0.5343785832
C   C37       1.0  0.04470  0.33070  0.36200  1.0000 0.0974174269
C   C38       1.0  0.06360  0.40120  0.43170  1.0000 -0.1384055888
C   C39       1.0  0.94270  0.35150  0.42600  1.0000 0.0168647791
C   C40       1.0  0.81820  0.24180  0.35160  1.0000 -0.1295202946
C   C41       1.0  0.81080  0.17820  0.28760  1.0000 0.0716558533
C   C42       1.0  0.95860  0.42100  0.50380  1.0000 0.5188518414
C   C43       1.0  0.81330  0.54790  0.53280  1.0000 0.1628133232
C   C44       1.0  0.84340  0.51460  0.47590  1.0000 0.0716558533
C   C45       1.0  0.83930  0.43470  0.53210  1.0000 0.1736226777
C   C46       1.0  0.80780  0.38820  0.64530  1.0000 -0.1925772404
C   C47       1.0  0.77610  0.42250  0.69960  1.0000 -0.0481108849
C   C48       1.0  0.77790  0.49950  0.64320  1.0000 -0.2012310003
N   N1        1.0  0.96470  0.88650  0.70750  1.0000 -0.1770323565
N   N2        1.0  0.78320  0.04560  0.02450  1.0000 -0.1719361445
N   N3        1.0  0.22080  0.92180  0.70630  1.0000 -0.1770323565
N   N4        1.0  0.88650  0.96470  0.29250  1.0000 -0.1770323565
N   N5        1.0  0.04560  0.78320  0.97550  1.0000 -0.1719361445
N   N6        1.0  0.92180  0.22080  0.29370  1.0000 -0.1770323565
O   O1        1.0  0.84610  0.06630  0.55100  1.0000 -0.4179620793
O   O2        1.0  0.62156  0.80824  0.52426  1.0000 -0.2331396019
O   O3        1.0  0.70530  0.10590  0.61760  1.0000 -0.4124553253
O   O4        1.0  0.55746  0.86894  0.63886  1.0000 -0.2331396019
O   O5        1.0  0.49347  0.04753  0.41687  1.0000 -0.4506155898
O   O6        1.0  0.38936  0.85364  0.53136  1.0000 -0.2484962171
O   O7        1.0  0.06630  0.84610  0.44900  1.0000 -0.4179620793
O   O8        1.0  0.80824  0.62156  0.47574  1.0000 -0.2331396019
O   O9        1.0  0.10590  0.70530  0.38240  1.0000 -0.4124553253
O   O10       1.0  0.86894  0.55746  0.36114  1.0000 -0.2331396019
O   O11       1.0  0.04753  0.49347  0.58313  1.0000 -0.4506155898
O   O12       1.0  0.85364  0.38936  0.46864  1.0000 -0.2484962171
F   F1        1.0  0.33740  0.54000  0.99280  1.0000 -0.4035721471
F   F2        1.0  0.42160  0.51640  0.11810  1.0000 -0.3343371799
F   F3        1.0  0.43950  0.64130  0.15920  1.0000 -0.3781678786
F   F4        1.0  0.20110  0.45290  0.13540  1.0000 -0.3867668559
F   F5        1.0  0.18390  0.31610  0.08700  1.0000 -0.3781678786
F   F6        1.0  0.26370  0.40470  0.24250  1.0000 -0.3781678786
F   F7        1.0  0.54000  0.33740  0.00720  1.0000 -0.4035721471
F   F8        1.0  0.51640  0.42160  0.88190  1.0000 -0.3343371799
F   F9        1.0  0.64130  0.43950  0.84080  1.0000 -0.3781678786
F   F10       1.0  0.45290  0.20110  0.86460  1.0000 -0.3867668559
F   F11       1.0  0.31610  0.18390  0.91300  1.0000 -0.3711279382
F   F12       1.0  0.40470  0.26370  0.75750  1.0000 -0.3781678786
