# DDEC6 charges by PACMAN v1.1 (https://github.com/mtap-research/PACMAN-charge/)
data_2019[Ag][sra]3[ION]1
_chemical_formula_sum              "Ag4 B4 H48 C68 N24 F16"
_cell_length_a       9.196
_cell_length_b       24.96
_cell_length_c       14.382
_cell_angle_alpha    90
_cell_angle_beta     122.483
_cell_angle_gamma    90

_symmetry_space_group_name_H-M    "P 1"
_symmetry_Int_Tables_number       1

loop_
  _symmetry_equiv_pos_as_xyz
  'x, y, z'

loop_
  _atom_site_type_symbol
  _atom_site_label
  _atom_site_symmetry_multiplicity
  _atom_site_fract_x
  _atom_site_fract_y
  _atom_site_fract_z
  _atom_site_occupancy
  _atom_site_charge
Ag  Ag1       1.0  0.36861  0.88135  0.08152  1.0000 0.2606858993
Ag  Ag2       1.0  0.63139  0.38135  0.41848  1.0000 0.2606858993
Ag  Ag3       1.0  0.63139  0.11865  0.91848  1.0000 0.2606858993
Ag  Ag4       1.0  0.36861  0.61865  0.58152  1.0000 0.2606858993
B   B1        1.0  0.47250  0.40970  0.79730  1.0000 1.0288026118
B   B2        1.0  0.52750  0.90970  0.70270  1.0000 1.0366076016
B   B3        1.0  0.52750  0.59030  0.20270  1.0000 1.0366076016
B   B4        1.0  0.47250  0.09030  0.29730  1.0000 1.0288026118
H   H1        1.0  0.17850  0.08120  0.98240  1.0000 0.1391539173
H   H2        1.0  0.21600  0.99900  0.06400  1.0000 0.1117998045
H   H3        1.0  0.34480  0.93360  0.87430  1.0000 0.1117998045
H   H4        1.0  0.30480  0.01320  0.78260  1.0000 0.1464672731
H   H5        1.0  0.78250  0.18370  0.55220  1.0000 0.1391539173
H   H6        1.0  0.62120  0.25590  0.45230  1.0000 0.1188380677
H   H7        1.0  0.00930  0.35220  0.62120  1.0000 0.1188380677
H   H8        1.0  0.17840  0.28320  0.73240  1.0000 0.1464672731
H   H9        1.0  0.91660  0.15220  0.85910  1.0000 0.1188380677
H   H10       1.0  0.50730  0.06390  0.69010  1.0000 0.1117998045
H   H11       1.0  0.58220  0.04320  0.56590  1.0000 0.1572273457
H   H12       1.0  0.83480  0.07540  0.59130  1.0000 0.1464672731
H   H13       1.0  0.82150  0.58120  0.51760  1.0000 0.1391539173
H   H14       1.0  0.78400  0.49900  0.43600  1.0000 0.1117998045
H   H15       1.0  0.65520  0.43360  0.62570  1.0000 0.1117998045
H   H16       1.0  0.69520  0.51320  0.71740  1.0000 0.1464672731
H   H17       1.0  0.21750  0.68370  0.94780  1.0000 0.1391539173
H   H18       1.0  0.37880  0.75590  0.04770  1.0000 0.1188380677
H   H19       1.0  0.99070  0.85220  0.87880  1.0000 0.1117998045
H   H20       1.0  0.82160  0.78320  0.76760  1.0000 0.1464672731
H   H21       1.0  0.08340  0.65220  0.64090  1.0000 0.1188380677
H   H22       1.0  0.49270  0.56390  0.80990  1.0000 0.1117998045
H   H23       1.0  0.41780  0.54320  0.93410  1.0000 0.1572273457
H   H24       1.0  0.16520  0.57540  0.90870  1.0000 0.1464672731
H   H25       1.0  0.82150  0.91880  0.01760  1.0000 0.1391539173
H   H26       1.0  0.78400  0.00100  0.93600  1.0000 0.1117998045
H   H27       1.0  0.65520  0.06640  0.12570  1.0000 0.1117998045
H   H28       1.0  0.69520  0.98680  0.21740  1.0000 0.1464672731
H   H29       1.0  0.21750  0.81630  0.44780  1.0000 0.1391539173
H   H30       1.0  0.37880  0.74410  0.54770  1.0000 0.1188380677
H   H31       1.0  0.99070  0.64780  0.37880  1.0000 0.1117998045
H   H32       1.0  0.82160  0.71680  0.26760  1.0000 0.1464672731
H   H33       1.0  0.08340  0.84780  0.14090  1.0000 0.1188380677
H   H34       1.0  0.49270  0.93610  0.30990  1.0000 0.1117998045
H   H35       1.0  0.41780  0.95680  0.43410  1.0000 0.1572273457
H   H36       1.0  0.16520  0.92460  0.40870  1.0000 0.1464672731
H   H37       1.0  0.17850  0.41880  0.48240  1.0000 0.1391539173
H   H38       1.0  0.21600  0.50100  0.56400  1.0000 0.1117998045
H   H39       1.0  0.34480  0.56640  0.37430  1.0000 0.1117998045
H   H40       1.0  0.30480  0.48680  0.28260  1.0000 0.1464672731
H   H41       1.0  0.78250  0.31630  0.05220  1.0000 0.1391539173
H   H42       1.0  0.62120  0.24410  0.95230  1.0000 0.1188380677
H   H43       1.0  0.00930  0.14780  0.12120  1.0000 0.1117998045
H   H44       1.0  0.17840  0.21680  0.23240  1.0000 0.1464672731
H   H45       1.0  0.91660  0.34780  0.35910  1.0000 0.1188380677
H   H46       1.0  0.50730  0.43610  0.19010  1.0000 0.1117998045
H   H47       1.0  0.58220  0.45680  0.06590  1.0000 0.1572273457
H   H48       1.0  0.83480  0.42460  0.09130  1.0000 0.1464672731
C   C1        1.0  0.21100  0.05180  0.95810  1.0000 -0.172888388
C   C2        1.0  0.23540  0.00220  0.00710  1.0000 0.0804540319
C   C3        1.0  0.30990  0.96370  0.89570  1.0000 0.0881148995
C   C4        1.0  0.28670  0.01140  0.84020  1.0000 -0.1632299787
C   C5        1.0  0.23640  0.05630  0.87200  1.0000 0.0470691277
C   C6        1.0  0.21920  0.10810  0.81950  1.0000 0.2215919056
C   C7        1.0  0.11470  0.18180  0.72520  1.0000 0.2347109475
C   C8        1.0  0.99870  0.22520  0.65610  1.0000 0.064891369
C   C9        1.0  0.83070  0.21780  0.56930  1.0000 -0.1752315825
C   C10       1.0  0.73550  0.26130  0.50860  1.0000 0.0804540319
C   C11       1.0  0.96260  0.31800  0.60850  1.0000 0.0804540319
C   C12       1.0  0.06540  0.27660  0.67520  1.0000 -0.1434068298
C   C13       1.0  0.90210  0.11630  0.73010  1.0000 0.1117998045
C   C14       1.0  0.84910  0.12930  0.80020  1.0000 -0.0188451992
C   C15       1.0  0.60850  0.07800  0.70040  1.0000 0.0680315951
C   C16       1.0  0.65380  0.06500  0.62600  1.0000 -0.0746039497
C   C17       1.0  0.80170  0.08390  0.64030  1.0000 -0.1072985894
C   C18       1.0  0.78900  0.55180  0.54190  1.0000 -0.172888388
C   C19       1.0  0.76460  0.50220  0.49290  1.0000 0.0804540319
C   C20       1.0  0.69010  0.46370  0.60430  1.0000 0.0881148995
C   C21       1.0  0.71330  0.51140  0.65980  1.0000 -0.1632299787
C   C22       1.0  0.76360  0.55630  0.62800  1.0000 0.0470691277
C   C23       1.0  0.78080  0.60810  0.68050  1.0000 0.2215919056
C   C24       1.0  0.88530  0.68180  0.77480  1.0000 0.2347109475
C   C25       1.0  0.00130  0.72520  0.84390  1.0000 0.064891369
C   C26       1.0  0.16930  0.71780  0.93070  1.0000 -0.1752315825
C   C27       1.0  0.26450  0.76130  0.99140  1.0000 0.0804540319
C   C28       1.0  0.03740  0.81800  0.89150  1.0000 0.0804540319
C   C29       1.0  0.93460  0.77660  0.82480  1.0000 -0.1434068298
C   C30       1.0  0.09790  0.61630  0.76990  1.0000 0.1117998045
C   C31       1.0  0.15090  0.62930  0.69980  1.0000 -0.0188451992
C   C32       1.0  0.39150  0.57800  0.79960  1.0000 0.0680315951
C   C33       1.0  0.34620  0.56500  0.87400  1.0000 -0.0746039497
C   C34       1.0  0.19830  0.58390  0.85970  1.0000 -0.1072985894
C   C35       1.0  0.78900  0.94820  0.04190  1.0000 -0.172888388
C   C36       1.0  0.76460  0.99780  0.99290  1.0000 0.0804540319
C   C37       1.0  0.69010  0.03630  0.10430  1.0000 0.0881148995
C   C38       1.0  0.71330  0.98860  0.15980  1.0000 -0.1632299787
C   C39       1.0  0.76360  0.94370  0.12800  1.0000 0.0470691277
C   C40       1.0  0.78080  0.89190  0.18050  1.0000 0.2215919056
C   C41       1.0  0.88530  0.81820  0.27480  1.0000 0.2347109475
C   C42       1.0  0.00130  0.77480  0.34390  1.0000 0.064891369
C   C43       1.0  0.16930  0.78220  0.43070  1.0000 -0.1752315825
C   C44       1.0  0.26450  0.73870  0.49140  1.0000 0.0804540319
C   C45       1.0  0.03740  0.68200  0.39150  1.0000 0.0804540319
C   C46       1.0  0.93460  0.72340  0.32480  1.0000 -0.1434068298
C   C47       1.0  0.09790  0.88370  0.26990  1.0000 0.1117998045
C   C48       1.0  0.15090  0.87070  0.19980  1.0000 -0.0188451992
C   C49       1.0  0.39150  0.92200  0.29960  1.0000 0.0680315951
C   C50       1.0  0.34620  0.93500  0.37400  1.0000 -0.0746039497
C   C51       1.0  0.19830  0.91610  0.35970  1.0000 -0.1072985894
C   C52       1.0  0.21100  0.44820  0.45810  1.0000 -0.172888388
C   C53       1.0  0.23540  0.49780  0.50710  1.0000 0.0804540319
C   C54       1.0  0.30990  0.53630  0.39570  1.0000 0.0881148995
C   C55       1.0  0.28670  0.48860  0.34020  1.0000 -0.1632299787
C   C56       1.0  0.23640  0.44370  0.37200  1.0000 0.0470691277
C   C57       1.0  0.21920  0.39190  0.31950  1.0000 0.2215919056
C   C58       1.0  0.11470  0.31820  0.22520  1.0000 0.2347109475
C   C59       1.0  0.99870  0.27480  0.15610  1.0000 0.0680315951
C   C60       1.0  0.83070  0.28220  0.06930  1.0000 -0.1752315825
C   C61       1.0  0.73550  0.23870  0.00860  1.0000 0.0804540319
C   C62       1.0  0.96260  0.18200  0.10850  1.0000 0.0804540319
C   C63       1.0  0.06540  0.22340  0.17520  1.0000 -0.1434068298
C   C64       1.0  0.90210  0.38370  0.23010  1.0000 0.1117998045
C   C65       1.0  0.84910  0.37070  0.30020  1.0000 -0.0188451992
C   C66       1.0  0.60850  0.42200  0.20040  1.0000 0.0680315951
C   C67       1.0  0.65380  0.43500  0.12600  1.0000 -0.0746039497
C   C68       1.0  0.80170  0.41610  0.14030  1.0000 -0.1072985894
N   N1        1.0  0.28470  0.95872  0.97800  1.0000 -0.2024600273
N   N2        1.0  0.34760  0.13590  0.82680  1.0000 -0.1874279743
N   N3        1.0  0.28060  0.18290  0.76790  1.0000 -0.2367003626
N   N4        1.0  0.06800  0.13554  0.75460  1.0000 -0.0942681423
N   N5        1.0  0.79860  0.31080  0.52630  1.0000 -0.211878418
N   N6        1.0  0.70390  0.10990  0.78610  1.0000 -0.172888388
N   N7        1.0  0.71530  0.45872  0.52200  1.0000 -0.2024600273
N   N8        1.0  0.65240  0.63590  0.67320  1.0000 -0.1874279743
N   N9        1.0  0.71940  0.68290  0.73210  1.0000 -0.2367003626
N   N10       1.0  0.93200  0.63554  0.74540  1.0000 -0.0942681423
N   N11       1.0  0.20140  0.81080  0.97370  1.0000 -0.211878418
N   N12       1.0  0.29610  0.60990  0.71390  1.0000 -0.172888388
N   N13       1.0  0.71530  0.04128  0.02200  1.0000 -0.2024600273
N   N14       1.0  0.65240  0.86410  0.17320  1.0000 -0.1874279743
N   N15       1.0  0.71940  0.81710  0.23210  1.0000 -0.2367003626
N   N16       1.0  0.93200  0.86446  0.24540  1.0000 -0.0942681423
N   N17       1.0  0.20140  0.68920  0.47370  1.0000 -0.211878418
N   N18       1.0  0.29610  0.89010  0.21390  1.0000 -0.172888388
N   N19       1.0  0.28470  0.54128  0.47800  1.0000 -0.2024600273
N   N20       1.0  0.34760  0.36410  0.32680  1.0000 -0.1874279743
N   N21       1.0  0.28060  0.31710  0.26790  1.0000 -0.2367003626
N   N22       1.0  0.06800  0.36446  0.25460  1.0000 -0.0942681423
N   N23       1.0  0.79860  0.18920  0.02630  1.0000 -0.211878418
N   N24       1.0  0.70390  0.39010  0.28610  1.0000 -0.172888388
F   F1        1.0  0.29750  0.41330  0.71940  1.0000 -0.4825317716
F   F2        1.0  0.54250  0.40770  0.73830  1.0000 -0.4825317716
F   F3        1.0  0.49760  0.36580  0.85430  1.0000 -0.5010948268
F   F4        1.0  0.52460  0.45110  0.86370  1.0000 -0.5010948268
F   F5        1.0  0.70250  0.91330  0.78060  1.0000 -0.4825317716
F   F6        1.0  0.45750  0.90770  0.76170  1.0000 -0.4874185637
F   F7        1.0  0.50240  0.86580  0.64570  1.0000 -0.5010948268
F   F8        1.0  0.47540  0.95110  0.63630  1.0000 -0.5010948268
F   F9        1.0  0.70250  0.58670  0.28060  1.0000 -0.4825317716
F   F10       1.0  0.45750  0.59230  0.26170  1.0000 -0.4874185637
F   F11       1.0  0.50240  0.63420  0.14570  1.0000 -0.5010948268
F   F12       1.0  0.47540  0.54890  0.13630  1.0000 -0.5061892486
F   F13       1.0  0.29750  0.08670  0.21940  1.0000 -0.4825317716
F   F14       1.0  0.54250  0.09230  0.23830  1.0000 -0.4874185637
F   F15       1.0  0.49760  0.13420  0.35430  1.0000 -0.5010948268
F   F16       1.0  0.52460  0.04890  0.36370  1.0000 -0.5010948268
