# DDEC6 charges by PACMAN v1.1 (https://github.com/mtap-research/PACMAN-charge/)
data_2019[ErCo][bex]2[ION]1
_chemical_formula_sum              "Er4 Co4 H124 C192 N28 O56"
_cell_length_a       10.0421
_cell_length_b       29.0407
_cell_length_c       19.0694
_cell_angle_alpha    90
_cell_angle_beta     94.1
_cell_angle_gamma    90

_symmetry_space_group_name_H-M    "P 1"
_symmetry_Int_Tables_number       1

loop_
  _symmetry_equiv_pos_as_xyz
  'x, y, z'

loop_
  _atom_site_type_symbol
  _atom_site_label
  _atom_site_symmetry_multiplicity
  _atom_site_fract_x
  _atom_site_fract_y
  _atom_site_fract_z
  _atom_site_occupancy
  _atom_site_charge
Er  Er1       1.0  0.43841  0.60384  0.74334  1.0000 2.0806797057
Er  Er2       1.0  0.56159  0.10384  0.75666  1.0000 2.0806797057
Er  Er3       1.0  0.56159  0.39616  0.25666  1.0000 2.0806797057
Er  Er4       1.0  0.43841  0.89616  0.24334  1.0000 2.0806797057
Co  Co1       1.0  0.96076  0.84628  0.65387  1.0000 0.4836419359
Co  Co2       1.0  0.03924  0.34628  0.84613  1.0000 0.4836419359
Co  Co3       1.0  0.03924  0.15372  0.34613  1.0000 0.4836419359
Co  Co4       1.0  0.96076  0.65372  0.15387  1.0000 0.4836419359
H   H1        1.0  0.35680  0.54470  0.85000  1.0000 0.4041781634
H   H2        1.0  0.49720  0.53230  0.84290  1.0000 0.4064874262
H   H3        1.0  0.16300  0.78480  0.73840  1.0000 0.130439608
H   H4        1.0  0.31240  0.80440  0.44570  1.0000 0.130439608
H   H5        1.0  0.08010  0.69640  0.57590  1.0000 0.1490320122
H   H6        1.0  0.62080  0.80770  0.86940  1.0000 0.130439608
H   H7        1.0  0.69400  0.88360  0.85660  1.0000 0.1490320122
H   H8        1.0  0.92500  0.51030  0.65900  1.0000 0.1133741908
H   H9        1.0  0.11890  0.89990  0.54910  1.0000 0.1133741908
H   H10       1.0  0.73450  0.63180  0.65350  1.0000 0.130439608
H   H11       1.0  0.73010  0.79920  0.56870  1.0000 0.119121984
H   H12       1.0  0.82920  0.90020  0.76840  1.0000 0.130439608
H   H13       1.0  0.07010  0.18120  0.66340  1.0000 0.119121984
H   H14       1.0  0.83570  0.00130  0.59000  1.0000 0.1490320122
H   H15       1.0  0.79750  0.69850  0.71780  1.0000 0.1593096752
H   H16       1.0  0.83060  0.07070  0.66570  1.0000 0.1033598691
H   H17       1.0  0.17310  0.98920  0.71700  1.0000 0.1490320122
H   H18       1.0  0.20280  0.74730  0.50660  1.0000 0.139526708
H   H19       1.0  0.51560  0.90150  0.47770  1.0000 0.130439608
H   H20       1.0  0.26760  0.88080  0.46710  1.0000 0.139526708
H   H21       1.0  0.69130  0.75110  0.79420  1.0000 0.1593096752
H   H22       1.0  0.66600  0.95380  0.53010  1.0000 0.130439608
H   H23       1.0  0.13550  0.62680  0.64770  1.0000 0.130439608
H   H24       1.0  0.22460  0.05410  0.64610  1.0000 0.119121984
H   H25       1.0  0.30480  0.93250  0.78220  1.0000 0.1593096752
H   H26       1.0  0.35580  0.79700  0.80830  1.0000 0.139526708
H   H27       1.0  0.36710  0.73820  0.61610  1.0000 0.1593096752
H   H28       1.0  0.52350  0.73930  0.61930  1.0000 0.1593096752
H   H29       1.0  0.44840  0.75530  0.68440  1.0000 0.1593096752
H   H30       1.0  0.42610  0.87120  0.83270  1.0000 0.119121984
H   H31       1.0  0.54870  0.82310  0.49790  1.0000 0.139526708
H   H32       1.0  0.64320  0.04470  0.65000  1.0000 0.4041781634
H   H33       1.0  0.50280  0.03230  0.65710  1.0000 0.4064874262
H   H34       1.0  0.83700  0.28480  0.76160  1.0000 0.130439608
H   H35       1.0  0.68760  0.30440  0.05430  1.0000 0.130439608
H   H36       1.0  0.91990  0.19640  0.92410  1.0000 0.1490320122
H   H37       1.0  0.37920  0.30770  0.63060  1.0000 0.130439608
H   H38       1.0  0.30600  0.38360  0.64340  1.0000 0.1490320122
H   H39       1.0  0.07500  0.01030  0.84100  1.0000 0.1133741908
H   H40       1.0  0.88110  0.39990  0.95090  1.0000 0.1133741908
H   H41       1.0  0.26550  0.13180  0.84650  1.0000 0.130439608
H   H42       1.0  0.26990  0.29920  0.93130  1.0000 0.119121984
H   H43       1.0  0.17080  0.40020  0.73160  1.0000 0.130439608
H   H44       1.0  0.92990  0.68120  0.83660  1.0000 0.119121984
H   H45       1.0  0.16430  0.50130  0.91000  1.0000 0.1490320122
H   H46       1.0  0.20250  0.19850  0.78220  1.0000 0.1593096752
H   H47       1.0  0.16940  0.57070  0.83430  1.0000 0.1033598691
H   H48       1.0  0.82690  0.48920  0.78300  1.0000 0.1490320122
H   H49       1.0  0.79720  0.24730  0.99340  1.0000 0.139526708
H   H50       1.0  0.48440  0.40150  0.02230  1.0000 0.130439608
H   H51       1.0  0.73240  0.38080  0.03290  1.0000 0.130439608
H   H52       1.0  0.30870  0.25110  0.70580  1.0000 0.1593096752
H   H53       1.0  0.33400  0.45380  0.96990  1.0000 0.130439608
H   H54       1.0  0.86450  0.12680  0.85230  1.0000 0.130439608
H   H55       1.0  0.77540  0.55410  0.85390  1.0000 0.119121984
H   H56       1.0  0.69520  0.43250  0.71780  1.0000 0.1593096752
H   H57       1.0  0.64420  0.29700  0.69170  1.0000 0.139526708
H   H58       1.0  0.63290  0.23820  0.88390  1.0000 0.1593096752
H   H59       1.0  0.47650  0.23930  0.88070  1.0000 0.1593096752
H   H60       1.0  0.55160  0.25530  0.81560  1.0000 0.1593096752
H   H61       1.0  0.57390  0.37120  0.66730  1.0000 0.119121984
H   H62       1.0  0.45130  0.32310  0.00210  1.0000 0.139526708
H   H63       1.0  0.64320  0.45530  0.15000  1.0000 0.4041781634
H   H64       1.0  0.50280  0.46770  0.15710  1.0000 0.4064874262
H   H65       1.0  0.83700  0.21520  0.26160  1.0000 0.130439608
H   H66       1.0  0.68760  0.19560  0.55430  1.0000 0.130439608
H   H67       1.0  0.91990  0.30360  0.42410  1.0000 0.1490320122
H   H68       1.0  0.37920  0.19230  0.13060  1.0000 0.130439608
H   H69       1.0  0.30600  0.11640  0.14340  1.0000 0.1490320122
H   H70       1.0  0.07500  0.48970  0.34100  1.0000 0.1133741908
H   H71       1.0  0.88110  0.10010  0.45090  1.0000 0.1133741908
H   H72       1.0  0.26550  0.36820  0.34650  1.0000 0.130439608
H   H73       1.0  0.26990  0.20080  0.43130  1.0000 0.119121984
H   H74       1.0  0.17080  0.09980  0.23160  1.0000 0.130439608
H   H75       1.0  0.92990  0.81880  0.33660  1.0000 0.119121984
H   H76       1.0  0.16430  0.99870  0.41000  1.0000 0.1490320122
H   H77       1.0  0.20250  0.30150  0.28220  1.0000 0.1593096752
H   H78       1.0  0.16940  0.92930  0.33430  1.0000 0.1033598691
H   H79       1.0  0.82690  0.01080  0.28300  1.0000 0.1490320122
H   H80       1.0  0.79720  0.25270  0.49340  1.0000 0.139526708
H   H81       1.0  0.48440  0.09850  0.52230  1.0000 0.130439608
H   H82       1.0  0.73240  0.11920  0.53290  1.0000 0.139526708
H   H83       1.0  0.30870  0.24890  0.20580  1.0000 0.1593096752
H   H84       1.0  0.33400  0.04620  0.46990  1.0000 0.130439608
H   H85       1.0  0.86450  0.37320  0.35230  1.0000 0.130439608
H   H86       1.0  0.77540  0.94590  0.35390  1.0000 0.119121984
H   H87       1.0  0.69520  0.06750  0.21780  1.0000 0.1593096752
H   H88       1.0  0.64420  0.20300  0.19170  1.0000 0.139526708
H   H89       1.0  0.63290  0.26180  0.38390  1.0000 0.1593096752
H   H90       1.0  0.47650  0.26070  0.38070  1.0000 0.1593096752
H   H91       1.0  0.55160  0.24470  0.31560  1.0000 0.1593096752
H   H92       1.0  0.57390  0.12880  0.16730  1.0000 0.119121984
H   H93       1.0  0.45130  0.17690  0.50210  1.0000 0.139526708
H   H94       1.0  0.35680  0.95530  0.35000  1.0000 0.4041781634
H   H95       1.0  0.49720  0.96770  0.34290  1.0000 0.4064874262
H   H96       1.0  0.16300  0.71520  0.23840  1.0000 0.130439608
H   H97       1.0  0.31240  0.69560  0.94570  1.0000 0.130439608
H   H98       1.0  0.08010  0.80360  0.07590  1.0000 0.1490320122
H   H99       1.0  0.62080  0.69230  0.36940  1.0000 0.130439608
H   H100      1.0  0.69400  0.61640  0.35660  1.0000 0.1490320122
H   H101      1.0  0.92500  0.98970  0.15900  1.0000 0.1133741908
H   H102      1.0  0.11890  0.60010  0.04910  1.0000 0.1133741908
H   H103      1.0  0.73450  0.86820  0.15350  1.0000 0.130439608
H   H104      1.0  0.73010  0.70080  0.06870  1.0000 0.119121984
H   H105      1.0  0.82920  0.59980  0.26840  1.0000 0.130439608
H   H106      1.0  0.07010  0.31880  0.16340  1.0000 0.119121984
H   H107      1.0  0.83570  0.49870  0.09000  1.0000 0.1490320122
H   H108      1.0  0.79750  0.80150  0.21780  1.0000 0.1593096752
H   H109      1.0  0.83060  0.42930  0.16570  1.0000 0.1033598691
H   H110      1.0  0.17310  0.51080  0.21700  1.0000 0.1490320122
H   H111      1.0  0.20280  0.75270  0.00660  1.0000 0.139526708
H   H112      1.0  0.51560  0.59850  0.97770  1.0000 0.130439608
H   H113      1.0  0.26760  0.61920  0.96710  1.0000 0.139526708
H   H114      1.0  0.69130  0.74890  0.29420  1.0000 0.1593096752
H   H115      1.0  0.66600  0.54620  0.03010  1.0000 0.130439608
H   H116      1.0  0.13550  0.87320  0.14770  1.0000 0.130439608
H   H117      1.0  0.22460  0.44590  0.14610  1.0000 0.119121984
H   H118      1.0  0.30480  0.56750  0.28220  1.0000 0.1593096752
H   H119      1.0  0.35580  0.70300  0.30830  1.0000 0.139526708
H   H120      1.0  0.36710  0.76180  0.11610  1.0000 0.1593096752
H   H121      1.0  0.52350  0.76070  0.11930  1.0000 0.1593096752
H   H122      1.0  0.44840  0.74470  0.18440  1.0000 0.1593096752
H   H123      1.0  0.42610  0.62880  0.33270  1.0000 0.119121984
H   H124      1.0  0.54870  0.67690  0.99790  1.0000 0.139526708
C   C1        1.0  0.19190  0.81480  0.74690  1.0000 0.079885702
C   C2        1.0  0.25210  0.81240  0.47840  1.0000 -0.0199227262
C   C3        1.0  0.02440  0.71220  0.60460  1.0000 -0.2118088804
C   C4        1.0  0.93870  0.68790  0.64700  1.0000 0.1490320122
C   C5        1.0  0.67740  0.81510  0.83450  1.0000 -0.0435425673
C   C6        1.0  0.72030  0.86040  0.82680  1.0000 -0.1401357181
C   C7        1.0  0.86820  0.76100  0.69240  1.0000 0.1692282412
C   C8        1.0  0.88440  0.93514  0.61810  1.0000 0.1850907266
C   C9        1.0  0.92760  0.54230  0.65790  1.0000 -0.1103810851
C   C10       1.0  0.13630  0.86900  0.54080  1.0000 0.0944483787
C   C11       1.0  0.81320  0.61500  0.65310  1.0000 -0.1305700742
C   C12       1.0  0.09980  0.79180  0.56360  1.0000 0.1490320122
C   C13       1.0  0.02420  0.75990  0.60620  1.0000 0.1692282412
C   C14       1.0  0.78390  0.90639  0.58000  1.0000 0.1490320122
C   C15       1.0  0.71710  0.83050  0.56090  1.0000 0.0728618683
C   C16       1.0  0.80240  0.86990  0.77420  1.0000 0.079885702
C   C17       1.0  0.05880  0.14947  0.66220  1.0000 -0.1305700742
C   C18       1.0  0.89780  0.98320  0.61600  1.0000 -0.1889903188
C   C19       1.0  0.85740  0.71350  0.69060  1.0000 -0.1778684813
C   C20       1.0  0.91540  0.08320  0.66340  1.0000 -0.1719539032
C   C21       1.0  0.00690  0.00326  0.65400  1.0000 0.139526708
C   C22       1.0  0.09940  0.97595  0.69250  1.0000 -0.1778684813
C   C23       1.0  0.02490  0.05420  0.65480  1.0000 0.0728618683
C   C24       1.0  0.18730  0.77830  0.51490  1.0000 -0.1589428603
C   C25       1.0  0.08030  0.92862  0.69390  1.0000 0.18035703
C   C26       1.0  0.58840  0.89130  0.50650  1.0000 -0.0199227262
C   C27       1.0  0.22580  0.85770  0.49130  1.0000 -0.1192128338
C   C28       1.0  0.80500  0.79357  0.73910  1.0000 0.1593096752
C   C29       1.0  0.80890  0.56750  0.65760  1.0000 -0.0301271678
C   C30       1.0  0.71970  0.78140  0.79000  1.0000 -0.1305700742
C   C31       1.0  0.16850  0.12080  0.65410  1.0000 -0.0094898297
C   C32       1.0  0.93500  0.63810  0.64820  1.0000 0.0511259263
C   C33       1.0  0.67760  0.92230  0.53770  1.0000 -0.1192128338
C   C34       1.0  0.93340  0.13068  0.66850  1.0000 -0.0199227262
C   C35       1.0  0.05400  0.61200  0.65050  1.0000 -0.1305700742
C   C36       1.0  0.15140  0.07316  0.65090  1.0000 -0.1549089342
C   C37       1.0  0.81700  0.16080  0.68550  1.0000 0.6059015304
C   C38       1.0  0.67770  0.54360  0.66630  1.0000 0.6213649422
C   C39       1.0  0.27700  0.90240  0.77340  1.0000 -0.1103810851
C   C40       1.0  0.17870  0.53730  0.66720  1.0000 0.6213649422
C   C41       1.0  0.16430  0.89380  0.73080  1.0000 0.1490320122
C   C42       1.0  0.30660  0.14100  0.65080  1.0000 0.6030089021
C   C43       1.0  0.30740  0.82190  0.78940  1.0000 -0.1401357181
C   C44       1.0  0.05020  0.56500  0.65680  1.0000 -0.0199227262
C   C45       1.0  0.44730  0.73400  0.64590  1.0000 -0.6222126872
C   C46       1.0  0.34960  0.86580  0.80340  1.0000 -0.0435425673
C   C47       1.0  0.60820  0.84460  0.51830  1.0000 -0.104890199
C   C48       1.0  0.45180  0.68670  0.67330  1.0000 0.6789516866
C   C49       1.0  0.80810  0.31480  0.75310  1.0000 0.079885702
C   C50       1.0  0.74790  0.31240  0.02160  1.0000 -0.0199227262
C   C51       1.0  0.97560  0.21220  0.89540  1.0000 -0.2118088804
C   C52       1.0  0.06130  0.18790  0.85300  1.0000 0.1490320122
C   C53       1.0  0.32260  0.31510  0.66550  1.0000 -0.0435425673
C   C54       1.0  0.27970  0.36040  0.67320  1.0000 -0.1401357181
C   C55       1.0  0.13180  0.26100  0.80760  1.0000 0.1692282412
C   C56       1.0  0.11560  0.43514  0.88190  1.0000 0.1850907266
C   C57       1.0  0.07240  0.04230  0.84210  1.0000 -0.1103810851
C   C58       1.0  0.86370  0.36900  0.95920  1.0000 0.0944483787
C   C59       1.0  0.18680  0.11500  0.84690  1.0000 -0.1305700742
C   C60       1.0  0.90020  0.29180  0.93640  1.0000 0.1490320122
C   C61       1.0  0.97580  0.25990  0.89380  1.0000 0.1692282412
C   C62       1.0  0.21610  0.40639  0.92000  1.0000 0.1490320122
C   C63       1.0  0.28290  0.33050  0.93910  1.0000 0.0728618683
C   C64       1.0  0.19760  0.36990  0.72580  1.0000 0.079885702
C   C65       1.0  0.94120  0.64947  0.83780  1.0000 -0.1305700742
C   C66       1.0  0.10220  0.48320  0.88400  1.0000 -0.1889903188
C   C67       1.0  0.14260  0.21350  0.80940  1.0000 -0.1778684813
C   C68       1.0  0.08460  0.58320  0.83660  1.0000 -0.1719539032
C   C69       1.0  0.99310  0.50326  0.84600  1.0000 0.139526708
C   C70       1.0  0.90060  0.47595  0.80750  1.0000 -0.1778684813
C   C71       1.0  0.97510  0.55420  0.84520  1.0000 0.0728618683
C   C72       1.0  0.81270  0.27830  0.98510  1.0000 -0.1589428603
C   C73       1.0  0.91970  0.42862  0.80610  1.0000 0.18035703
C   C74       1.0  0.41160  0.39130  0.99350  1.0000 -0.0199227262
C   C75       1.0  0.77420  0.35770  0.00870  1.0000 -0.1192128338
C   C76       1.0  0.19500  0.29357  0.76090  1.0000 0.1593096752
C   C77       1.0  0.19110  0.06750  0.84240  1.0000 -0.0301271678
C   C78       1.0  0.28030  0.28140  0.71000  1.0000 -0.1305700742
C   C79       1.0  0.83150  0.62080  0.84590  1.0000 -0.0094898297
C   C80       1.0  0.06500  0.13810  0.85180  1.0000 0.0511259263
C   C81       1.0  0.32240  0.42230  0.96230  1.0000 -0.1192128338
C   C82       1.0  0.06660  0.63068  0.83150  1.0000 -0.0199227262
C   C83       1.0  0.94600  0.11200  0.84950  1.0000 -0.1305700742
C   C84       1.0  0.84860  0.57316  0.84910  1.0000 -0.1549089342
C   C85       1.0  0.18300  0.66080  0.81450  1.0000 0.6059015304
C   C86       1.0  0.32230  0.04360  0.83370  1.0000 0.6213649422
C   C87       1.0  0.72300  0.40240  0.72660  1.0000 -0.1103810851
C   C88       1.0  0.82130  0.03730  0.83280  1.0000 0.6213649422
C   C89       1.0  0.83570  0.39380  0.76920  1.0000 0.1490320122
C   C90       1.0  0.69340  0.64100  0.84920  1.0000 0.6030089021
C   C91       1.0  0.69260  0.32190  0.71060  1.0000 -0.1401357181
C   C92       1.0  0.94980  0.06500  0.84320  1.0000 -0.0199227262
C   C93       1.0  0.55270  0.23400  0.85410  1.0000 -0.6222126872
C   C94       1.0  0.65040  0.36580  0.69660  1.0000 -0.0435425673
C   C95       1.0  0.39180  0.34460  0.98170  1.0000 -0.104890199
C   C96       1.0  0.54820  0.18670  0.82670  1.0000 0.6789516866
C   C97       1.0  0.80810  0.18520  0.25310  1.0000 0.079885702
C   C98       1.0  0.74790  0.18760  0.52160  1.0000 -0.0199227262
C   C99       1.0  0.97560  0.28780  0.39540  1.0000 -0.2118088804
C   C100      1.0  0.06130  0.31210  0.35300  1.0000 0.1490320122
C   C101      1.0  0.32260  0.18490  0.16550  1.0000 -0.0435425673
C   C102      1.0  0.27970  0.13960  0.17320  1.0000 -0.1401357181
C   C103      1.0  0.13180  0.23900  0.30760  1.0000 0.1692282412
C   C104      1.0  0.11560  0.06486  0.38190  1.0000 0.1850907266
C   C105      1.0  0.07240  0.45770  0.34210  1.0000 -0.1103810851
C   C106      1.0  0.86370  0.13100  0.45920  1.0000 0.0944483787
C   C107      1.0  0.18680  0.38500  0.34690  1.0000 -0.1305700742
C   C108      1.0  0.90020  0.20820  0.43640  1.0000 0.1490320122
C   C109      1.0  0.97580  0.24010  0.39380  1.0000 0.1692282412
C   C110      1.0  0.21610  0.09361  0.42000  1.0000 0.1490320122
C   C111      1.0  0.28290  0.16950  0.43910  1.0000 0.0728618683
C   C112      1.0  0.19760  0.13010  0.22580  1.0000 0.079885702
C   C113      1.0  0.94120  0.85053  0.33780  1.0000 -0.1305700742
C   C114      1.0  0.10220  0.01680  0.38400  1.0000 -0.1889903188
C   C115      1.0  0.14260  0.28650  0.30940  1.0000 -0.1778684813
C   C116      1.0  0.08460  0.91680  0.33660  1.0000 -0.1719539032
C   C117      1.0  0.99310  0.99674  0.34600  1.0000 0.139526708
C   C118      1.0  0.90060  0.02405  0.30750  1.0000 -0.1778684813
C   C119      1.0  0.97510  0.94580  0.34520  1.0000 0.0728618683
C   C120      1.0  0.81270  0.22170  0.48510  1.0000 -0.1589428603
C   C121      1.0  0.91970  0.07138  0.30610  1.0000 0.18035703
C   C122      1.0  0.41160  0.10870  0.49350  1.0000 -0.0094898297
C   C123      1.0  0.77420  0.14230  0.50870  1.0000 -0.1192128338
C   C124      1.0  0.19500  0.20643  0.26090  1.0000 0.1490320122
C   C125      1.0  0.19110  0.43250  0.34240  1.0000 -0.0301271678
C   C126      1.0  0.28030  0.21860  0.21000  1.0000 -0.1305700742
C   C127      1.0  0.83150  0.87920  0.34590  1.0000 -0.0094898297
C   C128      1.0  0.06500  0.36190  0.35180  1.0000 0.0511259263
C   C129      1.0  0.32240  0.07770  0.46230  1.0000 -0.1192128338
C   C130      1.0  0.06660  0.86932  0.33150  1.0000 -0.0199227262
C   C131      1.0  0.94600  0.38800  0.34950  1.0000 -0.1305700742
C   C132      1.0  0.84860  0.92684  0.34910  1.0000 -0.1589428603
C   C133      1.0  0.18300  0.83920  0.31450  1.0000 0.6059015304
C   C134      1.0  0.32230  0.45640  0.33370  1.0000 0.6213649422
C   C135      1.0  0.72300  0.09760  0.22660  1.0000 -0.1103810851
C   C136      1.0  0.82130  0.46270  0.33280  1.0000 0.6213649422
C   C137      1.0  0.83570  0.10620  0.26920  1.0000 0.1490320122
C   C138      1.0  0.69340  0.85900  0.34920  1.0000 0.6030089021
C   C139      1.0  0.69260  0.17810  0.21060  1.0000 -0.1401357181
C   C140      1.0  0.94980  0.43500  0.34320  1.0000 -0.0199227262
C   C141      1.0  0.55270  0.26600  0.35410  1.0000 -0.6222126872
C   C142      1.0  0.65040  0.13420  0.19660  1.0000 -0.0435425673
C   C143      1.0  0.39180  0.15540  0.48170  1.0000 -0.104890199
C   C144      1.0  0.54820  0.31330  0.32670  1.0000 0.6789516866
C   C145      1.0  0.19190  0.68520  0.24690  1.0000 0.079885702
C   C146      1.0  0.25210  0.68760  0.97840  1.0000 -0.0199227262
C   C147      1.0  0.02440  0.78780  0.10460  1.0000 -0.2118088804
C   C148      1.0  0.93870  0.81210  0.14700  1.0000 0.1490320122
C   C149      1.0  0.67740  0.68490  0.33450  1.0000 -0.0435425673
C   C150      1.0  0.72030  0.63960  0.32680  1.0000 -0.1401357181
C   C151      1.0  0.86820  0.73900  0.19240  1.0000 0.1692282412
C   C152      1.0  0.88440  0.56486  0.11810  1.0000 0.1850907266
C   C153      1.0  0.92760  0.95770  0.15790  1.0000 -0.1103810851
C   C154      1.0  0.13630  0.63100  0.04080  1.0000 0.0944483787
C   C155      1.0  0.81320  0.88500  0.15310  1.0000 -0.1305700742
C   C156      1.0  0.09980  0.70820  0.06360  1.0000 0.1490320122
C   C157      1.0  0.02420  0.74010  0.10620  1.0000 0.1692282412
C   C158      1.0  0.78390  0.59361  0.08000  1.0000 0.1490320122
C   C159      1.0  0.71710  0.66950  0.06090  1.0000 0.0728618683
C   C160      1.0  0.80240  0.63010  0.27420  1.0000 0.079885702
C   C161      1.0  0.05880  0.35053  0.16220  1.0000 -0.1305700742
C   C162      1.0  0.89780  0.51680  0.11600  1.0000 -0.1889903188
C   C163      1.0  0.85740  0.78650  0.19060  1.0000 -0.1778684813
C   C164      1.0  0.91540  0.41680  0.16340  1.0000 -0.1719539032
C   C165      1.0  0.00690  0.49674  0.15400  1.0000 0.139526708
C   C166      1.0  0.09940  0.52405  0.19250  1.0000 -0.1778684813
C   C167      1.0  0.02490  0.44580  0.15480  1.0000 0.0728618683
C   C168      1.0  0.18730  0.72170  0.01490  1.0000 -0.1589428603
C   C169      1.0  0.08030  0.57138  0.19390  1.0000 0.18035703
C   C170      1.0  0.58840  0.60870  0.00650  1.0000 -0.0094898297
C   C171      1.0  0.22580  0.64230  0.99130  1.0000 -0.1192128338
C   C172      1.0  0.80500  0.70643  0.23910  1.0000 0.1593096752
C   C173      1.0  0.80890  0.93250  0.15760  1.0000 -0.0301271678
C   C174      1.0  0.71970  0.71860  0.29000  1.0000 -0.1305700742
C   C175      1.0  0.16850  0.37920  0.15410  1.0000 -0.0094898297
C   C176      1.0  0.93500  0.86190  0.14820  1.0000 0.0511259263
C   C177      1.0  0.67760  0.57770  0.03770  1.0000 -0.1192128338
C   C178      1.0  0.93340  0.36932  0.16850  1.0000 -0.0199227262
C   C179      1.0  0.05400  0.88800  0.15050  1.0000 -0.1305700742
C   C180      1.0  0.15140  0.42684  0.15090  1.0000 -0.1549089342
C   C181      1.0  0.81700  0.33920  0.18550  1.0000 0.6059015304
C   C182      1.0  0.67770  0.95640  0.16630  1.0000 0.6213649422
C   C183      1.0  0.27700  0.59760  0.27340  1.0000 -0.1103810851
C   C184      1.0  0.17870  0.96270  0.16720  1.0000 0.6213649422
C   C185      1.0  0.16430  0.60620  0.23080  1.0000 0.1490320122
C   C186      1.0  0.30660  0.35900  0.15080  1.0000 0.6030089021
C   C187      1.0  0.30740  0.67810  0.28940  1.0000 -0.1401357181
C   C188      1.0  0.05020  0.93500  0.15680  1.0000 -0.0199227262
C   C189      1.0  0.44730  0.76600  0.14590  1.0000 -0.6222126872
C   C190      1.0  0.34960  0.63420  0.30340  1.0000 -0.0435425673
C   C191      1.0  0.60820  0.65540  0.01830  1.0000 -0.104890199
C   C192      1.0  0.45180  0.81330  0.17330  1.0000 0.6789516866
N   N1        1.0  0.94930  0.78273  0.64950  1.0000 -0.2521016352
N   N2        1.0  0.80470  0.86023  0.59120  1.0000 -0.2118088804
N   N3        1.0  0.97540  0.91012  0.65640  1.0000 -0.2384339586
N   N4        1.0  0.84610  0.83808  0.73070  1.0000 -0.2229951859
N   N5        1.0  0.07420  0.83707  0.57700  1.0000 -0.2118088804
N   N6        1.0  0.12040  0.84928  0.71770  1.0000 -0.2118088804
N   N7        1.0  0.05070  0.28273  0.85050  1.0000 -0.2521016352
N   N8        1.0  0.19530  0.36023  0.90880  1.0000 -0.2118088804
N   N9        1.0  0.02460  0.41012  0.84360  1.0000 -0.2384339586
N   N10       1.0  0.15390  0.33808  0.76930  1.0000 -0.2229951859
N   N11       1.0  0.92580  0.33707  0.92300  1.0000 -0.2118088804
N   N12       1.0  0.87960  0.34928  0.78230  1.0000 -0.2118088804
N   N13       1.0  0.05070  0.21727  0.35050  1.0000 -0.2521016352
N   N14       1.0  0.19530  0.13977  0.40880  1.0000 -0.2118088804
N   N15       1.0  0.02460  0.08988  0.34360  1.0000 -0.2384339586
N   N16       1.0  0.15390  0.16192  0.26930  1.0000 -0.2229951859
N   N17       1.0  0.92580  0.16293  0.42300  1.0000 -0.2118088804
N   N18       1.0  0.87960  0.15072  0.28230  1.0000 -0.2118088804
N   N19       1.0  0.94930  0.71727  0.14950  1.0000 -0.2521016352
N   N20       1.0  0.80470  0.63977  0.09120  1.0000 -0.2118088804
N   N21       1.0  0.97540  0.58988  0.15640  1.0000 -0.2384339586
N   N22       1.0  0.84610  0.66192  0.23070  1.0000 -0.2229951859
N   N23       1.0  0.07420  0.66293  0.07700  1.0000 -0.2118088804
N   N24       1.0  0.12040  0.65072  0.21770  1.0000 -0.2118088804
N   N25       1.0  0.65880  0.47128  0.92860  1.0000 0.6789516866
N   N26       1.0  0.34120  0.97128  0.57140  1.0000 0.6789516866
N   N27       1.0  0.34120  0.52872  0.07140  1.0000 0.6789516866
N   N28       1.0  0.65880  0.02872  0.42860  1.0000 0.6789516866
O   O1        1.0  0.57940  0.56921  0.67760  1.0000 -0.7015538007
O   O2        1.0  0.28210  0.56050  0.68580  1.0000 -0.7015538007
O   O3        1.0  0.31660  0.18234  0.63430  1.0000 -0.5625434607
O   O4        1.0  0.40430  0.11429  0.66650  1.0000 -0.7207482919
O   O5        1.0  0.70730  0.14048  0.69270  1.0000 -0.7207482919
O   O6        1.0  0.54640  0.67381  0.71710  1.0000 -0.6441181094
O   O7        1.0  0.83360  0.20338  0.69020  1.0000 -0.5765539497
O   O8        1.0  0.41840  0.53980  0.81740  1.0000 -0.7933445066
O   O9        1.0  0.17610  0.49528  0.65830  1.0000 -0.5408744753
O   O10       1.0  0.67260  0.50101  0.66220  1.0000 -0.5320711822
O   O11       1.0  0.36070  0.65799  0.65590  1.0000 -0.6297907919
O   O12       1.0  0.42060  0.06921  0.82240  1.0000 -0.7015538007
O   O13       1.0  0.71790  0.06050  0.81420  1.0000 -0.7015538007
O   O14       1.0  0.68340  0.68234  0.86570  1.0000 -0.5625434607
O   O15       1.0  0.59570  0.61429  0.83350  1.0000 -0.7207482919
O   O16       1.0  0.29270  0.64048  0.80730  1.0000 -0.7207482919
O   O17       1.0  0.45360  0.17381  0.78290  1.0000 -0.6441181094
O   O18       1.0  0.16640  0.70338  0.80980  1.0000 -0.5765539497
O   O19       1.0  0.58160  0.03980  0.68260  1.0000 -0.7933445066
O   O20       1.0  0.82390  0.99528  0.84170  1.0000 -0.5408744753
O   O21       1.0  0.32740  0.00101  0.83780  1.0000 -0.5320711822
O   O22       1.0  0.63930  0.15799  0.84410  1.0000 -0.6297907919
O   O23       1.0  0.42060  0.43079  0.32240  1.0000 -0.7015538007
O   O24       1.0  0.71790  0.43950  0.31420  1.0000 -0.7015538007
O   O25       1.0  0.68340  0.81766  0.36570  1.0000 -0.5625434607
O   O26       1.0  0.59570  0.88571  0.33350  1.0000 -0.7207482919
O   O27       1.0  0.29270  0.85952  0.30730  1.0000 -0.7207482919
O   O28       1.0  0.45360  0.32619  0.28290  1.0000 -0.6441181094
O   O29       1.0  0.16640  0.79662  0.30980  1.0000 -0.5765539497
O   O30       1.0  0.58160  0.46020  0.18260  1.0000 -0.7933445066
O   O31       1.0  0.82390  0.50472  0.34170  1.0000 -0.5408744753
O   O32       1.0  0.32740  0.49899  0.33780  1.0000 -0.5320711822
O   O33       1.0  0.63930  0.34201  0.34410  1.0000 -0.6297907919
O   O34       1.0  0.57940  0.93079  0.17760  1.0000 -0.7015538007
O   O35       1.0  0.28210  0.93950  0.18580  1.0000 -0.7015538007
O   O36       1.0  0.31660  0.31766  0.13430  1.0000 -0.5625434607
O   O37       1.0  0.40430  0.38571  0.16650  1.0000 -0.7207482919
O   O38       1.0  0.70730  0.35952  0.19270  1.0000 -0.7207482919
O   O39       1.0  0.54640  0.82619  0.21710  1.0000 -0.6441181094
O   O40       1.0  0.83360  0.29662  0.19020  1.0000 -0.5765539497
O   O41       1.0  0.41840  0.96020  0.31740  1.0000 -0.7933445066
O   O42       1.0  0.17610  0.00472  0.15830  1.0000 -0.5408744753
O   O43       1.0  0.67260  0.99899  0.16220  1.0000 -0.5320711822
O   O44       1.0  0.36070  0.84201  0.15590  1.0000 -0.6297907919
O   O45       1.0  0.58880  0.50572  0.92480  1.0000 -0.4083186477
O   O46       1.0  0.64070  0.43942  0.88420  1.0000 -0.4411386788
O   O47       1.0  0.74710  0.46756  0.97700  1.0000 -0.4341490358
O   O48       1.0  0.41120  0.00572  0.57520  1.0000 -0.4083186477
O   O49       1.0  0.35930  0.93942  0.61580  1.0000 -0.4411386788
O   O50       1.0  0.25290  0.96756  0.52300  1.0000 -0.4341490358
O   O51       1.0  0.41120  0.49428  0.07520  1.0000 -0.4083186477
O   O52       1.0  0.35930  0.56058  0.11580  1.0000 -0.4411386788
O   O53       1.0  0.25290  0.53244  0.02300  1.0000 -0.4341490358
O   O54       1.0  0.58880  0.99428  0.42480  1.0000 -0.4083186477
O   O55       1.0  0.64070  0.06058  0.38420  1.0000 -0.4411386788
O   O56       1.0  0.74710  0.03244  0.47700  1.0000 -0.4341490358
